MODEL 1
REMARK VINA RESULT:      -8.2      0.000      0.000
REMARK  Name = 
REMARK  6 active torsions:
REMARK  status: ('A' for Active; 'I' for Inactive)
REMARK    1  A    between atoms: C_1  and  O_2
REMARK    2  A    between atoms: O_2  and  C_3
REMARK    3  A    between atoms: C_6  and  N_7
REMARK    4  A    between atoms: C_12  and  N_13
REMARK    5  A    between atoms: C_26  and  O_27
REMARK    6  A    between atoms: O_27  and  C_28
REMARK                            x       y       z     vdW  Elec       q    Type
REMARK                         _______ _______ _______ _____ _____    ______ ____
ROOT
ATOM      1  N   UNL     1       1.017  10.942  18.337  0.00  0.00    +0.000 N 
ATOM      2  C   UNL     1       1.111  10.005  19.370  0.00  0.00    +0.000 A 
ATOM      3  N   UNL     1       0.748  10.374  20.607  0.00  0.00    +0.000 NA
ATOM      4  C   UNL     1       0.850   9.458  21.568  0.00  0.00    +0.000 A 
ATOM      5  C   UNL     1       1.274   8.179  21.333  0.00  0.00    +0.000 A 
ATOM      6  C   UNL     1       1.622   7.852  20.032  0.00  0.00    +0.000 A 
ATOM      7  N   UNL     1       1.556   8.777  19.054  0.00  0.00    +0.000 NA
ATOM      8  H   UNL     1       1.513  10.578  17.534  0.00  0.00    +0.000 HD
ENDROOT
BRANCH   6   9
ATOM      9  N   UNL     1       2.094   6.587  19.744  0.00  0.00    +0.000 N 
ATOM     10  C   UNL     1       2.709   6.262  18.466  0.00  0.00    +0.000 C 
ATOM     11  C   UNL     1       2.094   4.963  17.953  0.00  0.00    +0.000 C 
ATOM     12  C   UNL     1       2.184   3.832  19.004  0.00  0.00    +0.000 C 
ATOM     13  C   UNL     1       3.609   3.252  19.111  0.00  0.00    +0.000 C 
ATOM     14  C   UNL     1       3.650   2.173  18.041  0.00  0.00    +0.000 C 
ATOM     15  N   UNL     1       2.295   1.732  17.964  0.00  0.00    +0.000 N 
ATOM     16  C   UNL     1       1.401   2.635  18.491  0.00  0.00    +0.000 C 
ATOM     17  O   UNL     1       0.191   2.495  18.477  0.00  0.00    +0.000 OA
ATOM     18  C   UNL     1       1.634   4.305  20.360  0.00  0.00    +0.000 C 
ATOM     19  C   UNL     1       2.282   5.616  20.816  0.00  0.00    +0.000 C 
ATOM     20  H   UNL     1       1.971   0.891  17.496  0.00  0.00    +0.000 HD
ENDBRANCH   6   9
BRANCH   1  24
ATOM     21  C   UNL     1       1.361  15.103  18.990  0.00  0.00    +0.000 A 
ATOM     22  C   UNL     1       0.115  14.534  18.696  0.00  0.00    +0.000 A 
ATOM     23  C   UNL     1      -0.011  13.165  18.481  0.00  0.00    +0.000 A 
ATOM     24  C   UNL     1       1.113  12.337  18.491  0.00  0.00    +0.000 A 
ATOM     25  C   UNL     1       2.362  12.918  18.725  0.00  0.00    +0.000 A 
ATOM     26  C   UNL     1       2.508  14.297  18.950  0.00  0.00    +0.000 A 
BRANCH  21  28
ATOM     27  C   UNL     1       1.660  17.299  18.192  0.00  0.00    +0.000 C 
ATOM     28  O   UNL     1       1.460  16.431  19.309  0.00  0.00    +0.000 OA
ENDBRANCH  21  28
BRANCH  26  29
ATOM     29  O   UNL     1       3.819  14.654  19.124  0.00  0.00    +0.000 OA
ATOM     30  C   UNL     1       4.684  14.669  18.001  0.00  0.00    +0.000 C 
ENDBRANCH  26  29
ENDBRANCH   1  24
TORSDOF 4
ENDMDL
MODEL 2
REMARK VINA RESULT:      -8.0      0.772      1.760
REMARK  Name = 
REMARK  6 active torsions:
REMARK  status: ('A' for Active; 'I' for Inactive)
REMARK    1  A    between atoms: C_1  and  O_2
REMARK    2  A    between atoms: O_2  and  C_3
REMARK    3  A    between atoms: C_6  and  N_7
REMARK    4  A    between atoms: C_12  and  N_13
REMARK    5  A    between atoms: C_26  and  O_27
REMARK    6  A    between atoms: O_27  and  C_28
REMARK                            x       y       z     vdW  Elec       q    Type
REMARK                         _______ _______ _______ _____ _____    ______ ____
ROOT
ATOM      1  N   UNL     1       1.340  10.847  18.288  0.00  0.00    +0.000 N 
ATOM      2  C   UNL     1       1.317   9.907  19.322  0.00  0.00    +0.000 A 
ATOM      3  N   UNL     1       0.880  10.291  20.530  0.00  0.00    +0.000 NA
ATOM      4  C   UNL     1       0.870   9.369  21.493  0.00  0.00    +0.000 A 
ATOM      5  C   UNL     1       1.255   8.074  21.285  0.00  0.00    +0.000 A 
ATOM      6  C   UNL     1       1.684   7.733  20.012  0.00  0.00    +0.000 A 
ATOM      7  N   UNL     1       1.731   8.661  19.035  0.00  0.00    +0.000 NA
ATOM      8  H   UNL     1       1.878  10.463  17.523  0.00  0.00    +0.000 HD
ENDROOT
BRANCH   6   9
ATOM      9  N   UNL     1       2.120   6.449  19.754  0.00  0.00    +0.000 N 
ATOM     10  C   UNL     1       2.758   6.084  18.497  0.00  0.00    +0.000 C 
ATOM     11  C   UNL     1       2.114   4.799  17.986  0.00  0.00    +0.000 C 
ATOM     12  C   UNL     1       2.138   3.682  19.055  0.00  0.00    +0.000 C 
ATOM     13  C   UNL     1       3.539   3.057  19.209  0.00  0.00    +0.000 C 
ATOM     14  C   UNL     1       3.572   1.961  18.155  0.00  0.00    +0.000 C 
ATOM     15  N   UNL     1       2.206   1.564  18.048  0.00  0.00    +0.000 N 
ATOM     16  C   UNL     1       1.329   2.503  18.538  0.00  0.00    +0.000 C 
ATOM     17  O   UNL     1       0.116   2.404  18.494  0.00  0.00    +0.000 OA
ATOM     18  C   UNL     1       1.569   4.193  20.389  0.00  0.00    +0.000 C 
ATOM     19  C   UNL     1       2.248   5.488  20.844  0.00  0.00    +0.000 C 
ATOM     20  H   UNL     1       1.867   0.727  17.583  0.00  0.00    +0.000 HD
ENDBRANCH   6   9
BRANCH   1  24
ATOM     21  C   UNL     1       1.660  15.048  18.628  0.00  0.00    +0.000 A 
ATOM     22  C   UNL     1       2.796  14.272  18.363  0.00  0.00    +0.000 A 
ATOM     23  C   UNL     1       2.702  12.888  18.246  0.00  0.00    +0.000 A 
ATOM     24  C   UNL     1       1.485  12.237  18.455  0.00  0.00    +0.000 A 
ATOM     25  C   UNL     1       0.367  13.010  18.779  0.00  0.00    +0.000 A 
ATOM     26  C   UNL     1       0.441  14.409  18.895  0.00  0.00    +0.000 A 
BRANCH  21  28
ATOM     27  C   UNL     1       2.671  16.961  17.696  0.00  0.00    +0.000 C 
ATOM     28  O   UNL     1       1.739  16.416  18.631  0.00  0.00    +0.000 OA
ENDBRANCH  21  28
BRANCH  26  29
ATOM     29  O   UNL     1      -0.762  14.959  19.250  0.00  0.00    +0.000 OA
ATOM     30  C   UNL     1      -1.007  15.257  20.615  0.00  0.00    +0.000 C 
ENDBRANCH  26  29
ENDBRANCH   1  24
TORSDOF 4
ENDMDL
MODEL 3
REMARK VINA RESULT:      -7.8      2.878      3.535
REMARK  Name = 
REMARK  6 active torsions:
REMARK  status: ('A' for Active; 'I' for Inactive)
REMARK    1  A    between atoms: C_1  and  O_2
REMARK    2  A    between atoms: O_2  and  C_3
REMARK    3  A    between atoms: C_6  and  N_7
REMARK    4  A    between atoms: C_12  and  N_13
REMARK    5  A    between atoms: C_26  and  O_27
REMARK    6  A    between atoms: O_27  and  C_28
REMARK                            x       y       z     vdW  Elec       q    Type
REMARK                         _______ _______ _______ _____ _____    ______ ____
ROOT
ATOM      1  N   UNL     1       0.422  10.295  21.216  0.00  0.00    +0.000 N 
ATOM      2  C   UNL     1       1.023   9.702  20.101  0.00  0.00    +0.000 A 
ATOM      3  N   UNL     1       1.212  10.445  19.001  0.00  0.00    +0.000 NA
ATOM      4  C   UNL     1       1.788   9.849  17.959  0.00  0.00    +0.000 A 
ATOM      5  C   UNL     1       2.205   8.547  17.984  0.00  0.00    +0.000 A 
ATOM      6  C   UNL     1       1.996   7.833  19.154  0.00  0.00    +0.000 A 
ATOM      7  N   UNL     1       1.385   8.412  20.208  0.00  0.00    +0.000 NA
ATOM      8  H   UNL     1       0.169   9.564  21.866  0.00  0.00    +0.000 HD
ENDROOT
BRANCH   6   9
ATOM      9  N   UNL     1       2.362   6.504  19.224  0.00  0.00    +0.000 N 
ATOM     10  C   UNL     1       3.148   5.861  18.180  0.00  0.00    +0.000 C 
ATOM     11  C   UNL     1       2.487   4.531  17.832  0.00  0.00    +0.000 C 
ATOM     12  C   UNL     1       2.264   3.656  19.087  0.00  0.00    +0.000 C 
ATOM     13  C   UNL     1       3.573   3.009  19.581  0.00  0.00    +0.000 C 
ATOM     14  C   UNL     1       3.675   1.721  18.779  0.00  0.00    +0.000 C 
ATOM     15  N   UNL     1       2.312   1.376  18.533  0.00  0.00    +0.000 N 
ATOM     16  C   UNL     1       1.449   2.437  18.685  0.00  0.00    +0.000 C 
ATOM     17  O   UNL     1       0.253   2.388  18.467  0.00  0.00    +0.000 OA
ATOM     18  C   UNL     1       1.546   4.454  20.188  0.00  0.00    +0.000 C 
ATOM     19  C   UNL     1       2.251   5.781  20.485  0.00  0.00    +0.000 C 
ATOM     20  H   UNL     1       1.980   0.479  18.192  0.00  0.00    +0.000 HD
ENDBRANCH   6   9
BRANCH   1  24
ATOM     21  C   UNL     1      -2.227  13.575  20.916  0.00  0.00    +0.000 A 
ATOM     22  C   UNL     1      -1.256  13.540  21.926  0.00  0.00    +0.000 A 
ATOM     23  C   UNL     1      -0.377  12.466  22.033  0.00  0.00    +0.000 A 
ATOM     24  C   UNL     1      -0.485  11.370  21.175  0.00  0.00    +0.000 A 
ATOM     25  C   UNL     1      -1.493  11.383  20.208  0.00  0.00    +0.000 A 
ATOM     26  C   UNL     1      -2.387  12.460  20.081  0.00  0.00    +0.000 A 
BRANCH  21  28
ATOM     27  C   UNL     1      -4.102  14.786  21.670  0.00  0.00    +0.000 C 
ATOM     28  O   UNL     1      -3.014  14.684  20.749  0.00  0.00    +0.000 OA
ENDBRANCH  21  28
BRANCH  26  29
ATOM     29  O   UNL     1      -3.311  12.248  19.093  0.00  0.00    +0.000 OA
ATOM     30  C   UNL     1      -2.938  11.494  17.951  0.00  0.00    +0.000 C 
ENDBRANCH  26  29
ENDBRANCH   1  24
TORSDOF 4
ENDMDL
MODEL 4
REMARK VINA RESULT:      -7.8      2.999      3.684
REMARK  Name = 
REMARK  6 active torsions:
REMARK  status: ('A' for Active; 'I' for Inactive)
REMARK    1  A    between atoms: C_1  and  O_2
REMARK    2  A    between atoms: O_2  and  C_3
REMARK    3  A    between atoms: C_6  and  N_7
REMARK    4  A    between atoms: C_12  and  N_13
REMARK    5  A    between atoms: C_26  and  O_27
REMARK    6  A    between atoms: O_27  and  C_28
REMARK                            x       y       z     vdW  Elec       q    Type
REMARK                         _______ _______ _______ _____ _____    ______ ____
ROOT
ATOM      1  N   UNL     1       0.257  10.217  21.308  0.00  0.00    +0.000 N 
ATOM      2  C   UNL     1       0.911   9.672  20.199  0.00  0.00    +0.000 A 
ATOM      3  N   UNL     1       1.139  10.458  19.137  0.00  0.00    +0.000 NA
ATOM      4  C   UNL     1       1.765   9.908  18.098  0.00  0.00    +0.000 A 
ATOM      5  C   UNL     1       2.196   8.611  18.093  0.00  0.00    +0.000 A 
ATOM      6  C   UNL     1       1.946   7.851  19.225  0.00  0.00    +0.000 A 
ATOM      7  N   UNL     1       1.284   8.383  20.272  0.00  0.00    +0.000 NA
ATOM      8  H   UNL     1      -0.015   9.458  21.919  0.00  0.00    +0.000 HD
ENDROOT
BRANCH   6   9
ATOM      9  N   UNL     1       2.324   6.524  19.260  0.00  0.00    +0.000 N 
ATOM     10  C   UNL     1       3.081   5.905  18.182  0.00  0.00    +0.000 C 
ATOM     11  C   UNL     1       2.420   4.576  17.831  0.00  0.00    +0.000 C 
ATOM     12  C   UNL     1       2.244   3.677  19.077  0.00  0.00    +0.000 C 
ATOM     13  C   UNL     1       3.572   3.033  19.519  0.00  0.00    +0.000 C 
ATOM     14  C   UNL     1       3.658   1.759  18.692  0.00  0.00    +0.000 C 
ATOM     15  N   UNL     1       2.291   1.408  18.483  0.00  0.00    +0.000 N 
ATOM     16  C   UNL     1       1.426   2.459  18.680  0.00  0.00    +0.000 C 
ATOM     17  O   UNL     1       0.223   2.404  18.498  0.00  0.00    +0.000 OA
ATOM     18  C   UNL     1       1.554   4.451  20.213  0.00  0.00    +0.000 C 
ATOM     19  C   UNL     1       2.258   5.779  20.511  0.00  0.00    +0.000 C 
ATOM     20  H   UNL     1       1.956   0.514  18.136  0.00  0.00    +0.000 HD
ENDBRANCH   6   9
BRANCH   1  24
ATOM     21  C   UNL     1      -2.614  13.318  21.318  0.00  0.00    +0.000 A 
ATOM     22  C   UNL     1      -2.341  12.611  20.140  0.00  0.00    +0.000 A 
ATOM     23  C   UNL     1      -1.399  11.586  20.125  0.00  0.00    +0.000 A 
ATOM     24  C   UNL     1      -0.660  11.283  21.269  0.00  0.00    +0.000 A 
ATOM     25  C   UNL     1      -0.893  12.031  22.426  0.00  0.00    +0.000 A 
ATOM     26  C   UNL     1      -1.843  13.066  22.462  0.00  0.00    +0.000 A 
BRANCH  21  28
ATOM     27  C   UNL     1      -4.935  13.702  21.445  0.00  0.00    +0.000 C 
ATOM     28  O   UNL     1      -3.618  14.249  21.352  0.00  0.00    +0.000 OA
ENDBRANCH  21  28
BRANCH  26  29
ATOM     29  O   UNL     1      -1.883  13.685  23.683  0.00  0.00    +0.000 OA
ATOM     30  C   UNL     1      -1.114  14.859  23.886  0.00  0.00    +0.000 C 
ENDBRANCH  26  29
ENDBRANCH   1  24
TORSDOF 4
ENDMDL
MODEL 5
REMARK VINA RESULT:      -7.7      2.887      3.926
REMARK  Name = 
REMARK  6 active torsions:
REMARK  status: ('A' for Active; 'I' for Inactive)
REMARK    1  A    between atoms: C_1  and  O_2
REMARK    2  A    between atoms: O_2  and  C_3
REMARK    3  A    between atoms: C_6  and  N_7
REMARK    4  A    between atoms: C_12  and  N_13
REMARK    5  A    between atoms: C_26  and  O_27
REMARK    6  A    between atoms: O_27  and  C_28
REMARK                            x       y       z     vdW  Elec       q    Type
REMARK                         _______ _______ _______ _____ _____    ______ ____
ROOT
ATOM      1  N   UNL     1       0.675  10.371  21.741  0.00  0.00    +0.000 N 
ATOM      2  C   UNL     1       1.060   9.767  20.540  0.00  0.00    +0.000 A 
ATOM      3  N   UNL     1       1.044  10.501  19.419  0.00  0.00    +0.000 NA
ATOM      4  C   UNL     1       1.417   9.896  18.292  0.00  0.00    +0.000 A 
ATOM      5  C   UNL     1       1.831   8.593  18.251  0.00  0.00    +0.000 A 
ATOM      6  C   UNL     1       1.840   7.889  19.445  0.00  0.00    +0.000 A 
ATOM      7  N   UNL     1       1.434   8.478  20.589  0.00  0.00    +0.000 NA
ATOM      8  H   UNL     1       0.545   9.645  22.433  0.00  0.00    +0.000 HD
ENDROOT
BRANCH   6   9
ATOM      9  N   UNL     1       2.211   6.560  19.457  0.00  0.00    +0.000 N 
ATOM     10  C   UNL     1       3.010   5.969  18.393  0.00  0.00    +0.000 C 
ATOM     11  C   UNL     1       2.358   4.653  17.976  0.00  0.00    +0.000 C 
ATOM     12  C   UNL     1       2.127   3.720  19.187  0.00  0.00    +0.000 C 
ATOM     13  C   UNL     1       3.434   3.056  19.664  0.00  0.00    +0.000 C 
ATOM     14  C   UNL     1       3.549   1.807  18.805  0.00  0.00    +0.000 C 
ATOM     15  N   UNL     1       2.190   1.469  18.529  0.00  0.00    +0.000 N 
ATOM     16  C   UNL     1       1.321   2.518  18.721  0.00  0.00    +0.000 C 
ATOM     17  O   UNL     1       0.127   2.475  18.489  0.00  0.00    +0.000 OA
ATOM     18  C   UNL     1       1.394   4.464  20.316  0.00  0.00    +0.000 C 
ATOM     19  C   UNL     1       2.091   5.779  20.682  0.00  0.00    +0.000 C 
ATOM     20  H   UNL     1       1.866   0.587  18.143  0.00  0.00    +0.000 HD
ENDBRANCH   6   9
BRANCH   1  24
ATOM     21  C   UNL     1      -2.147  13.508  21.978  0.00  0.00    +0.000 A 
ATOM     22  C   UNL     1      -0.897  13.726  21.384  0.00  0.00    +0.000 A 
ATOM     23  C   UNL     1       0.040  12.699  21.299  0.00  0.00    +0.000 A 
ATOM     24  C   UNL     1      -0.222  11.448  21.860  0.00  0.00    +0.000 A 
ATOM     25  C   UNL     1      -1.447  11.254  22.504  0.00  0.00    +0.000 A 
ATOM     26  C   UNL     1      -2.407  12.276  22.595  0.00  0.00    +0.000 A 
BRANCH  21  28
ATOM     27  C   UNL     1      -2.619  15.787  21.614  0.00  0.00    +0.000 C 
ATOM     28  O   UNL     1      -3.104  14.489  21.960  0.00  0.00    +0.000 OA
ENDBRANCH  21  28
BRANCH  26  29
ATOM     29  O   UNL     1      -3.517  11.879  23.294  0.00  0.00    +0.000 OA
ATOM     30  C   UNL     1      -3.884  12.589  24.465  0.00  0.00    +0.000 C 
ENDBRANCH  26  29
ENDBRANCH   1  24
TORSDOF 4
ENDMDL
MODEL 6
REMARK VINA RESULT:      -7.7      1.532      1.957
REMARK  Name = 
REMARK  6 active torsions:
REMARK  status: ('A' for Active; 'I' for Inactive)
REMARK    1  A    between atoms: C_1  and  O_2
REMARK    2  A    between atoms: O_2  and  C_3
REMARK    3  A    between atoms: C_6  and  N_7
REMARK    4  A    between atoms: C_12  and  N_13
REMARK    5  A    between atoms: C_26  and  O_27
REMARK    6  A    between atoms: O_27  and  C_28
REMARK                            x       y       z     vdW  Elec       q    Type
REMARK                         _______ _______ _______ _____ _____    ______ ____
ROOT
ATOM      1  N   UNL     1       0.797  11.334  18.377  0.00  0.00    +0.000 N 
ATOM      2  C   UNL     1       1.007  10.364  19.362  0.00  0.00    +0.000 A 
ATOM      3  N   UNL     1       0.785  10.691  20.643  0.00  0.00    +0.000 NA
ATOM      4  C   UNL     1       0.994   9.744  21.556  0.00  0.00    +0.000 A 
ATOM      5  C   UNL     1       1.391   8.476  21.233  0.00  0.00    +0.000 A 
ATOM      6  C   UNL     1       1.592   8.193  19.891  0.00  0.00    +0.000 A 
ATOM      7  N   UNL     1       1.415   9.149  18.957  0.00  0.00    +0.000 NA
ATOM      8  H   UNL     1       1.200  10.999  17.512  0.00  0.00    +0.000 HD
ENDROOT
BRANCH   6   9
ATOM      9  N   UNL     1       2.030   6.940  19.510  0.00  0.00    +0.000 N 
ATOM     10  C   UNL     1       1.823   5.762  20.340  0.00  0.00    +0.000 C 
ATOM     11  C   UNL     1       3.142   4.998  20.426  0.00  0.00    +0.000 C 
ATOM     12  C   UNL     1       3.719   4.692  19.025  0.00  0.00    +0.000 C 
ATOM     13  C   UNL     1       2.965   3.544  18.325  0.00  0.00    +0.000 C 
ATOM     14  C   UNL     1       3.666   2.288  18.818  0.00  0.00    +0.000 C 
ATOM     15  N   UNL     1       5.001   2.728  19.061  0.00  0.00    +0.000 N 
ATOM     16  C   UNL     1       5.106   4.093  19.196  0.00  0.00    +0.000 C 
ATOM     17  O   UNL     1       6.136   4.682  19.468  0.00  0.00    +0.000 OA
ATOM     18  C   UNL     1       3.778   5.969  18.170  0.00  0.00    +0.000 C 
ATOM     19  C   UNL     1       2.430   6.695  18.130  0.00  0.00    +0.000 C 
ATOM     20  H   UNL     1       5.804   2.126  19.217  0.00  0.00    +0.000 HD
ENDBRANCH   6   9
BRANCH   1  24
ATOM     21  C   UNL     1       1.198  15.473  19.129  0.00  0.00    +0.000 A 
ATOM     22  C   UNL     1      -0.067  14.915  18.900  0.00  0.00    +0.000 A 
ATOM     23  C   UNL     1      -0.211  13.553  18.653  0.00  0.00    +0.000 A 
ATOM     24  C   UNL     1       0.908  12.723  18.566  0.00  0.00    +0.000 A 
ATOM     25  C   UNL     1       2.171  13.295  18.736  0.00  0.00    +0.000 A 
ATOM     26  C   UNL     1       2.337  14.667  18.991  0.00  0.00    +0.000 A 
BRANCH  21  28
ATOM     27  C   UNL     1       1.395  17.697  18.377  0.00  0.00    +0.000 C 
ATOM     28  O   UNL     1       1.322  16.792  19.480  0.00  0.00    +0.000 OA
ENDBRANCH  21  28
BRANCH  26  29
ATOM     29  O   UNL     1       3.658  15.016  19.090  0.00  0.00    +0.000 OA
ATOM     30  C   UNL     1       4.455  15.039  17.918  0.00  0.00    +0.000 C 
ENDBRANCH  26  29
ENDBRANCH   1  24
TORSDOF 4
ENDMDL
MODEL 7
REMARK VINA RESULT:      -7.7      2.387      3.294
REMARK  Name = 
REMARK  6 active torsions:
REMARK  status: ('A' for Active; 'I' for Inactive)
REMARK    1  A    between atoms: C_1  and  O_2
REMARK    2  A    between atoms: O_2  and  C_3
REMARK    3  A    between atoms: C_6  and  N_7
REMARK    4  A    between atoms: C_12  and  N_13
REMARK    5  A    between atoms: C_26  and  O_27
REMARK    6  A    between atoms: O_27  and  C_28
REMARK                            x       y       z     vdW  Elec       q    Type
REMARK                         _______ _______ _______ _____ _____    ______ ____
ROOT
ATOM      1  N   UNL     1       0.553  10.157  21.817  0.00  0.00    +0.000 N 
ATOM      2  C   UNL     1       0.989   9.623  20.600  0.00  0.00    +0.000 A 
ATOM      3  N   UNL     1       0.983  10.410  19.515  0.00  0.00    +0.000 NA
ATOM      4  C   UNL     1       1.406   9.871  18.373  0.00  0.00    +0.000 A 
ATOM      5  C   UNL     1       1.858   8.583  18.282  0.00  0.00    +0.000 A 
ATOM      6  C   UNL     1       1.854   7.823  19.440  0.00  0.00    +0.000 A 
ATOM      7  N   UNL     1       1.399   8.343  20.598  0.00  0.00    +0.000 NA
ATOM      8  H   UNL     1       0.425   9.394  22.469  0.00  0.00    +0.000 HD
ENDROOT
BRANCH   6   9
ATOM      9  N   UNL     1       2.263   6.505  19.399  0.00  0.00    +0.000 N 
ATOM     10  C   UNL     1       3.003   5.958  18.271  0.00  0.00    +0.000 C 
ATOM     11  C   UNL     1       2.362   4.632  17.873  0.00  0.00    +0.000 C 
ATOM     12  C   UNL     1       2.242   3.670  19.078  0.00  0.00    +0.000 C 
ATOM     13  C   UNL     1       3.598   3.036  19.451  0.00  0.00    +0.000 C 
ATOM     14  C   UNL     1       3.689   1.807  18.560  0.00  0.00    +0.000 C 
ATOM     15  N   UNL     1       2.325   1.434  18.371  0.00  0.00    +0.000 N 
ATOM     16  C   UNL     1       1.441   2.453  18.643  0.00  0.00    +0.000 C 
ATOM     17  O   UNL     1       0.236   2.378  18.492  0.00  0.00    +0.000 OA
ATOM     18  C   UNL     1       1.568   4.370  20.269  0.00  0.00    +0.000 C 
ATOM     19  C   UNL     1       2.250   5.698  20.614  0.00  0.00    +0.000 C 
ATOM     20  H   UNL     1       2.000   0.550  17.990  0.00  0.00    +0.000 HD
ENDBRANCH   6   9
BRANCH   1  24
ATOM     21  C   UNL     1      -2.096  13.413  22.310  0.00  0.00    +0.000 A 
ATOM     22  C   UNL     1      -2.241  12.258  23.092  0.00  0.00    +0.000 A 
ATOM     23  C   UNL     1      -1.374  11.181  22.939  0.00  0.00    +0.000 A 
ATOM     24  C   UNL     1      -0.379  11.201  21.960  0.00  0.00    +0.000 A 
ATOM     25  C   UNL     1      -0.276  12.330  21.143  0.00  0.00    +0.000 A 
ATOM     26  C   UNL     1      -1.139  13.430  21.285  0.00  0.00    +0.000 A 
BRANCH  21  28
ATOM     27  C   UNL     1      -2.479  15.309  23.655  0.00  0.00    +0.000 C 
ATOM     28  O   UNL     1      -2.883  14.510  22.541  0.00  0.00    +0.000 OA
ENDBRANCH  21  28
BRANCH  26  29
ATOM     29  O   UNL     1      -0.882  14.409  20.363  0.00  0.00    +0.000 OA
ATOM     30  C   UNL     1      -0.180  14.071  19.177  0.00  0.00    +0.000 C 
ENDBRANCH  26  29
ENDBRANCH   1  24
TORSDOF 4
ENDMDL
MODEL 8
REMARK VINA RESULT:      -7.5      4.380      8.820
REMARK  Name = 
REMARK  6 active torsions:
REMARK  status: ('A' for Active; 'I' for Inactive)
REMARK    1  A    between atoms: C_1  and  O_2
REMARK    2  A    between atoms: O_2  and  C_3
REMARK    3  A    between atoms: C_6  and  N_7
REMARK    4  A    between atoms: C_12  and  N_13
REMARK    5  A    between atoms: C_26  and  O_27
REMARK    6  A    between atoms: O_27  and  C_28
REMARK                            x       y       z     vdW  Elec       q    Type
REMARK                         _______ _______ _______ _____ _____    ______ ____
ROOT
ATOM      1  N   UNL     1       1.919   8.385  17.762  0.00  0.00    +0.000 N 
ATOM      2  C   UNL     1       1.078   9.132  18.593  0.00  0.00    +0.000 A 
ATOM      3  N   UNL     1       1.462   9.361  19.857  0.00  0.00    +0.000 NA
ATOM      4  C   UNL     1       0.638  10.076  20.621  0.00  0.00    +0.000 A 
ATOM      5  C   UNL     1      -0.542  10.592  20.160  0.00  0.00    +0.000 A 
ATOM      6  C   UNL     1      -0.878  10.334  18.841  0.00  0.00    +0.000 A 
ATOM      7  N   UNL     1      -0.071   9.585  18.063  0.00  0.00    +0.000 NA
ATOM      8  H   UNL     1       1.401   8.133  16.931  0.00  0.00    +0.000 HD
ENDROOT
BRANCH   6   9
ATOM      9  N   UNL     1      -2.076  10.798  18.333  0.00  0.00    +0.000 N 
ATOM     10  C   UNL     1      -2.650  12.070  18.744  0.00  0.00    +0.000 C 
ATOM     11  C   UNL     1      -4.126  11.851  19.065  0.00  0.00    +0.000 C 
ATOM     12  C   UNL     1      -4.871  11.168  17.895  0.00  0.00    +0.000 C 
ATOM     13  C   UNL     1      -5.149  12.145  16.736  0.00  0.00    +0.000 C 
ATOM     14  C   UNL     1      -6.470  12.799  17.112  0.00  0.00    +0.000 C 
ATOM     15  N   UNL     1      -7.133  11.789  17.871  0.00  0.00    +0.000 N 
ATOM     16  C   UNL     1      -6.279  10.826  18.356  0.00  0.00    +0.000 C 
ATOM     17  O   UNL     1      -6.616   9.906  19.078  0.00  0.00    +0.000 OA
ATOM     18  C   UNL     1      -4.124   9.904  17.437  0.00  0.00    +0.000 C 
ATOM     19  C   UNL     1      -2.648  10.187  17.140  0.00  0.00    +0.000 C 
ATOM     20  H   UNL     1      -8.116  11.791  18.128  0.00  0.00    +0.000 HD
ENDBRANCH   6   9
BRANCH   1  24
ATOM     21  C   UNL     1       4.609   5.330  18.898  0.00  0.00    +0.000 A 
ATOM     22  C   UNL     1       3.473   5.596  19.674  0.00  0.00    +0.000 A 
ATOM     23  C   UNL     1       2.579   6.598  19.308  0.00  0.00    +0.000 A 
ATOM     24  C   UNL     1       2.829   7.403  18.195  0.00  0.00    +0.000 A 
ATOM     25  C   UNL     1       3.994   7.173  17.460  0.00  0.00    +0.000 A 
ATOM     26  C   UNL     1       4.906   6.163  17.810  0.00  0.00    +0.000 A 
BRANCH  21  28
ATOM     27  C   UNL     1       4.737   3.049  19.475  0.00  0.00    +0.000 C 
ATOM     28  O   UNL     1       5.424   4.271  19.202  0.00  0.00    +0.000 OA
ENDBRANCH  21  28
BRANCH  26  29
ATOM     29  O   UNL     1       5.990   6.135  16.974  0.00  0.00    +0.000 OA
ATOM     30  C   UNL     1       7.241   6.601  17.453  0.00  0.00    +0.000 C 
ENDBRANCH  26  29
ENDBRANCH   1  24
TORSDOF 4
ENDMDL
MODEL 9
REMARK VINA RESULT:      -7.5      2.691      3.664
REMARK  Name = 
REMARK  6 active torsions:
REMARK  status: ('A' for Active; 'I' for Inactive)
REMARK    1  A    between atoms: C_1  and  O_2
REMARK    2  A    between atoms: O_2  and  C_3
REMARK    3  A    between atoms: C_6  and  N_7
REMARK    4  A    between atoms: C_12  and  N_13
REMARK    5  A    between atoms: C_26  and  O_27
REMARK    6  A    between atoms: O_27  and  C_28
REMARK                            x       y       z     vdW  Elec       q    Type
REMARK                         _______ _______ _______ _____ _____    ______ ____
ROOT
ATOM      1  N   UNL     1       0.511   9.695  21.910  0.00  0.00    +0.000 N 
ATOM      2  C   UNL     1       1.045   9.112  20.757  0.00  0.00    +0.000 A 
ATOM      3  N   UNL     1       1.076   9.834  19.628  0.00  0.00    +0.000 NA
ATOM      4  C   UNL     1       1.592   9.249  18.548  0.00  0.00    +0.000 A 
ATOM      5  C   UNL     1       2.102   7.980  18.562  0.00  0.00    +0.000 A 
ATOM      6  C   UNL     1       2.055   7.288  19.762  0.00  0.00    +0.000 A 
ATOM      7  N   UNL     1       1.507   7.854  20.857  0.00  0.00    +0.000 NA
ATOM      8  H   UNL     1       0.373   8.967  22.598  0.00  0.00    +0.000 HD
ENDROOT
BRANCH   6   9
ATOM      9  N   UNL     1       2.521   5.990  19.826  0.00  0.00    +0.000 N 
ATOM     10  C   UNL     1       3.873   5.631  19.424  0.00  0.00    +0.000 C 
ATOM     11  C   UNL     1       3.796   4.403  18.522  0.00  0.00    +0.000 C 
ATOM     12  C   UNL     1       3.007   3.252  19.188  0.00  0.00    +0.000 C 
ATOM     13  C   UNL     1       3.830   2.542  20.281  0.00  0.00    +0.000 C 
ATOM     14  C   UNL     1       4.614   1.481  19.524  0.00  0.00    +0.000 C 
ATOM     15  N   UNL     1       3.764   1.168  18.421  0.00  0.00    +0.000 N 
ATOM     16  C   UNL     1       2.825   2.140  18.168  0.00  0.00    +0.000 C 
ATOM     17  O   UNL     1       2.037   2.112  17.239  0.00  0.00    +0.000 OA
ATOM     18  C   UNL     1       1.646   3.750  19.702  0.00  0.00    +0.000 C 
ATOM     19  C   UNL     1       1.789   4.989  20.592  0.00  0.00    +0.000 C 
ATOM     20  H   UNL     1       3.866   0.367  17.804  0.00  0.00    +0.000 HD
ENDBRANCH   6   9
BRANCH   1  24
ATOM     21  C   UNL     1      -2.289  12.860  21.969  0.00  0.00    +0.000 A 
ATOM     22  C   UNL     1      -2.160  12.010  23.075  0.00  0.00    +0.000 A 
ATOM     23  C   UNL     1      -1.239  10.966  23.068  0.00  0.00    +0.000 A 
ATOM     24  C   UNL     1      -0.470  10.703  21.933  0.00  0.00    +0.000 A 
ATOM     25  C   UNL     1      -0.646  11.516  20.811  0.00  0.00    +0.000 A 
ATOM     26  C   UNL     1      -1.566  12.578  20.801  0.00  0.00    +0.000 A 
BRANCH  21  28
ATOM     27  C   UNL     1      -4.505  13.654  21.865  0.00  0.00    +0.000 C 
ATOM     28  O   UNL     1      -3.117  13.950  22.024  0.00  0.00    +0.000 OA
ENDBRANCH  21  28
BRANCH  26  29
ATOM     29  O   UNL     1      -1.598  13.220  19.591  0.00  0.00    +0.000 OA
ATOM     30  C   UNL     1      -1.094  12.555  18.445  0.00  0.00    +0.000 C 
ENDBRANCH  26  29
ENDBRANCH   1  24
TORSDOF 4
ENDMDL
