MODEL 1
REMARK VINA RESULT:      -7.0      0.000      0.000
REMARK  Name = 
REMARK  8 active torsions:
REMARK  status: ('A' for Active; 'I' for Inactive)
REMARK    1  A    between atoms: C_1  and  C_2
REMARK    2  A    between atoms: C_2  and  O_3
REMARK    3  A    between atoms: O_3  and  C_4
REMARK    4  A    between atoms: N_9  and  C_10
REMARK    5  A    between atoms: C_10  and  C_11
REMARK    6  A    between atoms: C_19  and  C_21
REMARK    7  A    between atoms: C_23  and  C_24
REMARK    8  A    between atoms: C_26  and  C_27
REMARK                            x       y       z     vdW  Elec       q    Type
REMARK                         _______ _______ _______ _____ _____    ______ ____
ROOT
ATOM      1  C   UNL     1       2.279   7.500  19.015  0.00  0.00    +0.000 A 
ATOM      2  C   UNL     1       1.982   7.174  20.343  0.00  0.00    +0.000 A 
ATOM      3  C   UNL     1       1.125   7.980  21.086  0.00  0.00    +0.000 A 
ATOM      4  C   UNL     1       0.589   9.137  20.521  0.00  0.00    +0.000 A 
ATOM      5  C   UNL     1       0.889   9.510  19.205  0.00  0.00    +0.000 A 
ATOM      6  C   UNL     1       1.726   8.666  18.456  0.00  0.00    +0.000 A 
ATOM      7  C   UNL     1       0.311  10.750  18.566  0.00  0.00    +0.000 C 
ATOM      8  N   UNL     1       0.621  11.978  19.302  0.00  0.00    +0.000 N 
ATOM      9  C   UNL     1       1.804  12.664  18.955  0.00  0.00    +0.000 C 
ATOM     10  O   UNL     1       2.543  12.199  18.084  0.00  0.00    +0.000 OA
ATOM     11  C   UNL     1      -0.144  12.158  20.542  0.00  0.00    +0.000 C 
ATOM     12  C   UNL     1       0.222  11.137  21.618  0.00  0.00    +0.000 C 
ATOM     13  O   UNL     1      -0.293   9.842  21.295  0.00  0.00    +0.000 OA
ENDROOT
BRANCH   9  14
ATOM     14  C   UNL     1       2.157  13.907  19.626  0.00  0.00    +0.000 A 
ATOM     15  S   UNL     1       3.280  13.984  20.929  0.00  0.00    +0.000 S 
ATOM     16  C   UNL     1       3.084  15.684  21.003  0.00  0.00    +0.000 A 
ATOM     17  C   UNL     1       3.943  16.512  21.892  0.00  0.00    +0.000 C 
ATOM     18  N   UNL     1       2.121  16.166  20.252  0.00  0.00    +0.000 NA
ATOM     19  C   UNL     1       1.537  15.144  19.512  0.00  0.00    +0.000 A 
ATOM     20  C   UNL     1       0.343  15.486  18.687  0.00  0.00    +0.000 C 
ENDBRANCH   9  14
BRANCH   1  21
ATOM     21  C   UNL     1       3.191   6.621  18.187  0.00  0.00    +0.000 C 
BRANCH  21  27
ATOM     22  C   UNL     1       7.046   4.666  15.720  0.00  0.00    +0.000 C 
ATOM     23  O   UNL     1       7.941   4.047  16.283  0.00  0.00    +0.000 OA
ATOM     24  N   UNL     1       5.930   5.160  16.360  0.00  0.00    +0.000 N 
ATOM     25  C   UNL     1       5.813   5.015  17.809  0.00  0.00    +0.000 C 
ATOM     26  C   UNL     1       5.627   6.385  18.489  0.00  0.00    +0.000 C 
ATOM     27  N   UNL     1       4.523   7.203  17.929  0.00  0.00    +0.000 NA
ATOM     28  C   UNL     1       4.748   7.346  16.469  0.00  0.00    +0.000 C 
ATOM     29  C   UNL     1       4.926   6.010  15.714  0.00  0.00    +0.000 C 
BRANCH  22  30
ATOM     30  O   UNL     1       7.074   5.007  14.407  0.00  0.00    +0.000 OA
BRANCH  30  32
ATOM     31  C   UNL     1       7.187   4.253  12.149  0.00  0.00    +0.000 C 
ATOM     32  C   UNL     1       6.559   4.016  13.511  0.00  0.00    +0.000 C 
ENDBRANCH  30  32
ENDBRANCH  22  30
ENDBRANCH  21  27
ENDBRANCH   1  21
TORSDOF 5
ENDMDL
MODEL 2
REMARK VINA RESULT:      -6.9      0.987      1.018
REMARK  Name = 
REMARK  8 active torsions:
REMARK  status: ('A' for Active; 'I' for Inactive)
REMARK    1  A    between atoms: C_1  and  C_2
REMARK    2  A    between atoms: C_2  and  O_3
REMARK    3  A    between atoms: O_3  and  C_4
REMARK    4  A    between atoms: N_9  and  C_10
REMARK    5  A    between atoms: C_10  and  C_11
REMARK    6  A    between atoms: C_19  and  C_21
REMARK    7  A    between atoms: C_23  and  C_24
REMARK    8  A    between atoms: C_26  and  C_27
REMARK                            x       y       z     vdW  Elec       q    Type
REMARK                         _______ _______ _______ _____ _____    ______ ____
ROOT
ATOM      1  C   UNL     1       1.998   8.178  18.640  0.00  0.00    +0.000 A 
ATOM      2  C   UNL     1       1.935   7.775  19.979  0.00  0.00    +0.000 A 
ATOM      3  C   UNL     1       1.161   8.489  20.889  0.00  0.00    +0.000 A 
ATOM      4  C   UNL     1       0.475   9.632  20.477  0.00  0.00    +0.000 A 
ATOM      5  C   UNL     1       0.540  10.081  19.153  0.00  0.00    +0.000 A 
ATOM      6  C   UNL     1       1.295   9.328  18.239  0.00  0.00    +0.000 A 
ATOM      7  C   UNL     1      -0.204  11.307  18.679  0.00  0.00    +0.000 C 
ATOM      8  N   UNL     1       0.146  12.519  19.423  0.00  0.00    +0.000 N 
ATOM      9  C   UNL     1       1.216  13.297  18.933  0.00  0.00    +0.000 C 
ATOM     10  O   UNL     1       1.834  12.921  17.934  0.00  0.00    +0.000 OA
ATOM     11  C   UNL     1      -0.422  12.594  20.775  0.00  0.00    +0.000 C 
ATOM     12  C   UNL     1       0.170  11.553  21.724  0.00  0.00    +0.000 C 
ATOM     13  O   UNL     1      -0.313  10.241  21.416  0.00  0.00    +0.000 OA
ENDROOT
BRANCH   9  14
ATOM     14  C   UNL     1       1.598  14.530  19.606  0.00  0.00    +0.000 A 
ATOM     15  S   UNL     1       2.749  14.583  20.886  0.00  0.00    +0.000 S 
ATOM     16  C   UNL     1       2.574  16.284  20.978  0.00  0.00    +0.000 A 
ATOM     17  C   UNL     1       3.461  17.095  21.856  0.00  0.00    +0.000 C 
ATOM     18  N   UNL     1       1.601  16.784  20.251  0.00  0.00    +0.000 NA
ATOM     19  C   UNL     1       0.990  15.775  19.515  0.00  0.00    +0.000 A 
ATOM     20  C   UNL     1      -0.217  16.138  18.719  0.00  0.00    +0.000 C 
ENDBRANCH   9  14
BRANCH   1  21
ATOM     21  C   UNL     1       2.817   7.398  17.635  0.00  0.00    +0.000 C 
BRANCH  21  27
ATOM     22  C   UNL     1       5.927   4.100  15.583  0.00  0.00    +0.000 C 
ATOM     23  O   UNL     1       5.841   2.896  15.793  0.00  0.00    +0.000 OA
ATOM     24  N   UNL     1       5.043   5.034  16.077  0.00  0.00    +0.000 N 
ATOM     25  C   UNL     1       3.968   4.602  16.966  0.00  0.00    +0.000 C 
ATOM     26  C   UNL     1       4.023   5.356  18.308  0.00  0.00    +0.000 C 
ATOM     27  N   UNL     1       4.067   6.833  18.180  0.00  0.00    +0.000 NA
ATOM     28  C   UNL     1       5.216   7.187  17.310  0.00  0.00    +0.000 C 
ATOM     29  C   UNL     1       5.220   6.482  15.936  0.00  0.00    +0.000 C 
BRANCH  22  30
ATOM     30  O   UNL     1       6.948   4.675  14.897  0.00  0.00    +0.000 OA
BRANCH  30  32
ATOM     31  C   UNL     1       7.903   5.387  12.833  0.00  0.00    +0.000 C 
ATOM     32  C   UNL     1       6.981   4.380  13.497  0.00  0.00    +0.000 C 
ENDBRANCH  30  32
ENDBRANCH  22  30
ENDBRANCH  21  27
ENDBRANCH   1  21
TORSDOF 5
ENDMDL
MODEL 3
REMARK VINA RESULT:      -6.9      1.618      2.368
REMARK  Name = 
REMARK  8 active torsions:
REMARK  status: ('A' for Active; 'I' for Inactive)
REMARK    1  A    between atoms: C_1  and  C_2
REMARK    2  A    between atoms: C_2  and  O_3
REMARK    3  A    between atoms: O_3  and  C_4
REMARK    4  A    between atoms: N_9  and  C_10
REMARK    5  A    between atoms: C_10  and  C_11
REMARK    6  A    between atoms: C_19  and  C_21
REMARK    7  A    between atoms: C_23  and  C_24
REMARK    8  A    between atoms: C_26  and  C_27
REMARK                            x       y       z     vdW  Elec       q    Type
REMARK                         _______ _______ _______ _____ _____    ______ ____
ROOT
ATOM      1  C   UNL     1       1.326   8.529  20.602  0.00  0.00    +0.000 A 
ATOM      2  C   UNL     1       1.009   8.491  21.964  0.00  0.00    +0.000 A 
ATOM      3  C   UNL     1       0.159   9.448  22.512  0.00  0.00    +0.000 A 
ATOM      4  C   UNL     1      -0.348  10.472  21.711  0.00  0.00    +0.000 A 
ATOM      5  C   UNL     1      -0.028  10.558  20.351  0.00  0.00    +0.000 A 
ATOM      6  C   UNL     1       0.800   9.563  19.806  0.00  0.00    +0.000 A 
ATOM      7  C   UNL     1      -0.575  11.648  19.460  0.00  0.00    +0.000 C 
ATOM      8  N   UNL     1      -0.249  12.996  19.930  0.00  0.00    +0.000 N 
ATOM      9  C   UNL     1       0.950  13.575  19.464  0.00  0.00    +0.000 C 
ATOM     10  O   UNL     1       1.689  12.928  18.719  0.00  0.00    +0.000 OA
ATOM     11  C   UNL     1      -1.023  13.443  21.095  0.00  0.00    +0.000 C 
ATOM     12  C   UNL     1      -0.688  12.662  22.364  0.00  0.00    +0.000 C 
ATOM     13  O   UNL     1      -1.225  11.336  22.310  0.00  0.00    +0.000 OA
ENDROOT
BRANCH   9  14
ATOM     14  C   UNL     1       1.320  14.924  19.868  0.00  0.00    +0.000 A 
ATOM     15  S   UNL     1       2.350  15.254  21.208  0.00  0.00    +0.000 S 
ATOM     16  C   UNL     1       2.240  16.933  20.885  0.00  0.00    +0.000 A 
ATOM     17  C   UNL     1       3.076  17.910  21.634  0.00  0.00    +0.000 C 
ATOM     18  N   UNL     1       1.360  17.266  19.969  0.00  0.00    +0.000 NA
ATOM     19  C   UNL     1       0.776  16.125  19.431  0.00  0.00    +0.000 A 
ATOM     20  C   UNL     1      -0.336  16.314  18.456  0.00  0.00    +0.000 C 
ENDBRANCH   9  14
BRANCH   1  21
ATOM     21  C   UNL     1       2.229   7.482  19.988  0.00  0.00    +0.000 C 
BRANCH  21  27
ATOM     22  C   UNL     1       5.097   6.015  16.195  0.00  0.00    +0.000 C 
ATOM     23  O   UNL     1       5.495   6.790  15.333  0.00  0.00    +0.000 OA
ATOM     24  N   UNL     1       4.361   6.397  17.295  0.00  0.00    +0.000 N 
ATOM     25  C   UNL     1       3.954   7.793  17.434  0.00  0.00    +0.000 C 
ATOM     26  C   UNL     1       2.424   7.912  17.568  0.00  0.00    +0.000 C 
ATOM     27  N   UNL     1       1.833   7.061  18.630  0.00  0.00    +0.000 NA
ATOM     28  C   UNL     1       2.249   5.658  18.382  0.00  0.00    +0.000 C 
ATOM     29  C   UNL     1       3.776   5.456  18.255  0.00  0.00    +0.000 C 
BRANCH  22  30
ATOM     30  O   UNL     1       5.269   4.669  16.137  0.00  0.00    +0.000 OA
BRANCH  30  32
ATOM     31  C   UNL     1       7.404   4.541  17.186  0.00  0.00    +0.000 C 
ATOM     32  C   UNL     1       6.617   4.238  15.924  0.00  0.00    +0.000 C 
ENDBRANCH  30  32
ENDBRANCH  22  30
ENDBRANCH  21  27
ENDBRANCH   1  21
TORSDOF 5
ENDMDL
MODEL 4
REMARK VINA RESULT:      -6.9      1.446      1.898
REMARK  Name = 
REMARK  8 active torsions:
REMARK  status: ('A' for Active; 'I' for Inactive)
REMARK    1  A    between atoms: C_1  and  C_2
REMARK    2  A    between atoms: C_2  and  O_3
REMARK    3  A    between atoms: O_3  and  C_4
REMARK    4  A    between atoms: N_9  and  C_10
REMARK    5  A    between atoms: C_10  and  C_11
REMARK    6  A    between atoms: C_19  and  C_21
REMARK    7  A    between atoms: C_23  and  C_24
REMARK    8  A    between atoms: C_26  and  C_27
REMARK                            x       y       z     vdW  Elec       q    Type
REMARK                         _______ _______ _______ _____ _____    ______ ____
ROOT
ATOM      1  C   UNL     1       1.803   7.928  19.992  0.00  0.00    +0.000 A 
ATOM      2  C   UNL     1       1.273   7.841  21.285  0.00  0.00    +0.000 A 
ATOM      3  C   UNL     1       0.340   8.777  21.723  0.00  0.00    +0.000 A 
ATOM      4  C   UNL     1      -0.041   9.827  20.888  0.00  0.00    +0.000 A 
ATOM      5  C   UNL     1       0.491   9.963  19.600  0.00  0.00    +0.000 A 
ATOM      6  C   UNL     1       1.403   8.989  19.159  0.00  0.00    +0.000 A 
ATOM      7  C   UNL     1       0.084  11.082  18.672  0.00  0.00    +0.000 C 
ATOM      8  N   UNL     1       0.322  12.413  19.235  0.00  0.00    +0.000 N 
ATOM      9  C   UNL     1       1.575  13.011  18.986  0.00  0.00    +0.000 C 
ATOM     10  O   UNL     1       2.429  12.392  18.346  0.00  0.00    +0.000 OA
ATOM     11  C   UNL     1      -0.631  12.818  20.276  0.00  0.00    +0.000 C 
ATOM     12  C   UNL     1      -0.496  11.992  21.554  0.00  0.00    +0.000 C 
ATOM     13  O   UNL     1      -1.007  10.669  21.370  0.00  0.00    +0.000 OA
ENDROOT
BRANCH   9  14
ATOM     14  C   UNL     1       1.867  14.346  19.490  0.00  0.00    +0.000 A 
ATOM     15  S   UNL     1       1.371  15.783  18.682  0.00  0.00    +0.000 S 
ATOM     16  C   UNL     1       2.064  16.729  19.930  0.00  0.00    +0.000 A 
ATOM     17  C   UNL     1       1.868  18.204  19.968  0.00  0.00    +0.000 C 
ATOM     18  N   UNL     1       2.782  16.059  20.802  0.00  0.00    +0.000 NA
ATOM     19  C   UNL     1       2.733  14.699  20.516  0.00  0.00    +0.000 A 
ATOM     20  C   UNL     1       3.588  13.792  21.333  0.00  0.00    +0.000 C 
ENDBRANCH   9  14
BRANCH   1  21
ATOM     21  C   UNL     1       2.800   6.905  19.494  0.00  0.00    +0.000 C 
BRANCH  21  27
ATOM     22  C   UNL     1       6.594   5.512  16.591  0.00  0.00    +0.000 C 
ATOM     23  O   UNL     1       7.358   6.320  16.075  0.00  0.00    +0.000 OA
ATOM     24  N   UNL     1       5.577   5.857  17.454  0.00  0.00    +0.000 N 
ATOM     25  C   UNL     1       5.324   7.267  17.737  0.00  0.00    +0.000 C 
ATOM     26  C   UNL     1       3.870   7.647  17.400  0.00  0.00    +0.000 C 
ATOM     27  N   UNL     1       2.848   6.771  18.025  0.00  0.00    +0.000 NA
ATOM     28  C   UNL     1       3.146   5.368  17.644  0.00  0.00    +0.000 C 
ATOM     29  C   UNL     1       4.584   4.908  17.968  0.00  0.00    +0.000 C 
BRANCH  22  30
ATOM     30  O   UNL     1       6.606   4.182  16.320  0.00  0.00    +0.000 OA
BRANCH  30  32
ATOM     31  C   UNL     1       5.332   4.206  14.306  0.00  0.00    +0.000 C 
ATOM     32  C   UNL     1       6.670   3.847  14.930  0.00  0.00    +0.000 C 
ENDBRANCH  30  32
ENDBRANCH  22  30
ENDBRANCH  21  27
ENDBRANCH   1  21
TORSDOF 5
ENDMDL
MODEL 5
REMARK VINA RESULT:      -6.8      1.722      2.189
REMARK  Name = 
REMARK  8 active torsions:
REMARK  status: ('A' for Active; 'I' for Inactive)
REMARK    1  A    between atoms: C_1  and  C_2
REMARK    2  A    between atoms: C_2  and  O_3
REMARK    3  A    between atoms: O_3  and  C_4
REMARK    4  A    between atoms: N_9  and  C_10
REMARK    5  A    between atoms: C_10  and  C_11
REMARK    6  A    between atoms: C_19  and  C_21
REMARK    7  A    between atoms: C_23  and  C_24
REMARK    8  A    between atoms: C_26  and  C_27
REMARK                            x       y       z     vdW  Elec       q    Type
REMARK                         _______ _______ _______ _____ _____    ______ ____
ROOT
ATOM      1  C   UNL     1       1.338   8.965  19.212  0.00  0.00    +0.000 A 
ATOM      2  C   UNL     1       1.121   8.823  20.588  0.00  0.00    +0.000 A 
ATOM      3  C   UNL     1       0.498   9.840  21.306  0.00  0.00    +0.000 A 
ATOM      4  C   UNL     1       0.122  11.020  20.664  0.00  0.00    +0.000 A 
ATOM      5  C   UNL     1       0.351  11.208  19.296  0.00  0.00    +0.000 A 
ATOM      6  C   UNL     1       0.946  10.157  18.578  0.00  0.00    +0.000 A 
ATOM      7  C   UNL     1      -0.059  12.470  18.574  0.00  0.00    +0.000 C 
ATOM      8  N   UNL     1       0.535  13.680  19.146  0.00  0.00    +0.000 N 
ATOM      9  C   UNL     1       1.780  14.100  18.631  0.00  0.00    +0.000 C 
ATOM     10  O   UNL     1       2.335  13.427  17.758  0.00  0.00    +0.000 OA
ATOM     11  C   UNL     1      -0.058  14.114  20.417  0.00  0.00    +0.000 C 
ATOM     12  C   UNL     1       0.226  13.146  21.563  0.00  0.00    +0.000 C 
ATOM     13  O   UNL     1      -0.539  11.944  21.427  0.00  0.00    +0.000 OA
ENDROOT
BRANCH   9  14
ATOM     14  C   UNL     1       2.413  15.311  19.132  0.00  0.00    +0.000 A 
ATOM     15  S   UNL     1       3.625  15.300  20.355  0.00  0.00    +0.000 S 
ATOM     16  C   UNL     1       3.762  17.004  20.240  0.00  0.00    +0.000 A 
ATOM     17  C   UNL     1       4.827  17.734  20.979  0.00  0.00    +0.000 C 
ATOM     18  N   UNL     1       2.855  17.586  19.490  0.00  0.00    +0.000 NA
ATOM     19  C   UNL     1       2.033  16.628  18.907  0.00  0.00    +0.000 A 
ATOM     20  C   UNL     1       0.868  17.111  18.113  0.00  0.00    +0.000 C 
ENDBRANCH   9  14
BRANCH   1  21
ATOM     21  C   UNL     1       1.993   7.859  18.414  0.00  0.00    +0.000 C 
BRANCH  21  27
ATOM     22  C   UNL     1       4.400   3.736  17.011  0.00  0.00    +0.000 C 
ATOM     23  O   UNL     1       3.928   2.616  17.160  0.00  0.00    +0.000 OA
ATOM     24  N   UNL     1       3.735   4.901  17.323  0.00  0.00    +0.000 N 
ATOM     25  C   UNL     1       2.411   4.828  17.936  0.00  0.00    +0.000 C 
ATOM     26  C   UNL     1       2.381   5.583  19.279  0.00  0.00    +0.000 C 
ATOM     27  N   UNL     1       2.874   6.980  19.208  0.00  0.00    +0.000 NA
ATOM     28  C   UNL     1       4.240   6.959  18.626  0.00  0.00    +0.000 C 
ATOM     29  C   UNL     1       4.346   6.233  17.267  0.00  0.00    +0.000 C 
BRANCH  22  30
ATOM     30  O   UNL     1       5.669   3.970  16.587  0.00  0.00    +0.000 OA
BRANCH  30  32
ATOM     31  C   UNL     1       6.938   4.800  14.749  0.00  0.00    +0.000 C 
ATOM     32  C   UNL     1       5.881   3.800  15.182  0.00  0.00    +0.000 C 
ENDBRANCH  30  32
ENDBRANCH  22  30
ENDBRANCH  21  27
ENDBRANCH   1  21
TORSDOF 5
ENDMDL
MODEL 6
REMARK VINA RESULT:      -6.7      2.806      3.405
REMARK  Name = 
REMARK  8 active torsions:
REMARK  status: ('A' for Active; 'I' for Inactive)
REMARK    1  A    between atoms: C_1  and  C_2
REMARK    2  A    between atoms: C_2  and  O_3
REMARK    3  A    between atoms: O_3  and  C_4
REMARK    4  A    between atoms: N_9  and  C_10
REMARK    5  A    between atoms: C_10  and  C_11
REMARK    6  A    between atoms: C_19  and  C_21
REMARK    7  A    between atoms: C_23  and  C_24
REMARK    8  A    between atoms: C_26  and  C_27
REMARK                            x       y       z     vdW  Elec       q    Type
REMARK                         _______ _______ _______ _____ _____    ______ ____
ROOT
ATOM      1  C   UNL     1       1.518   8.571  19.673  0.00  0.00    +0.000 A 
ATOM      2  C   UNL     1       1.323   8.456  21.054  0.00  0.00    +0.000 A 
ATOM      3  C   UNL     1       0.538   9.387  21.729  0.00  0.00    +0.000 A 
ATOM      4  C   UNL     1      -0.024  10.460  21.036  0.00  0.00    +0.000 A 
ATOM      5  C   UNL     1       0.176  10.622  19.660  0.00  0.00    +0.000 A 
ATOM      6  C   UNL     1       0.939   9.653  18.987  0.00  0.00    +0.000 A 
ATOM      7  C   UNL     1      -0.432  11.767  18.885  0.00  0.00    +0.000 C 
ATOM      8  N   UNL     1      -0.047  13.082  19.401  0.00  0.00    +0.000 N 
ATOM      9  C   UNL     1       1.114  13.677  18.864  0.00  0.00    +0.000 C 
ATOM     10  O   UNL     1       1.776  13.068  18.020  0.00  0.00    +0.000 OA
ATOM     11  C   UNL     1      -0.709  13.468  20.653  0.00  0.00    +0.000 C 
ATOM     12  C   UNL     1      -0.274  12.611  21.840  0.00  0.00    +0.000 C 
ATOM     13  O   UNL     1      -0.832  11.296  21.759  0.00  0.00    +0.000 OA
ENDROOT
BRANCH   9  14
ATOM     14  C   UNL     1       1.537  14.997  19.309  0.00  0.00    +0.000 A 
ATOM     15  S   UNL     1       2.728  15.240  20.529  0.00  0.00    +0.000 S 
ATOM     16  C   UNL     1       2.585  16.936  20.338  0.00  0.00    +0.000 A 
ATOM     17  C   UNL     1       3.512  17.863  21.041  0.00  0.00    +0.000 C 
ATOM     18  N   UNL     1       1.598  17.327  19.565  0.00  0.00    +0.000 NA
ATOM     19  C   UNL     1       0.947  16.223  19.027  0.00  0.00    +0.000 A 
ATOM     20  C   UNL     1      -0.277  16.473  18.215  0.00  0.00    +0.000 C 
ENDBRANCH   9  14
BRANCH   1  21
ATOM     21  C   UNL     1       2.350   7.553  18.922  0.00  0.00    +0.000 C 
BRANCH  21  27
ATOM     22  C   UNL     1       2.052   2.607  18.460  0.00  0.00    +0.000 C 
ATOM     23  O   UNL     1       1.196   1.944  19.035  0.00  0.00    +0.000 OA
ATOM     24  N   UNL     1       2.122   3.982  18.510  0.00  0.00    +0.000 N 
ATOM     25  C   UNL     1       1.176   4.718  19.344  0.00  0.00    +0.000 C 
ATOM     26  C   UNL     1       1.913   5.603  20.367  0.00  0.00    +0.000 C 
ATOM     27  N   UNL     1       2.936   6.501  19.776  0.00  0.00    +0.000 NA
ATOM     28  C   UNL     1       3.884   5.670  18.994  0.00  0.00    +0.000 C 
ATOM     29  C   UNL     1       3.218   4.766  17.932  0.00  0.00    +0.000 C 
BRANCH  22  30
ATOM     30  O   UNL     1       3.084   2.067  17.763  0.00  0.00    +0.000 OA
BRANCH  30  32
ATOM     31  C   UNL     1       4.494   1.911  19.678  0.00  0.00    +0.000 C 
ATOM     32  C   UNL     1       3.903   1.154  18.501  0.00  0.00    +0.000 C 
ENDBRANCH  30  32
ENDBRANCH  22  30
ENDBRANCH  21  27
ENDBRANCH   1  21
TORSDOF 5
ENDMDL
MODEL 7
REMARK VINA RESULT:      -6.6      2.877      3.568
REMARK  Name = 
REMARK  8 active torsions:
REMARK  status: ('A' for Active; 'I' for Inactive)
REMARK    1  A    between atoms: C_1  and  C_2
REMARK    2  A    between atoms: C_2  and  O_3
REMARK    3  A    between atoms: O_3  and  C_4
REMARK    4  A    between atoms: N_9  and  C_10
REMARK    5  A    between atoms: C_10  and  C_11
REMARK    6  A    between atoms: C_19  and  C_21
REMARK    7  A    between atoms: C_23  and  C_24
REMARK    8  A    between atoms: C_26  and  C_27
REMARK                            x       y       z     vdW  Elec       q    Type
REMARK                         _______ _______ _______ _____ _____    ______ ____
ROOT
ATOM      1  C   UNL     1       1.499   8.358  19.685  0.00  0.00    +0.000 A 
ATOM      2  C   UNL     1       1.217   8.210  21.048  0.00  0.00    +0.000 A 
ATOM      3  C   UNL     1       0.395   9.127  21.696  0.00  0.00    +0.000 A 
ATOM      4  C   UNL     1      -0.119  10.220  20.997  0.00  0.00    +0.000 A 
ATOM      5  C   UNL     1       0.167  10.416  19.641  0.00  0.00    +0.000 A 
ATOM      6  C   UNL     1       0.967   9.460  18.993  0.00  0.00    +0.000 A 
ATOM      7  C   UNL     1      -0.389  11.582  18.859  0.00  0.00    +0.000 C 
ATOM      8  N   UNL     1      -0.032  12.883  19.430  0.00  0.00    +0.000 N 
ATOM      9  C   UNL     1       1.162  13.485  18.982  0.00  0.00    +0.000 C 
ATOM     10  O   UNL     1       1.873  12.893  18.166  0.00  0.00    +0.000 OA
ATOM     11  C   UNL     1      -0.769  13.240  20.649  0.00  0.00    +0.000 C 
ATOM     12  C   UNL     1      -0.412  12.352  21.839  0.00  0.00    +0.000 C 
ATOM     13  O   UNL     1      -0.967  11.042  21.690  0.00  0.00    +0.000 OA
ENDROOT
BRANCH   9  14
ATOM     14  C   UNL     1       1.562  14.792  19.485  0.00  0.00    +0.000 A 
ATOM     15  S   UNL     1       0.982  16.271  18.822  0.00  0.00    +0.000 S 
ATOM     16  C   UNL     1       1.884  17.150  19.983  0.00  0.00    +0.000 A 
ATOM     17  C   UNL     1       1.733  18.625  20.107  0.00  0.00    +0.000 C 
ATOM     18  N   UNL     1       2.711  16.431  20.705  0.00  0.00    +0.000 NA
ATOM     19  C   UNL     1       2.585  15.085  20.377  0.00  0.00    +0.000 A 
ATOM     20  C   UNL     1       3.533  14.129  21.016  0.00  0.00    +0.000 C 
ENDBRANCH   9  14
BRANCH   1  21
ATOM     21  C   UNL     1       2.371   7.355  18.962  0.00  0.00    +0.000 C 
BRANCH  21  27
ATOM     22  C   UNL     1       2.170   2.407  18.471  0.00  0.00    +0.000 C 
ATOM     23  O   UNL     1       1.305   1.728  19.010  0.00  0.00    +0.000 OA
ATOM     24  N   UNL     1       2.217   3.783  18.528  0.00  0.00    +0.000 N 
ATOM     25  C   UNL     1       1.228   4.500  19.329  0.00  0.00    +0.000 C 
ATOM     26  C   UNL     1       1.912   5.393  20.382  0.00  0.00    +0.000 C 
ATOM     27  N   UNL     1       2.942   6.309  19.834  0.00  0.00    +0.000 NA
ATOM     28  C   UNL     1       3.932   5.497  19.084  0.00  0.00    +0.000 C 
ATOM     29  C   UNL     1       3.321   4.587  17.995  0.00  0.00    +0.000 C 
BRANCH  22  30
ATOM     30  O   UNL     1       3.237   1.887  17.811  0.00  0.00    +0.000 OA
BRANCH  30  32
ATOM     31  C   UNL     1       4.574   1.854  19.783  0.00  0.00    +0.000 C 
ATOM     32  C   UNL     1       4.083   1.042  18.597  0.00  0.00    +0.000 C 
ENDBRANCH  30  32
ENDBRANCH  22  30
ENDBRANCH  21  27
ENDBRANCH   1  21
TORSDOF 5
ENDMDL
MODEL 8
REMARK VINA RESULT:      -6.6      2.585      3.479
REMARK  Name = 
REMARK  8 active torsions:
REMARK  status: ('A' for Active; 'I' for Inactive)
REMARK    1  A    between atoms: C_1  and  C_2
REMARK    2  A    between atoms: C_2  and  O_3
REMARK    3  A    between atoms: O_3  and  C_4
REMARK    4  A    between atoms: N_9  and  C_10
REMARK    5  A    between atoms: C_10  and  C_11
REMARK    6  A    between atoms: C_19  and  C_21
REMARK    7  A    between atoms: C_23  and  C_24
REMARK    8  A    between atoms: C_26  and  C_27
REMARK                            x       y       z     vdW  Elec       q    Type
REMARK                         _______ _______ _______ _____ _____    ______ ____
ROOT
ATOM      1  C   UNL     1       1.299   8.536  21.086  0.00  0.00    +0.000 A 
ATOM      2  C   UNL     1       1.025   8.645  22.454  0.00  0.00    +0.000 A 
ATOM      3  C   UNL     1       0.094   9.574  22.909  0.00  0.00    +0.000 A 
ATOM      4  C   UNL     1      -0.540  10.429  22.006  0.00  0.00    +0.000 A 
ATOM      5  C   UNL     1      -0.266  10.368  20.635  0.00  0.00    +0.000 A 
ATOM      6  C   UNL     1       0.647   9.399  20.187  0.00  0.00    +0.000 A 
ATOM      7  C   UNL     1      -0.949  11.271  19.635  0.00  0.00    +0.000 C 
ATOM      8  N   UNL     1      -0.754  12.695  19.916  0.00  0.00    +0.000 N 
ATOM      9  C   UNL     1       0.365  13.327  19.333  0.00  0.00    +0.000 C 
ATOM     10  O   UNL     1       1.148  12.665  18.647  0.00  0.00    +0.000 OA
ATOM     11  C   UNL     1      -1.539  13.211  21.045  0.00  0.00    +0.000 C 
ATOM     12  C   UNL     1      -1.090  12.640  22.388  0.00  0.00    +0.000 C 
ATOM     13  O   UNL     1      -1.485  11.271  22.525  0.00  0.00    +0.000 OA
ENDROOT
BRANCH   9  14
ATOM     14  C   UNL     1       0.602  14.747  19.546  0.00  0.00    +0.000 A 
ATOM     15  S   UNL     1      -0.178  15.978  18.628  0.00  0.00    +0.000 S 
ATOM     16  C   UNL     1       0.626  17.179  19.546  0.00  0.00    +0.000 A 
ATOM     17  C   UNL     1       0.288  18.619  19.381  0.00  0.00    +0.000 C 
ATOM     18  N   UNL     1       1.556  16.729  20.358  0.00  0.00    +0.000 NA
ATOM     19  C   UNL     1       1.598  15.340  20.311  0.00  0.00    +0.000 A 
ATOM     20  C   UNL     1       2.675  14.658  21.082  0.00  0.00    +0.000 C 
ENDBRANCH   9  14
BRANCH   1  21
ATOM     21  C   UNL     1       2.291   7.514  20.575  0.00  0.00    +0.000 C 
BRANCH  21  27
ATOM     22  C   UNL     1       4.483   3.642  18.347  0.00  0.00    +0.000 C 
ATOM     23  O   UNL     1       5.036   3.737  17.257  0.00  0.00    +0.000 OA
ATOM     24  N   UNL     1       3.927   4.705  19.024  0.00  0.00    +0.000 N 
ATOM     25  C   UNL     1       3.919   6.026  18.401  0.00  0.00    +0.000 C 
ATOM     26  C   UNL     1       2.486   6.582  18.301  0.00  0.00    +0.000 C 
ATOM     27  N   UNL     1       1.735   6.576  19.581  0.00  0.00    +0.000 NA
ATOM     28  C   UNL     1       1.745   5.191  20.116  0.00  0.00    +0.000 C 
ATOM     29  C   UNL     1       3.153   4.572  20.262  0.00  0.00    +0.000 C 
BRANCH  22  30
ATOM     30  O   UNL     1       4.281   2.464  18.991  0.00  0.00    +0.000 OA
BRANCH  30  32
ATOM     31  C   UNL     1       2.209   2.103  17.871  0.00  0.00    +0.000 C 
ATOM     32  C   UNL     1       3.544   1.486  18.250  0.00  0.00    +0.000 C 
ENDBRANCH  30  32
ENDBRANCH  22  30
ENDBRANCH  21  27
ENDBRANCH   1  21
TORSDOF 5
ENDMDL
MODEL 9
REMARK VINA RESULT:      -6.6      3.546      5.056
REMARK  Name = 
REMARK  8 active torsions:
REMARK  status: ('A' for Active; 'I' for Inactive)
REMARK    1  A    between atoms: C_1  and  C_2
REMARK    2  A    between atoms: C_2  and  O_3
REMARK    3  A    between atoms: O_3  and  C_4
REMARK    4  A    between atoms: N_9  and  C_10
REMARK    5  A    between atoms: C_10  and  C_11
REMARK    6  A    between atoms: C_19  and  C_21
REMARK    7  A    between atoms: C_23  and  C_24
REMARK    8  A    between atoms: C_26  and  C_27
REMARK                            x       y       z     vdW  Elec       q    Type
REMARK                         _______ _______ _______ _____ _____    ______ ____
ROOT
ATOM      1  C   UNL     1       1.296   9.107  19.426  0.00  0.00    +0.000 A 
ATOM      2  C   UNL     1       0.589   9.268  18.229  0.00  0.00    +0.000 A 
ATOM      3  C   UNL     1       0.012  10.496  17.918  0.00  0.00    +0.000 A 
ATOM      4  C   UNL     1       0.104  11.559  18.817  0.00  0.00    +0.000 A 
ATOM      5  C   UNL     1       0.777  11.424  20.036  0.00  0.00    +0.000 A 
ATOM      6  C   UNL     1       1.386  10.189  20.319  0.00  0.00    +0.000 A 
ATOM      7  C   UNL     1       0.903  12.563  21.020  0.00  0.00    +0.000 C 
ATOM      8  N   UNL     1      -0.390  13.099  21.451  0.00  0.00    +0.000 N 
ATOM      9  C   UNL     1      -0.987  12.522  22.592  0.00  0.00    +0.000 C 
ATOM     10  O   UNL     1      -0.429  11.579  23.158  0.00  0.00    +0.000 OA
ATOM     11  C   UNL     1      -1.074  13.928  20.450  0.00  0.00    +0.000 C 
ATOM     12  C   UNL     1      -1.542  13.125  19.237  0.00  0.00    +0.000 C 
ATOM     13  O   UNL     1      -0.436  12.749  18.410  0.00  0.00    +0.000 OA
ENDROOT
BRANCH   9  14
ATOM     14  C   UNL     1      -2.257  13.027  23.092  0.00  0.00    +0.000 A 
ATOM     15  S   UNL     1      -3.778  12.558  22.436  0.00  0.00    +0.000 S 
ATOM     16  C   UNL     1      -4.582  13.537  23.588  0.00  0.00    +0.000 A 
ATOM     17  C   UNL     1      -6.065  13.502  23.716  0.00  0.00    +0.000 C 
ATOM     18  N   UNL     1      -3.800  14.313  24.302  0.00  0.00    +0.000 NA
ATOM     19  C   UNL     1      -2.469  14.079  23.974  0.00  0.00    +0.000 A 
ATOM     20  C   UNL     1      -1.440  14.956  24.602  0.00  0.00    +0.000 C 
ENDBRANCH   9  14
BRANCH   1  21
ATOM     21  C   UNL     1       1.948   7.784  19.767  0.00  0.00    +0.000 C 
BRANCH  21  27
ATOM     22  C   UNL     1       4.511   3.529  19.472  0.00  0.00    +0.000 C 
ATOM     23  O   UNL     1       5.671   3.486  19.080  0.00  0.00    +0.000 OA
ATOM     24  N   UNL     1       3.794   4.695  19.632  0.00  0.00    +0.000 N 
ATOM     25  C   UNL     1       4.403   5.967  19.255  0.00  0.00    +0.000 C 
ATOM     26  C   UNL     1       3.537   6.709  18.219  0.00  0.00    +0.000 C 
ATOM     27  N   UNL     1       2.117   6.878  18.615  0.00  0.00    +0.000 NA
ATOM     28  C   UNL     1       1.562   5.537  18.928  0.00  0.00    +0.000 C 
ATOM     29  C   UNL     1       2.370   4.739  19.976  0.00  0.00    +0.000 C 
BRANCH  22  30
ATOM     30  O   UNL     1       3.759   2.428  19.728  0.00  0.00    +0.000 OA
BRANCH  30  32
ATOM     31  C   UNL     1       2.607   2.047  17.677  0.00  0.00    +0.000 C 
ATOM     32  C   UNL     1       3.648   1.504  18.641  0.00  0.00    +0.000 C 
ENDBRANCH  30  32
ENDBRANCH  22  30
ENDBRANCH  21  27
ENDBRANCH   1  21
TORSDOF 5
ENDMDL
