MODEL 1
REMARK VINA RESULT:      -6.9      0.000      0.000
REMARK  Name = 
REMARK  10 active torsions:
REMARK  status: ('A' for Active; 'I' for Inactive)
REMARK    1  A    between atoms: C_1  and  C_2
REMARK    2  A    between atoms: C_2  and  C_3
REMARK    3  A    between atoms: C_6  and  C_7
REMARK    4  A    between atoms: N_12  and  C_13
REMARK    5  A    between atoms: C_13  and  C_14
REMARK    6  A    between atoms: C_14  and  C_15
REMARK    7  A    between atoms: N_17  and  C_18
REMARK    8  A    between atoms: C_18  and  C_19
REMARK    9  A    between atoms: C_19  and  C_20
REMARK   10  A    between atoms: C_20  and  N_21
REMARK                            x       y       z     vdW  Elec       q    Type
REMARK                         _______ _______ _______ _____ _____    ______ ____
ROOT
ATOM      1  C   UNL     1       3.288   5.693  19.681  0.00  0.00    +0.000 C 
ATOM      2  C   UNL     1       2.563   6.820  19.684  0.00  0.00    +0.000 C 
ATOM      3  S   UNL     1       1.634   7.325  21.044  0.00  0.00    +0.000 S 
ATOM      4  C   UNL     1       1.044   8.772  20.231  0.00  0.00    +0.000 C 
ATOM      5  S   UNL     1       0.021   9.844  20.995  0.00  0.00    +0.000 S 
ATOM      6  N   UNL     1       1.552   8.831  18.950  0.00  0.00    +0.000 N 
ATOM      7  C   UNL     1       2.417   7.811  18.580  0.00  0.00    +0.000 C 
ATOM      8  O   UNL     1       2.989   7.736  17.503  0.00  0.00    +0.000 OA
ENDROOT
BRANCH   1  12
ATOM      9  C   UNL     1       5.605   4.249  16.392  0.00  0.00    +0.000 A 
ATOM     10  C   UNL     1       4.257   3.892  16.521  0.00  0.00    +0.000 A 
ATOM     11  C   UNL     1       3.497   4.363  17.595  0.00  0.00    +0.000 A 
ATOM     12  C   UNL     1       4.078   5.199  18.552  0.00  0.00    +0.000 A 
ATOM     13  C   UNL     1       5.421   5.564  18.425  0.00  0.00    +0.000 A 
ATOM     14  C   UNL     1       6.178   5.095  17.349  0.00  0.00    +0.000 A 
BRANCH   9  16
ATOM     15  C   UNL     1       5.810   4.141  13.895  0.00  0.00    +0.000 C 
ATOM     16  C   UNL     1       6.424   3.747  15.229  0.00  0.00    +0.000 C 
ENDBRANCH   9  16
ENDBRANCH   1  12
BRANCH   6  17
ATOM     17  C   UNL     1       1.340   9.937  18.003  0.00  0.00    +0.000 C 
BRANCH  17  18
ATOM     18  C   UNL     1       2.353  11.069  18.161  0.00  0.00    +0.000 C 
BRANCH  18  19
ATOM     19  C   UNL     1       1.724  12.305  18.755  0.00  0.00    +0.000 C 
ATOM     20  O   UNL     1       2.270  13.004  19.600  0.00  0.00    +0.000 OA
ATOM     21  N   UNL     1       0.463  12.556  18.244  0.00  0.00    +0.000 N 
ATOM     22  H   UNL     1       0.110  11.974  17.496  0.00  0.00    +0.000 HD
BRANCH  21  23
ATOM     23  C   UNL     1      -0.332  13.690  18.668  0.00  0.00    +0.000 C 
BRANCH  23  24
ATOM     24  C   UNL     1      -1.567  13.259  19.471  0.00  0.00    +0.000 C 
BRANCH  24  25
ATOM     25  C   UNL     1      -1.932  11.783  19.232  0.00  0.00    +0.000 C 
BRANCH  25  26
ATOM     26  N   UNL     1      -2.667  11.642  17.986  0.00  0.00    +0.000 NA
ATOM     27  C   UNL     1      -2.177  10.576  17.094  0.00  0.00    +0.000 C 
ATOM     28  C   UNL     1      -2.801  10.788  15.709  0.00  0.00    +0.000 C 
ATOM     29  O   UNL     1      -4.236  10.740  15.776  0.00  0.00    +0.000 OA
ATOM     30  C   UNL     1      -4.732  11.715  16.710  0.00  0.00    +0.000 C 
ATOM     31  C   UNL     1      -4.123  11.515  18.112  0.00  0.00    +0.000 C 
ENDBRANCH  25  26
ENDBRANCH  24  25
ENDBRANCH  23  24
ENDBRANCH  21  23
ENDBRANCH  18  19
ENDBRANCH  17  18
ENDBRANCH   6  17
TORSDOF 9
ENDMDL
MODEL 2
REMARK VINA RESULT:      -6.5      2.953      4.856
REMARK  Name = 
REMARK  10 active torsions:
REMARK  status: ('A' for Active; 'I' for Inactive)
REMARK    1  A    between atoms: C_1  and  C_2
REMARK    2  A    between atoms: C_2  and  C_3
REMARK    3  A    between atoms: C_6  and  C_7
REMARK    4  A    between atoms: N_12  and  C_13
REMARK    5  A    between atoms: C_13  and  C_14
REMARK    6  A    between atoms: C_14  and  C_15
REMARK    7  A    between atoms: N_17  and  C_18
REMARK    8  A    between atoms: C_18  and  C_19
REMARK    9  A    between atoms: C_19  and  C_20
REMARK   10  A    between atoms: C_20  and  N_21
REMARK                            x       y       z     vdW  Elec       q    Type
REMARK                         _______ _______ _______ _____ _____    ______ ____
ROOT
ATOM      1  C   UNL     1       5.781   4.493  17.457  0.00  0.00    +0.000 C 
ATOM      2  C   UNL     1       4.700   4.152  18.172  0.00  0.00    +0.000 C 
ATOM      3  S   UNL     1       3.856   2.669  17.930  0.00  0.00    +0.000 S 
ATOM      4  C   UNL     1       2.664   3.028  19.177  0.00  0.00    +0.000 C 
ATOM      5  S   UNL     1       1.438   1.958  19.542  0.00  0.00    +0.000 S 
ATOM      6  N   UNL     1       2.924   4.262  19.734  0.00  0.00    +0.000 N 
ATOM      7  C   UNL     1       4.041   4.933  19.257  0.00  0.00    +0.000 C 
ATOM      8  O   UNL     1       4.440   6.011  19.672  0.00  0.00    +0.000 OA
ENDROOT
BRANCH   1  12
ATOM      9  C   UNL     1       7.946   8.156  17.870  0.00  0.00    +0.000 A 
ATOM     10  C   UNL     1       8.294   7.036  18.636  0.00  0.00    +0.000 A 
ATOM     11  C   UNL     1       7.589   5.837  18.502  0.00  0.00    +0.000 A 
ATOM     12  C   UNL     1       6.526   5.745  17.599  0.00  0.00    +0.000 A 
ATOM     13  C   UNL     1       6.178   6.857  16.827  0.00  0.00    +0.000 A 
ATOM     14  C   UNL     1       6.887   8.054  16.960  0.00  0.00    +0.000 A 
BRANCH   9  16
ATOM     15  C   UNL     1       9.031   9.762  19.462  0.00  0.00    +0.000 C 
ATOM     16  C   UNL     1       8.712   9.448  18.009  0.00  0.00    +0.000 C 
ENDBRANCH   9  16
ENDBRANCH   1  12
BRANCH   6  17
ATOM     17  C   UNL     1       2.185   4.859  20.858  0.00  0.00    +0.000 C 
BRANCH  17  18
ATOM     18  C   UNL     1       1.065   5.797  20.414  0.00  0.00    +0.000 C 
BRANCH  18  19
ATOM     19  C   UNL     1       1.464   7.246  20.542  0.00  0.00    +0.000 C 
ATOM     20  O   UNL     1       2.019   7.879  19.652  0.00  0.00    +0.000 OA
ATOM     21  N   UNL     1       1.138   7.778  21.778  0.00  0.00    +0.000 N 
ATOM     22  H   UNL     1       0.616   7.214  22.435  0.00  0.00    +0.000 HD
BRANCH  21  23
ATOM     23  C   UNL     1       1.426   9.154  22.129  0.00  0.00    +0.000 C 
BRANCH  23  24
ATOM     24  C   UNL     1       0.257  10.090  21.794  0.00  0.00    +0.000 C 
BRANCH  24  25
ATOM     25  C   UNL     1       0.500  10.888  20.501  0.00  0.00    +0.000 C 
BRANCH  25  26
ATOM     26  N   UNL     1      -0.690  10.867  19.666  0.00  0.00    +0.000 NA
ATOM     27  C   UNL     1      -1.412  12.148  19.583  0.00  0.00    +0.000 C 
ATOM     28  C   UNL     1      -2.798  11.877  18.984  0.00  0.00    +0.000 C 
ATOM     29  O   UNL     1      -2.690  11.298  17.673  0.00  0.00    +0.000 OA
ATOM     30  C   UNL     1      -1.912  10.089  17.717  0.00  0.00    +0.000 C 
ATOM     31  C   UNL     1      -0.511  10.340  18.309  0.00  0.00    +0.000 C 
ENDBRANCH  25  26
ENDBRANCH  24  25
ENDBRANCH  23  24
ENDBRANCH  21  23
ENDBRANCH  18  19
ENDBRANCH  17  18
ENDBRANCH   6  17
TORSDOF 9
ENDMDL
MODEL 3
REMARK VINA RESULT:      -6.3      2.335      4.376
REMARK  Name = 
REMARK  10 active torsions:
REMARK  status: ('A' for Active; 'I' for Inactive)
REMARK    1  A    between atoms: C_1  and  C_2
REMARK    2  A    between atoms: C_2  and  C_3
REMARK    3  A    between atoms: C_6  and  C_7
REMARK    4  A    between atoms: N_12  and  C_13
REMARK    5  A    between atoms: C_13  and  C_14
REMARK    6  A    between atoms: C_14  and  C_15
REMARK    7  A    between atoms: N_17  and  C_18
REMARK    8  A    between atoms: C_18  and  C_19
REMARK    9  A    between atoms: C_19  and  C_20
REMARK   10  A    between atoms: C_20  and  N_21
REMARK                            x       y       z     vdW  Elec       q    Type
REMARK                         _______ _______ _______ _____ _____    ______ ____
ROOT
ATOM      1  C   UNL     1       4.618   4.596  18.098  0.00  0.00    +0.000 C 
ATOM      2  C   UNL     1       3.826   5.571  18.567  0.00  0.00    +0.000 C 
ATOM      3  S   UNL     1       2.968   5.437  20.055  0.00  0.00    +0.000 S 
ATOM      4  C   UNL     1       2.231   7.029  19.889  0.00  0.00    +0.000 C 
ATOM      5  S   UNL     1       1.201   7.636  21.051  0.00  0.00    +0.000 S 
ATOM      6  N   UNL     1       2.639   7.614  18.710  0.00  0.00    +0.000 N 
ATOM      7  C   UNL     1       3.538   6.891  17.938  0.00  0.00    +0.000 C 
ATOM      8  O   UNL     1       4.034   7.281  16.892  0.00  0.00    +0.000 OA
ENDROOT
BRANCH   1  12
ATOM      9  C   UNL     1       6.775   4.719  14.410  0.00  0.00    +0.000 A 
ATOM     10  C   UNL     1       5.452   4.259  14.443  0.00  0.00    +0.000 A 
ATOM     11  C   UNL     1       4.745   4.219  15.648  0.00  0.00    +0.000 A 
ATOM     12  C   UNL     1       5.352   4.640  16.833  0.00  0.00    +0.000 A 
ATOM     13  C   UNL     1       6.670   5.107  16.805  0.00  0.00    +0.000 A 
ATOM     14  C   UNL     1       7.375   5.149  15.600  0.00  0.00    +0.000 A 
BRANCH   9  16
ATOM     15  C   UNL     1       6.893   3.898  12.043  0.00  0.00    +0.000 C 
ATOM     16  C   UNL     1       7.537   4.771  13.110  0.00  0.00    +0.000 C 
ENDBRANCH   9  16
ENDBRANCH   1  12
BRANCH   6  17
ATOM     17  C   UNL     1       2.290   8.976  18.272  0.00  0.00    +0.000 C 
BRANCH  17  18
ATOM     18  C   UNL     1       0.924   9.060  17.596  0.00  0.00    +0.000 C 
BRANCH  18  19
ATOM     19  C   UNL     1       0.043  10.103  18.239  0.00  0.00    +0.000 C 
ATOM     20  O   UNL     1      -1.127  10.288  17.928  0.00  0.00    +0.000 OA
ATOM     21  N   UNL     1       0.707  10.829  19.213  0.00  0.00    +0.000 N 
ATOM     22  H   UNL     1       1.652  10.569  19.463  0.00  0.00    +0.000 HD
BRANCH  21  23
ATOM     23  C   UNL     1       0.062  11.886  19.965  0.00  0.00    +0.000 C 
BRANCH  23  24
ATOM     24  C   UNL     1       0.300  13.266  19.338  0.00  0.00    +0.000 C 
BRANCH  24  25
ATOM     25  C   UNL     1       1.716  13.404  18.750  0.00  0.00    +0.000 C 
BRANCH  25  26
ATOM     26  N   UNL     1       2.085  14.806  18.652  0.00  0.00    +0.000 NA
ATOM     27  C   UNL     1       2.312  15.479  19.943  0.00  0.00    +0.000 C 
ATOM     28  C   UNL     1       2.333  16.993  19.694  0.00  0.00    +0.000 C 
ATOM     29  O   UNL     1       3.377  17.351  18.773  0.00  0.00    +0.000 OA
ATOM     30  C   UNL     1       3.225  16.636  17.534  0.00  0.00    +0.000 C 
ATOM     31  C   UNL     1       3.209  15.111  17.760  0.00  0.00    +0.000 C 
ENDBRANCH  25  26
ENDBRANCH  24  25
ENDBRANCH  23  24
ENDBRANCH  21  23
ENDBRANCH  18  19
ENDBRANCH  17  18
ENDBRANCH   6  17
TORSDOF 9
ENDMDL
MODEL 4
REMARK VINA RESULT:      -6.2      3.641      5.288
REMARK  Name = 
REMARK  10 active torsions:
REMARK  status: ('A' for Active; 'I' for Inactive)
REMARK    1  A    between atoms: C_1  and  C_2
REMARK    2  A    between atoms: C_2  and  C_3
REMARK    3  A    between atoms: C_6  and  C_7
REMARK    4  A    between atoms: N_12  and  C_13
REMARK    5  A    between atoms: C_13  and  C_14
REMARK    6  A    between atoms: C_14  and  C_15
REMARK    7  A    between atoms: N_17  and  C_18
REMARK    8  A    between atoms: C_18  and  C_19
REMARK    9  A    between atoms: C_19  and  C_20
REMARK   10  A    between atoms: C_20  and  N_21
REMARK                            x       y       z     vdW  Elec       q    Type
REMARK                         _______ _______ _______ _____ _____    ______ ____
ROOT
ATOM      1  C   UNL     1       5.749   4.518  17.410  0.00  0.00    +0.000 C 
ATOM      2  C   UNL     1       4.650   4.155  18.087  0.00  0.00    +0.000 C 
ATOM      3  S   UNL     1       3.707   2.778  17.658  0.00  0.00    +0.000 S 
ATOM      4  C   UNL     1       2.548   3.042  18.958  0.00  0.00    +0.000 C 
ATOM      5  S   UNL     1       1.255   2.016  19.192  0.00  0.00    +0.000 S 
ATOM      6  N   UNL     1       2.894   4.168  19.674  0.00  0.00    +0.000 N 
ATOM      7  C   UNL     1       4.052   4.822  19.278  0.00  0.00    +0.000 C 
ATOM      8  O   UNL     1       4.525   5.804  19.830  0.00  0.00    +0.000 OA
ENDROOT
BRANCH   1  12
ATOM      9  C   UNL     1       8.180   7.923  18.288  0.00  0.00    +0.000 A 
ATOM     10  C   UNL     1       7.180   7.998  17.311  0.00  0.00    +0.000 A 
ATOM     11  C   UNL     1       6.383   6.887  17.023  0.00  0.00    +0.000 A 
ATOM     12  C   UNL     1       6.577   5.686  17.711  0.00  0.00    +0.000 A 
ATOM     13  C   UNL     1       7.569   5.607  18.693  0.00  0.00    +0.000 A 
ATOM     14  C   UNL     1       8.363   6.720  18.982  0.00  0.00    +0.000 A 
BRANCH   9  16
ATOM     15  C   UNL     1       8.438  10.406  18.046  0.00  0.00    +0.000 C 
ATOM     16  C   UNL     1       9.035   9.123  18.606  0.00  0.00    +0.000 C 
ENDBRANCH   9  16
ENDBRANCH   1  12
BRANCH   6  17
ATOM     17  C   UNL     1       2.203   4.654  20.880  0.00  0.00    +0.000 C 
BRANCH  17  18
ATOM     18  C   UNL     1       1.036   5.589  20.571  0.00  0.00    +0.000 C 
BRANCH  18  19
ATOM     19  C   UNL     1       1.464   7.036  20.569  0.00  0.00    +0.000 C 
ATOM     20  O   UNL     1       2.085   7.559  19.653  0.00  0.00    +0.000 OA
ATOM     21  N   UNL     1       1.079   7.704  21.719  0.00  0.00    +0.000 N 
ATOM     22  H   UNL     1       0.505   7.223  22.399  0.00  0.00    +0.000 HD
BRANCH  21  23
ATOM     23  C   UNL     1       1.381   9.103  21.939  0.00  0.00    +0.000 C 
BRANCH  23  24
ATOM     24  C   UNL     1       0.124   9.918  22.270  0.00  0.00    +0.000 C 
BRANCH  24  25
ATOM     25  C   UNL     1       0.163  11.328  21.654  0.00  0.00    +0.000 C 
BRANCH  25  26
ATOM     26  N   UNL     1      -1.094  12.018  21.896  0.00  0.00    +0.000 NA
ATOM     27  C   UNL     1      -1.980  12.120  20.724  0.00  0.00    +0.000 C 
ATOM     28  C   UNL     1      -3.065  13.160  21.036  0.00  0.00    +0.000 C 
ATOM     29  O   UNL     1      -3.831  12.776  22.190  0.00  0.00    +0.000 OA
ATOM     30  C   UNL     1      -2.972  12.584  23.327  0.00  0.00    +0.000 C 
ATOM     31  C   UNL     1      -1.878  11.536  23.038  0.00  0.00    +0.000 C 
ENDBRANCH  25  26
ENDBRANCH  24  25
ENDBRANCH  23  24
ENDBRANCH  21  23
ENDBRANCH  18  19
ENDBRANCH  17  18
ENDBRANCH   6  17
TORSDOF 9
ENDMDL
MODEL 5
REMARK VINA RESULT:      -6.2      2.256      3.494
REMARK  Name = 
REMARK  10 active torsions:
REMARK  status: ('A' for Active; 'I' for Inactive)
REMARK    1  A    between atoms: C_1  and  C_2
REMARK    2  A    between atoms: C_2  and  C_3
REMARK    3  A    between atoms: C_6  and  C_7
REMARK    4  A    between atoms: N_12  and  C_13
REMARK    5  A    between atoms: C_13  and  C_14
REMARK    6  A    between atoms: C_14  and  C_15
REMARK    7  A    between atoms: N_17  and  C_18
REMARK    8  A    between atoms: C_18  and  C_19
REMARK    9  A    between atoms: C_19  and  C_20
REMARK   10  A    between atoms: C_20  and  N_21
REMARK                            x       y       z     vdW  Elec       q    Type
REMARK                         _______ _______ _______ _____ _____    ______ ____
ROOT
ATOM      1  C   UNL     1       1.985   6.815  20.680  0.00  0.00    +0.000 C 
ATOM      2  C   UNL     1       1.464   8.048  20.611  0.00  0.00    +0.000 C 
ATOM      3  S   UNL     1       0.729   8.824  21.963  0.00  0.00    +0.000 S 
ATOM      4  C   UNL     1       0.341  10.276  21.045  0.00  0.00    +0.000 C 
ATOM      5  S   UNL     1      -0.431  11.573  21.755  0.00  0.00    +0.000 S 
ATOM      6  N   UNL     1       0.762  10.134  19.740  0.00  0.00    +0.000 N 
ATOM      7  C   UNL     1       1.414   8.950  19.426  0.00  0.00    +0.000 C 
ATOM      8  O   UNL     1       1.891   8.683  18.333  0.00  0.00    +0.000 OA
ENDROOT
BRANCH   1  12
ATOM      9  C   UNL     1       3.772   4.713  17.415  0.00  0.00    +0.000 A 
ATOM     10  C   UNL     1       4.538   5.577  18.207  0.00  0.00    +0.000 A 
ATOM     11  C   UNL     1       3.957   6.265  19.276  0.00  0.00    +0.000 A 
ATOM     12  C   UNL     1       2.600   6.094  19.565  0.00  0.00    +0.000 A 
ATOM     13  C   UNL     1       1.832   5.227  18.783  0.00  0.00    +0.000 A 
ATOM     14  C   UNL     1       2.416   4.538  17.717  0.00  0.00    +0.000 A 
BRANCH   9  16
ATOM     15  C   UNL     1       5.907   4.168  16.217  0.00  0.00    +0.000 C 
ATOM     16  C   UNL     1       4.401   3.965  16.267  0.00  0.00    +0.000 C 
ENDBRANCH   9  16
ENDBRANCH   1  12
BRANCH   6  17
ATOM     17  C   UNL     1       0.678  11.175  18.703  0.00  0.00    +0.000 C 
BRANCH  17  18
ATOM     18  C   UNL     1      -0.694  11.841  18.626  0.00  0.00    +0.000 C 
BRANCH  18  19
ATOM     19  C   UNL     1      -1.627  11.098  17.702  0.00  0.00    +0.000 C 
ATOM     20  O   UNL     1      -1.394   9.981  17.257  0.00  0.00    +0.000 OA
ATOM     21  N   UNL     1      -2.771  11.820  17.411  0.00  0.00    +0.000 N 
ATOM     22  H   UNL     1      -2.925  12.706  17.875  0.00  0.00    +0.000 HD
BRANCH  21  23
ATOM     23  C   UNL     1      -3.810  11.307  16.543  0.00  0.00    +0.000 C 
BRANCH  23  24
ATOM     24  C   UNL     1      -5.213  11.681  17.041  0.00  0.00    +0.000 C 
BRANCH  24  25
ATOM     25  C   UNL     1      -5.507  11.110  18.440  0.00  0.00    +0.000 C 
BRANCH  25  26
ATOM     26  N   UNL     1      -5.877  12.181  19.352  0.00  0.00    +0.000 NA
ATOM     27  C   UNL     1      -4.852  12.523  20.354  0.00  0.00    +0.000 C 
ATOM     28  C   UNL     1      -5.513  13.387  21.436  0.00  0.00    +0.000 C 
ATOM     29  O   UNL     1      -6.060  14.591  20.874  0.00  0.00    +0.000 OA
ATOM     30  C   UNL     1      -6.999  14.280  19.830  0.00  0.00    +0.000 C 
ATOM     31  C   UNL     1      -6.354  13.418  18.727  0.00  0.00    +0.000 C 
ENDBRANCH  25  26
ENDBRANCH  24  25
ENDBRANCH  23  24
ENDBRANCH  21  23
ENDBRANCH  18  19
ENDBRANCH  17  18
ENDBRANCH   6  17
TORSDOF 9
ENDMDL
MODEL 6
REMARK VINA RESULT:      -6.2      6.737     10.066
REMARK  Name = 
REMARK  10 active torsions:
REMARK  status: ('A' for Active; 'I' for Inactive)
REMARK    1  A    between atoms: C_1  and  C_2
REMARK    2  A    between atoms: C_2  and  C_3
REMARK    3  A    between atoms: C_6  and  C_7
REMARK    4  A    between atoms: N_12  and  C_13
REMARK    5  A    between atoms: C_13  and  C_14
REMARK    6  A    between atoms: C_14  and  C_15
REMARK    7  A    between atoms: N_17  and  C_18
REMARK    8  A    between atoms: C_18  and  C_19
REMARK    9  A    between atoms: C_19  and  C_20
REMARK   10  A    between atoms: C_20  and  N_21
REMARK                            x       y       z     vdW  Elec       q    Type
REMARK                         _______ _______ _______ _____ _____    ______ ____
ROOT
ATOM      1  C   UNL     1       8.802  13.954  21.969  0.00  0.00    +0.000 C 
ATOM      2  C   UNL     1       9.255  13.433  20.820  0.00  0.00    +0.000 C 
ATOM      3  S   UNL     1      10.071  14.374  19.630  0.00  0.00    +0.000 S 
ATOM      4  C   UNL     1      10.274  13.004  18.541  0.00  0.00    +0.000 C 
ATOM      5  S   UNL     1      11.050  13.167  17.074  0.00  0.00    +0.000 S 
ATOM      6  N   UNL     1       9.710  11.875  19.096  0.00  0.00    +0.000 N 
ATOM      7  C   UNL     1       9.153  12.019  20.359  0.00  0.00    +0.000 C 
ATOM      8  O   UNL     1       8.656  11.113  21.011  0.00  0.00    +0.000 OA
ENDROOT
BRANCH   1  12
ATOM      9  C   UNL     1       6.695  11.786  24.991  0.00  0.00    +0.000 A 
ATOM     10  C   UNL     1       8.086  11.931  25.062  0.00  0.00    +0.000 A 
ATOM     11  C   UNL     1       8.778  12.640  24.076  0.00  0.00    +0.000 A 
ATOM     12  C   UNL     1       8.084  13.214  23.007  0.00  0.00    +0.000 A 
ATOM     13  C   UNL     1       6.694  13.078  22.935  0.00  0.00    +0.000 A 
ATOM     14  C   UNL     1       6.005  12.371  23.923  0.00  0.00    +0.000 A 
BRANCH   9  16
ATOM     15  C   UNL     1       6.111  11.671  27.427  0.00  0.00    +0.000 C 
ATOM     16  C   UNL     1       5.948  11.028  26.059  0.00  0.00    +0.000 C 
ENDBRANCH   9  16
ENDBRANCH   1  12
BRANCH   6  17
ATOM     17  C   UNL     1       9.757  10.526  18.509  0.00  0.00    +0.000 C 
BRANCH  17  18
ATOM     18  C   UNL     1       8.423  10.081  17.915  0.00  0.00    +0.000 C 
BRANCH  18  19
ATOM     19  C   UNL     1       8.202   8.597  18.082  0.00  0.00    +0.000 C 
ATOM     20  O   UNL     1       8.712   7.932  18.975  0.00  0.00    +0.000 OA
ATOM     21  N   UNL     1       7.365   8.073  17.113  0.00  0.00    +0.000 N 
ATOM     22  H   UNL     1       6.925   8.699  16.451  0.00  0.00    +0.000 HD
BRANCH  21  23
ATOM     23  C   UNL     1       7.010   6.670  17.073  0.00  0.00    +0.000 C 
BRANCH  23  24
ATOM     24  C   UNL     1       5.659   6.437  16.384  0.00  0.00    +0.000 C 
BRANCH  24  25
ATOM     25  C   UNL     1       4.471   6.820  17.284  0.00  0.00    +0.000 C 
BRANCH  25  26
ATOM     26  N   UNL     1       3.940   5.640  17.946  0.00  0.00    +0.000 NA
ATOM     27  C   UNL     1       2.548   5.764  18.411  0.00  0.00    +0.000 C 
ATOM     28  C   UNL     1       2.264   4.609  19.381  0.00  0.00    +0.000 C 
ATOM     29  O   UNL     1       2.447   3.337  18.738  0.00  0.00    +0.000 OA
ATOM     30  C   UNL     1       3.775   3.231  18.197  0.00  0.00    +0.000 C 
ATOM     31  C   UNL     1       4.079   4.378  17.213  0.00  0.00    +0.000 C 
ENDBRANCH  25  26
ENDBRANCH  24  25
ENDBRANCH  23  24
ENDBRANCH  21  23
ENDBRANCH  18  19
ENDBRANCH  17  18
ENDBRANCH   6  17
TORSDOF 9
ENDMDL
MODEL 7
REMARK VINA RESULT:      -6.1      1.927      4.298
REMARK  Name = 
REMARK  10 active torsions:
REMARK  status: ('A' for Active; 'I' for Inactive)
REMARK    1  A    between atoms: C_1  and  C_2
REMARK    2  A    between atoms: C_2  and  C_3
REMARK    3  A    between atoms: C_6  and  C_7
REMARK    4  A    between atoms: N_12  and  C_13
REMARK    5  A    between atoms: C_13  and  C_14
REMARK    6  A    between atoms: C_14  and  C_15
REMARK    7  A    between atoms: N_17  and  C_18
REMARK    8  A    between atoms: C_18  and  C_19
REMARK    9  A    between atoms: C_19  and  C_20
REMARK   10  A    between atoms: C_20  and  N_21
REMARK                            x       y       z     vdW  Elec       q    Type
REMARK                         _______ _______ _______ _____ _____    ______ ____
ROOT
ATOM      1  C   UNL     1       3.725   5.337  19.238  0.00  0.00    +0.000 C 
ATOM      2  C   UNL     1       2.913   6.372  19.495  0.00  0.00    +0.000 C 
ATOM      3  S   UNL     1       1.947   6.465  20.918  0.00  0.00    +0.000 S 
ATOM      4  C   UNL     1       1.245   8.015  20.462  0.00  0.00    +0.000 C 
ATOM      5  S   UNL     1       0.140   8.791  21.440  0.00  0.00    +0.000 S 
ATOM      6  N   UNL     1       1.747   8.417  19.243  0.00  0.00    +0.000 N 
ATOM      7  C   UNL     1       2.690   7.584  18.657  0.00  0.00    +0.000 C 
ATOM      8  O   UNL     1       3.267   7.813  17.604  0.00  0.00    +0.000 OA
ENDROOT
BRANCH   1  12
ATOM      9  C   UNL     1       6.129   4.907  15.729  0.00  0.00    +0.000 A 
ATOM     10  C   UNL     1       6.588   5.663  16.816  0.00  0.00    +0.000 A 
ATOM     11  C   UNL     1       5.804   5.804  17.964  0.00  0.00    +0.000 A 
ATOM     12  C   UNL     1       4.551   5.189  18.039  0.00  0.00    +0.000 A 
ATOM     13  C   UNL     1       4.091   4.428  16.961  0.00  0.00    +0.000 A 
ATOM     14  C   UNL     1       4.877   4.285  15.815  0.00  0.00    +0.000 A 
BRANCH   9  16
ATOM     15  C   UNL     1       6.297   3.873  13.451  0.00  0.00    +0.000 C 
ATOM     16  C   UNL     1       6.977   4.748  14.493  0.00  0.00    +0.000 C 
ENDBRANCH   9  16
ENDBRANCH   1  12
BRANCH   6  17
ATOM     17  C   UNL     1       1.449   9.698  18.582  0.00  0.00    +0.000 C 
BRANCH  17  18
ATOM     18  C   UNL     1       0.115   9.698  17.839  0.00  0.00    +0.000 C 
BRANCH  18  19
ATOM     19  C   UNL     1      -0.810  10.775  18.348  0.00  0.00    +0.000 C 
ATOM     20  O   UNL     1      -1.966  10.568  18.696  0.00  0.00    +0.000 OA
ATOM     21  N   UNL     1      -0.210  12.022  18.372  0.00  0.00    +0.000 N 
ATOM     22  H   UNL     1       0.771  12.101  18.138  0.00  0.00    +0.000 HD
BRANCH  21  23
ATOM     23  C   UNL     1      -0.908  13.208  18.823  0.00  0.00    +0.000 C 
BRANCH  23  24
ATOM     24  C   UNL     1      -0.028  14.462  18.733  0.00  0.00    +0.000 C 
BRANCH  24  25
ATOM     25  C   UNL     1       0.491  14.912  20.111  0.00  0.00    +0.000 C 
BRANCH  25  26
ATOM     26  N   UNL     1       1.923  14.680  20.209  0.00  0.00    +0.000 NA
ATOM     27  C   UNL     1       2.742  15.448  19.254  0.00  0.00    +0.000 C 
ATOM     28  C   UNL     1       4.150  14.838  19.237  0.00  0.00    +0.000 C 
ATOM     29  O   UNL     1       4.752  14.890  20.540  0.00  0.00    +0.000 OA
ATOM     30  C   UNL     1       3.923  14.221  21.507  0.00  0.00    +0.000 C 
ATOM     31  C   UNL     1       2.504  14.823  21.548  0.00  0.00    +0.000 C 
ENDBRANCH  25  26
ENDBRANCH  24  25
ENDBRANCH  23  24
ENDBRANCH  21  23
ENDBRANCH  18  19
ENDBRANCH  17  18
ENDBRANCH   6  17
TORSDOF 9
ENDMDL
MODEL 8
REMARK VINA RESULT:      -6.1      3.239      5.652
REMARK  Name = 
REMARK  10 active torsions:
REMARK  status: ('A' for Active; 'I' for Inactive)
REMARK    1  A    between atoms: C_1  and  C_2
REMARK    2  A    between atoms: C_2  and  C_3
REMARK    3  A    between atoms: C_6  and  C_7
REMARK    4  A    between atoms: N_12  and  C_13
REMARK    5  A    between atoms: C_13  and  C_14
REMARK    6  A    between atoms: C_14  and  C_15
REMARK    7  A    between atoms: N_17  and  C_18
REMARK    8  A    between atoms: C_18  and  C_19
REMARK    9  A    between atoms: C_19  and  C_20
REMARK   10  A    between atoms: C_20  and  N_21
REMARK                            x       y       z     vdW  Elec       q    Type
REMARK                         _______ _______ _______ _____ _____    ______ ____
ROOT
ATOM      1  C   UNL     1       2.427   6.252  20.156  0.00  0.00    +0.000 C 
ATOM      2  C   UNL     1       1.854   7.460  20.069  0.00  0.00    +0.000 C 
ATOM      3  S   UNL     1       0.948   8.155  21.360  0.00  0.00    +0.000 S 
ATOM      4  C   UNL     1       0.579   9.617  20.449  0.00  0.00    +0.000 C 
ATOM      5  S   UNL     1      -0.325  10.850  21.112  0.00  0.00    +0.000 S 
ATOM      6  N   UNL     1       1.137   9.538  19.190  0.00  0.00    +0.000 N 
ATOM      7  C   UNL     1       1.877   8.398  18.911  0.00  0.00    +0.000 C 
ATOM      8  O   UNL     1       2.474   8.190  17.865  0.00  0.00    +0.000 OA
ENDROOT
BRANCH   1  12
ATOM      9  C   UNL     1       4.658   4.344  17.049  0.00  0.00    +0.000 A 
ATOM     10  C   UNL     1       3.270   4.174  17.132  0.00  0.00    +0.000 A 
ATOM     11  C   UNL     1       2.538   4.798  18.147  0.00  0.00    +0.000 A 
ATOM     12  C   UNL     1       3.188   5.600  19.089  0.00  0.00    +0.000 A 
ATOM     13  C   UNL     1       4.572   5.779  19.006  0.00  0.00    +0.000 A 
ATOM     14  C   UNL     1       5.301   5.157  17.990  0.00  0.00    +0.000 A 
BRANCH   9  16
ATOM     15  C   UNL     1       5.644   4.600  14.757  0.00  0.00    +0.000 C 
ATOM     16  C   UNL     1       5.448   3.678  15.950  0.00  0.00    +0.000 C 
ENDBRANCH   9  16
ENDBRANCH   1  12
BRANCH   6  17
ATOM     17  C   UNL     1       1.104  10.608  18.179  0.00  0.00    +0.000 C 
BRANCH  17  18
ATOM     18  C   UNL     1       2.200  11.653  18.370  0.00  0.00    +0.000 C 
BRANCH  18  19
ATOM     19  C   UNL     1       1.631  13.043  18.510  0.00  0.00    +0.000 C 
ATOM     20  O   UNL     1       0.452  13.316  18.320  0.00  0.00    +0.000 OA
ATOM     21  N   UNL     1       2.589  13.974  18.873  0.00  0.00    +0.000 N 
ATOM     22  H   UNL     1       3.527  13.659  19.083  0.00  0.00    +0.000 HD
BRANCH  21  23
ATOM     23  C   UNL     1       2.274  15.375  19.065  0.00  0.00    +0.000 C 
BRANCH  23  24
ATOM     24  C   UNL     1       3.449  16.286  18.686  0.00  0.00    +0.000 C 
BRANCH  24  25
ATOM     25  C   UNL     1       4.456  15.585  17.757  0.00  0.00    +0.000 C 
BRANCH  25  26
ATOM     26  N   UNL     1       5.721  15.386  18.445  0.00  0.00    +0.000 NA
ATOM     27  C   UNL     1       6.761  14.715  17.647  0.00  0.00    +0.000 C 
ATOM     28  C   UNL     1       7.876  14.263  18.600  0.00  0.00    +0.000 C 
ATOM     29  O   UNL     1       8.448  15.384  19.294  0.00  0.00    +0.000 OA
ATOM     30  C   UNL     1       7.431  16.108  20.010  0.00  0.00    +0.000 C 
ATOM     31  C   UNL     1       6.304  16.578  19.069  0.00  0.00    +0.000 C 
ENDBRANCH  25  26
ENDBRANCH  24  25
ENDBRANCH  23  24
ENDBRANCH  21  23
ENDBRANCH  18  19
ENDBRANCH  17  18
ENDBRANCH   6  17
TORSDOF 9
ENDMDL
MODEL 9
REMARK VINA RESULT:      -6.1      3.260      4.431
REMARK  Name = 
REMARK  10 active torsions:
REMARK  status: ('A' for Active; 'I' for Inactive)
REMARK    1  A    between atoms: C_1  and  C_2
REMARK    2  A    between atoms: C_2  and  C_3
REMARK    3  A    between atoms: C_6  and  C_7
REMARK    4  A    between atoms: N_12  and  C_13
REMARK    5  A    between atoms: C_13  and  C_14
REMARK    6  A    between atoms: C_14  and  C_15
REMARK    7  A    between atoms: N_17  and  C_18
REMARK    8  A    between atoms: C_18  and  C_19
REMARK    9  A    between atoms: C_19  and  C_20
REMARK   10  A    between atoms: C_20  and  N_21
REMARK                            x       y       z     vdW  Elec       q    Type
REMARK                         _______ _______ _______ _____ _____    ______ ____
ROOT
ATOM      1  C   UNL     1       2.315   7.899  17.815  0.00  0.00    +0.000 C 
ATOM      2  C   UNL     1       1.839   8.851  18.630  0.00  0.00    +0.000 C 
ATOM      3  S   UNL     1       1.550  10.466  18.104  0.00  0.00    +0.000 S 
ATOM      4  C   UNL     1       0.997  10.992  19.691  0.00  0.00    +0.000 C 
ATOM      5  S   UNL     1       0.501  12.559  19.965  0.00  0.00    +0.000 S 
ATOM      6  N   UNL     1       1.058   9.940  20.581  0.00  0.00    +0.000 N 
ATOM      7  C   UNL     1       1.484   8.722  20.072  0.00  0.00    +0.000 C 
ATOM      8  O   UNL     1       1.551   7.682  20.710  0.00  0.00    +0.000 OA
ENDROOT
BRANCH   1  12
ATOM      9  C   UNL     1       3.149   3.862  18.949  0.00  0.00    +0.000 A 
ATOM     10  C   UNL     1       4.111   4.864  19.133  0.00  0.00    +0.000 A 
ATOM     11  C   UNL     1       3.840   6.185  18.764  0.00  0.00    +0.000 A 
ATOM     12  C   UNL     1       2.603   6.519  18.207  0.00  0.00    +0.000 A 
ATOM     13  C   UNL     1       1.637   5.524  18.028  0.00  0.00    +0.000 A 
ATOM     14  C   UNL     1       1.908   4.205  18.400  0.00  0.00    +0.000 A 
BRANCH   9  16
ATOM     15  C   UNL     1       3.841   2.339  20.817  0.00  0.00    +0.000 C 
ATOM     16  C   UNL     1       3.438   2.439  19.354  0.00  0.00    +0.000 C 
ENDBRANCH   9  16
ENDBRANCH   1  12
BRANCH   6  17
ATOM     17  C   UNL     1       0.602   9.984  21.980  0.00  0.00    +0.000 C 
BRANCH  17  18
ATOM     18  C   UNL     1      -0.911  10.134  22.117  0.00  0.00    +0.000 C 
BRANCH  18  19
ATOM     19  C   UNL     1      -1.284  11.371  22.897  0.00  0.00    +0.000 C 
ATOM     20  O   UNL     1      -0.467  12.189  23.302  0.00  0.00    +0.000 OA
ATOM     21  N   UNL     1      -2.648  11.474  23.107  0.00  0.00    +0.000 N 
ATOM     22  H   UNL     1      -3.265  10.796  22.679  0.00  0.00    +0.000 HD
BRANCH  21  23
ATOM     23  C   UNL     1      -3.238  12.580  23.833  0.00  0.00    +0.000 C 
BRANCH  23  24
ATOM     24  C   UNL     1      -3.990  13.542  22.904  0.00  0.00    +0.000 C 
BRANCH  24  25
ATOM     25  C   UNL     1      -4.048  13.028  21.454  0.00  0.00    +0.000 C 
BRANCH  25  26
ATOM     26  N   UNL     1      -5.285  12.297  21.229  0.00  0.00    +0.000 NA
ATOM     27  C   UNL     1      -6.471  12.869  21.889  0.00  0.00    +0.000 C 
ATOM     28  C   UNL     1      -7.588  11.816  21.859  0.00  0.00    +0.000 C 
ATOM     29  O   UNL     1      -7.916  11.450  20.509  0.00  0.00    +0.000 OA
ATOM     30  C   UNL     1      -6.749  10.972  19.817  0.00  0.00    +0.000 C 
ATOM     31  C   UNL     1      -5.617  12.018  19.828  0.00  0.00    +0.000 C 
ENDBRANCH  25  26
ENDBRANCH  24  25
ENDBRANCH  23  24
ENDBRANCH  21  23
ENDBRANCH  18  19
ENDBRANCH  17  18
ENDBRANCH   6  17
TORSDOF 9
ENDMDL
