MODEL 1
REMARK VINA RESULT:      -6.1      0.000      0.000
REMARK  Name = 
REMARK  10 active torsions:
REMARK  status: ('A' for Active; 'I' for Inactive)
REMARK    1  A    between atoms: C_1  and  O_2
REMARK    2  A    between atoms: O_2  and  C_3
REMARK    3  A    between atoms: C_5  and  C_6
REMARK    4  A    between atoms: C_6  and  C_7
REMARK    5  A    between atoms: C_8  and  C_9
REMARK    6  A    between atoms: C_11  and  N_12
REMARK    7  A    between atoms: N_13  and  C_14
REMARK    8  A    between atoms: C_17  and  S_18
REMARK    9  A    between atoms: S_18  and  N_19
REMARK   10  A    between atoms: C_33  and  O_34
REMARK                            x       y       z     vdW  Elec       q    Type
REMARK                         _______ _______ _______ _____ _____    ______ ____
ROOT
ATOM      1  C   UNL     1      -1.835  13.295  19.445  0.00  0.00    +0.000 C 
ATOM      2  C   UNL     1      -0.422  13.233  20.008  0.00  0.00    +0.000 C 
ATOM      3  C   UNL     1       0.357  12.116  19.984  0.00  0.00    +0.000 C 
ATOM      4  N   UNL     1      -0.134  10.906  19.374  0.00  0.00    +0.000 N 
ATOM      5  C   UNL     1      -1.495  10.849  18.903  0.00  0.00    +0.000 C 
ATOM      6  C   UNL     1      -2.307  11.940  18.943  0.00  0.00    +0.000 C 
ATOM      7  C   UNL     1      -3.670  11.890  18.305  0.00  0.00    +0.000 C 
ATOM      8  O   UNL     1      -4.405  12.873  18.298  0.00  0.00    +0.000 OA
ATOM      9  C   UNL     1      -4.081  10.655  17.550  0.00  0.00    +0.000 C 
ATOM     10  C   UNL     1      -3.552   9.427  18.249  0.00  0.00    +0.000 C 
ATOM     11  C   UNL     1      -2.038   9.526  18.359  0.00  0.00    +0.000 C 
ENDROOT
BRANCH   4  12
ATOM     12  C   UNL     1       0.794   9.801  19.155  0.00  0.00    +0.000 A 
ATOM     13  C   UNL     1       1.449   9.611  17.919  0.00  0.00    +0.000 A 
ATOM     14  C   UNL     1       2.237   8.479  17.661  0.00  0.00    +0.000 A 
ATOM     15  C   UNL     1       2.489   7.576  18.683  0.00  0.00    +0.000 A 
ATOM     16  C   UNL     1       1.903   7.747  19.934  0.00  0.00    +0.000 A 
ATOM     17  C   UNL     1       1.026   8.820  20.140  0.00  0.00    +0.000 A 
BRANCH  15  18
ATOM     18  S   UNL     1       3.493   6.144  18.378  0.00  0.00    +0.000 S 
ATOM     19  O   UNL     1       2.696   5.128  17.726  0.00  0.00    +0.000 OA
ATOM     20  O   UNL     1       4.776   6.579  17.862  0.00  0.00    +0.000 OA
BRANCH  18  21
ATOM     21  N   UNL     1       3.773   5.593  19.937  0.00  0.00    +0.000 NA
ATOM     22  H   UNL     1       3.818   6.397  20.578  0.00  0.00    +0.000 HD
ATOM     23  H   UNL     1       3.067   4.905  20.193  0.00  0.00    +0.000 HD
ENDBRANCH  18  21
ENDBRANCH  15  18
ENDBRANCH   4  12
BRANCH   3  24
ATOM     24  N   UNL     1       1.651  12.196  20.510  0.00  0.00    +0.000 N 
ATOM     25  H   UNL     1       2.418  11.932  19.899  0.00  0.00    +0.000 HD
ATOM     26  H   UNL     1       1.724  11.714  21.404  0.00  0.00    +0.000 HD
ENDBRANCH   3  24
BRANCH   2  27
ATOM     27  C   UNL     1       0.120  14.460  20.506  0.00  0.00    +0.000 C 
ATOM     28  N   UNL     1       0.570  15.439  20.932  0.00  0.00    +0.000 NA
ENDBRANCH   2  27
BRANCH   1  29
ATOM     29  C   UNL     1      -2.803  14.125  20.359  0.00  0.00    +0.000 C 
BRANCH  29  32
ATOM     30  C   UNL     1      -5.246  12.603  22.878  0.00  0.00    +0.000 A 
ATOM     31  C   UNL     1      -4.710  13.187  21.721  0.00  0.00    +0.000 A 
ATOM     32  C   UNL     1      -3.341  13.464  21.603  0.00  0.00    +0.000 A 
ATOM     33  C   UNL     1      -2.508  13.184  22.691  0.00  0.00    +0.000 A 
ATOM     34  C   UNL     1      -3.023  12.592  23.844  0.00  0.00    +0.000 A 
ATOM     35  C   UNL     1      -4.385  12.292  23.935  0.00  0.00    +0.000 A 
BRANCH  30  37
ATOM     36  C   UNL     1      -7.160  12.130  21.528  0.00  0.00    +0.000 C 
ATOM     37  O   UNL     1      -6.600  12.422  22.798  0.00  0.00    +0.000 OA
ENDBRANCH  30  37
BRANCH  35  38
ATOM     38  O   UNL     1      -4.836  11.698  25.081  0.00  0.00    +0.000 OA
ATOM     39  H   UNL     1      -5.216  12.378  25.660  0.00  0.00    +0.000 HD
ENDBRANCH  35  38
ENDBRANCH  29  32
ENDBRANCH   1  29
TORSDOF 9
ENDMDL
MODEL 2
REMARK VINA RESULT:      -5.9      3.468      8.787
REMARK  Name = 
REMARK  10 active torsions:
REMARK  status: ('A' for Active; 'I' for Inactive)
REMARK    1  A    between atoms: C_1  and  O_2
REMARK    2  A    between atoms: O_2  and  C_3
REMARK    3  A    between atoms: C_5  and  C_6
REMARK    4  A    between atoms: C_6  and  C_7
REMARK    5  A    between atoms: C_8  and  C_9
REMARK    6  A    between atoms: C_11  and  N_12
REMARK    7  A    between atoms: N_13  and  C_14
REMARK    8  A    between atoms: C_17  and  S_18
REMARK    9  A    between atoms: S_18  and  N_19
REMARK   10  A    between atoms: C_33  and  O_34
REMARK                            x       y       z     vdW  Elec       q    Type
REMARK                         _______ _______ _______ _____ _____    ______ ____
ROOT
ATOM      1  C   UNL     1      -0.009   9.792  19.739  0.00  0.00    +0.000 C 
ATOM      2  C   UNL     1      -0.008  10.492  21.090  0.00  0.00    +0.000 C 
ATOM      3  C   UNL     1      -0.869  11.492  21.428  0.00  0.00    +0.000 C 
ATOM      4  N   UNL     1      -1.875  11.927  20.492  0.00  0.00    +0.000 N 
ATOM      5  C   UNL     1      -1.884  11.385  19.157  0.00  0.00    +0.000 C 
ATOM      6  C   UNL     1      -1.016  10.407  18.780  0.00  0.00    +0.000 C 
ATOM      7  C   UNL     1      -1.151   9.757  17.429  0.00  0.00    +0.000 C 
ATOM      8  O   UNL     1      -0.401   8.849  17.083  0.00  0.00    +0.000 OA
ATOM      9  C   UNL     1      -2.307  10.138  16.544  0.00  0.00    +0.000 C 
ATOM     10  C   UNL     1      -2.592  11.613  16.681  0.00  0.00    +0.000 C 
ATOM     11  C   UNL     1      -2.886  11.934  18.138  0.00  0.00    +0.000 C 
ENDROOT
BRANCH   4  12
ATOM     12  C   UNL     1      -2.924  12.830  20.953  0.00  0.00    +0.000 A 
ATOM     13  C   UNL     1      -2.764  14.233  20.932  0.00  0.00    +0.000 A 
ATOM     14  C   UNL     1      -3.714  15.099  21.495  0.00  0.00    +0.000 A 
ATOM     15  C   UNL     1      -4.906  14.582  21.979  0.00  0.00    +0.000 A 
ATOM     16  C   UNL     1      -5.130  13.208  21.977  0.00  0.00    +0.000 A 
ATOM     17  C   UNL     1      -4.123  12.349  21.518  0.00  0.00    +0.000 A 
BRANCH  15  18
ATOM     18  S   UNL     1      -6.124  15.664  22.684  0.00  0.00    +0.000 S 
ATOM     19  O   UNL     1      -5.537  16.968  22.905  0.00  0.00    +0.000 OA
ATOM     20  O   UNL     1      -7.374  15.481  21.975  0.00  0.00    +0.000 OA
BRANCH  18  21
ATOM     21  N   UNL     1      -6.337  14.983  24.202  0.00  0.00    +0.000 NA
ATOM     22  H   UNL     1      -5.462  14.530  24.497  0.00  0.00    +0.000 HD
ATOM     23  H   UNL     1      -6.672  15.690  24.855  0.00  0.00    +0.000 HD
ENDBRANCH  18  21
ENDBRANCH  15  18
ENDBRANCH   4  12
BRANCH   3  24
ATOM     24  N   UNL     1      -0.786  12.036  22.714  0.00  0.00    +0.000 N 
ATOM     25  H   UNL     1      -1.658  12.284  23.172  0.00  0.00    +0.000 HD
ATOM     26  H   UNL     1      -0.129  12.813  22.752  0.00  0.00    +0.000 HD
ENDBRANCH   3  24
BRANCH   2  27
ATOM     27  C   UNL     1       0.904   9.987  22.069  0.00  0.00    +0.000 C 
ATOM     28  N   UNL     1       1.625   9.555  22.866  0.00  0.00    +0.000 NA
ENDBRANCH   2  27
BRANCH   1  29
ATOM     29  C   UNL     1       1.443   9.518  19.212  0.00  0.00    +0.000 C 
BRANCH  29  32
ATOM     30  C   UNL     1       3.236   6.288  18.221  0.00  0.00    +0.000 A 
ATOM     31  C   UNL     1       2.770   7.611  18.225  0.00  0.00    +0.000 A 
ATOM     32  C   UNL     1       1.956   8.101  19.256  0.00  0.00    +0.000 A 
ATOM     33  C   UNL     1       1.573   7.225  20.277  0.00  0.00    +0.000 A 
ATOM     34  C   UNL     1       2.038   5.910  20.294  0.00  0.00    +0.000 A 
ATOM     35  C   UNL     1       2.875   5.445  19.276  0.00  0.00    +0.000 A 
BRANCH  30  37
ATOM     36  C   UNL     1       5.418   6.092  17.265  0.00  0.00    +0.000 C 
ATOM     37  O   UNL     1       4.008   6.004  17.127  0.00  0.00    +0.000 OA
ENDBRANCH  30  37
BRANCH  35  38
ATOM     38  O   UNL     1       3.316   4.152  19.349  0.00  0.00    +0.000 OA
ATOM     39  H   UNL     1       4.212   4.145  19.723  0.00  0.00    +0.000 HD
ENDBRANCH  35  38
ENDBRANCH  29  32
ENDBRANCH   1  29
TORSDOF 9
ENDMDL
MODEL 3
REMARK VINA RESULT:      -5.8      3.398      8.562
REMARK  Name = 
REMARK  10 active torsions:
REMARK  status: ('A' for Active; 'I' for Inactive)
REMARK    1  A    between atoms: C_1  and  O_2
REMARK    2  A    between atoms: O_2  and  C_3
REMARK    3  A    between atoms: C_5  and  C_6
REMARK    4  A    between atoms: C_6  and  C_7
REMARK    5  A    between atoms: C_8  and  C_9
REMARK    6  A    between atoms: C_11  and  N_12
REMARK    7  A    between atoms: N_13  and  C_14
REMARK    8  A    between atoms: C_17  and  S_18
REMARK    9  A    between atoms: S_18  and  N_19
REMARK   10  A    between atoms: C_33  and  O_34
REMARK                            x       y       z     vdW  Elec       q    Type
REMARK                         _______ _______ _______ _____ _____    ______ ____
ROOT
ATOM      1  C   UNL     1      -0.013   9.917  19.610  0.00  0.00    +0.000 C 
ATOM      2  C   UNL     1       0.033  10.582  20.979  0.00  0.00    +0.000 C 
ATOM      3  C   UNL     1      -0.860  11.521  21.398  0.00  0.00    +0.000 C 
ATOM      4  N   UNL     1      -1.946  11.919  20.537  0.00  0.00    +0.000 N 
ATOM      5  C   UNL     1      -2.008  11.411  19.190  0.00  0.00    +0.000 C 
ATOM      6  C   UNL     1      -1.111  10.496  18.733  0.00  0.00    +0.000 C 
ATOM      7  C   UNL     1      -1.294   9.873  17.375  0.00  0.00    +0.000 C 
ATOM      8  O   UNL     1      -0.517   9.019  16.957  0.00  0.00    +0.000 OA
ATOM      9  C   UNL     1      -2.523  10.208  16.574  0.00  0.00    +0.000 C 
ATOM     10  C   UNL     1      -2.882  11.660  16.770  0.00  0.00    +0.000 C 
ATOM     11  C   UNL     1      -3.101  11.927  18.251  0.00  0.00    +0.000 C 
ENDROOT
BRANCH   4  12
ATOM     12  C   UNL     1      -3.013  12.747  21.088  0.00  0.00    +0.000 A 
ATOM     13  C   UNL     1      -2.945  14.158  21.077  0.00  0.00    +0.000 A 
ATOM     14  C   UNL     1      -3.903  14.955  21.721  0.00  0.00    +0.000 A 
ATOM     15  C   UNL     1      -5.021  14.357  22.282  0.00  0.00    +0.000 A 
ATOM     16  C   UNL     1      -5.158  12.971  22.276  0.00  0.00    +0.000 A 
ATOM     17  C   UNL     1      -4.134  12.185  21.731  0.00  0.00    +0.000 A 
BRANCH  15  18
ATOM     18  S   UNL     1      -6.250  15.351  23.092  0.00  0.00    +0.000 S 
ATOM     19  O   UNL     1      -6.537  16.514  22.281  0.00  0.00    +0.000 OA
ATOM     20  O   UNL     1      -7.290  14.479  23.602  0.00  0.00    +0.000 OA
BRANCH  18  21
ATOM     21  N   UNL     1      -5.402  15.907  24.428  0.00  0.00    +0.000 NA
ATOM     22  H   UNL     1      -5.960  15.742  25.277  0.00  0.00    +0.000 HD
ATOM     23  H   UNL     1      -4.479  15.478  24.455  0.00  0.00    +0.000 HD
ENDBRANCH  18  21
ENDBRANCH  15  18
ENDBRANCH   4  12
BRANCH   3  24
ATOM     24  N   UNL     1      -0.727  12.036  22.691  0.00  0.00    +0.000 N 
ATOM     25  H   UNL     1       0.203  12.318  22.986  0.00  0.00    +0.000 HD
ATOM     26  H   UNL     1      -1.152  11.425  23.385  0.00  0.00    +0.000 HD
ENDBRANCH   3  24
BRANCH   2  27
ATOM     27  C   UNL     1       1.033  10.106  21.885  0.00  0.00    +0.000 C 
ATOM     28  N   UNL     1       1.836   9.744  22.637  0.00  0.00    +0.000 NA
ENDBRANCH   2  27
BRANCH   1  29
ATOM     29  C   UNL     1       1.417   9.741  18.988  0.00  0.00    +0.000 C 
BRANCH  29  32
ATOM     30  C   UNL     1       2.240   6.102  19.831  0.00  0.00    +0.000 A 
ATOM     31  C   UNL     1       1.707   7.399  19.882  0.00  0.00    +0.000 A 
ATOM     32  C   UNL     1       1.977   8.345  18.883  0.00  0.00    +0.000 A 
ATOM     33  C   UNL     1       2.833   7.986  17.838  0.00  0.00    +0.000 A 
ATOM     34  C   UNL     1       3.362   6.697  17.765  0.00  0.00    +0.000 A 
ATOM     35  C   UNL     1       3.058   5.754  18.752  0.00  0.00    +0.000 A 
BRANCH  30  37
ATOM     36  C   UNL     1       1.114   4.160  20.648  0.00  0.00    +0.000 C 
ATOM     37  O   UNL     1       1.866   5.336  20.901  0.00  0.00    +0.000 OA
ENDBRANCH  30  37
BRANCH  35  38
ATOM     38  O   UNL     1       3.589   4.500  18.625  0.00  0.00    +0.000 OA
ATOM     39  H   UNL     1       2.866   3.853  18.598  0.00  0.00    +0.000 HD
ENDBRANCH  35  38
ENDBRANCH  29  32
ENDBRANCH   1  29
TORSDOF 9
ENDMDL
MODEL 4
REMARK VINA RESULT:      -5.7      4.223      6.309
REMARK  Name = 
REMARK  10 active torsions:
REMARK  status: ('A' for Active; 'I' for Inactive)
REMARK    1  A    between atoms: C_1  and  O_2
REMARK    2  A    between atoms: O_2  and  C_3
REMARK    3  A    between atoms: C_5  and  C_6
REMARK    4  A    between atoms: C_6  and  C_7
REMARK    5  A    between atoms: C_8  and  C_9
REMARK    6  A    between atoms: C_11  and  N_12
REMARK    7  A    between atoms: N_13  and  C_14
REMARK    8  A    between atoms: C_17  and  S_18
REMARK    9  A    between atoms: S_18  and  N_19
REMARK   10  A    between atoms: C_33  and  O_34
REMARK                            x       y       z     vdW  Elec       q    Type
REMARK                         _______ _______ _______ _____ _____    ______ ____
ROOT
ATOM      1  C   UNL     1      -3.796  12.065  20.190  0.00  0.00    +0.000 C 
ATOM      2  C   UNL     1      -2.969  12.012  18.913  0.00  0.00    +0.000 C 
ATOM      3  C   UNL     1      -1.816  12.711  18.725  0.00  0.00    +0.000 C 
ATOM      4  N   UNL     1      -1.294  13.541  19.782  0.00  0.00    +0.000 N 
ATOM      5  C   UNL     1      -2.063  13.724  20.987  0.00  0.00    +0.000 C 
ATOM      6  C   UNL     1      -3.235  13.063  21.190  0.00  0.00    +0.000 C 
ATOM      7  C   UNL     1      -3.935  13.158  22.519  0.00  0.00    +0.000 C 
ATOM      8  O   UNL     1      -4.975  12.543  22.736  0.00  0.00    +0.000 OA
ATOM      9  C   UNL     1      -3.278  13.916  23.641  0.00  0.00    +0.000 C 
ATOM     10  C   UNL     1      -2.573  15.132  23.094  0.00  0.00    +0.000 C 
ATOM     11  C   UNL     1      -1.552  14.695  22.054  0.00  0.00    +0.000 C 
ENDROOT
BRANCH   4  12
ATOM     12  C   UNL     1       0.049  14.094  19.645  0.00  0.00    +0.000 A 
ATOM     13  C   UNL     1       0.281  15.356  19.055  0.00  0.00    +0.000 A 
ATOM     14  C   UNL     1       1.576  15.833  18.802  0.00  0.00    +0.000 A 
ATOM     15  C   UNL     1       2.669  15.109  19.253  0.00  0.00    +0.000 A 
ATOM     16  C   UNL     1       2.490  13.881  19.884  0.00  0.00    +0.000 A 
ATOM     17  C   UNL     1       1.194  13.365  20.024  0.00  0.00    +0.000 A 
BRANCH  15  18
ATOM     18  S   UNL     1       4.315  15.703  18.952  0.00  0.00    +0.000 S 
ATOM     19  O   UNL     1       4.262  17.105  18.597  0.00  0.00    +0.000 OA
ATOM     20  O   UNL     1       5.189  15.194  19.990  0.00  0.00    +0.000 OA
BRANCH  18  21
ATOM     21  N   UNL     1       4.717  14.877  17.548  0.00  0.00    +0.000 NA
ATOM     22  H   UNL     1       4.572  15.494  16.738  0.00  0.00    +0.000 HD
ATOM     23  H   UNL     1       5.666  14.513  17.621  0.00  0.00    +0.000 HD
ENDBRANCH  18  21
ENDBRANCH  15  18
ENDBRANCH   4  12
BRANCH   3  24
ATOM     24  N   UNL     1      -1.132  12.555  17.515  0.00  0.00    +0.000 N 
ATOM     25  H   UNL     1      -0.853  13.399  17.026  0.00  0.00    +0.000 HD
ATOM     26  H   UNL     1      -1.622  11.923  16.885  0.00  0.00    +0.000 HD
ENDBRANCH   3  24
BRANCH   2  27
ATOM     27  C   UNL     1      -3.412  11.098  17.905  0.00  0.00    +0.000 C 
ATOM     28  N   UNL     1      -3.745  10.343  17.092  0.00  0.00    +0.000 NA
ENDBRANCH   2  27
BRANCH   1  29
ATOM     29  C   UNL     1      -5.337  12.095  19.898  0.00  0.00    +0.000 C 
BRANCH  29  32
ATOM     30  C   UNL     1      -6.544  15.616  19.018  0.00  0.00    +0.000 A 
ATOM     31  C   UNL     1      -6.006  14.521  19.711  0.00  0.00    +0.000 A 
ATOM     32  C   UNL     1      -5.886  13.259  19.113  0.00  0.00    +0.000 A 
ATOM     33  C   UNL     1      -6.357  13.092  17.807  0.00  0.00    +0.000 A 
ATOM     34  C   UNL     1      -6.883  14.173  17.100  0.00  0.00    +0.000 A 
ATOM     35  C   UNL     1      -6.967  15.434  17.698  0.00  0.00    +0.000 A 
BRANCH  30  37
ATOM     36  C   UNL     1      -5.468  17.632  19.719  0.00  0.00    +0.000 C 
ATOM     37  O   UNL     1      -6.581  16.754  19.777  0.00  0.00    +0.000 OA
ENDBRANCH  30  37
BRANCH  35  38
ATOM     38  O   UNL     1      -7.475  16.464  16.955  0.00  0.00    +0.000 OA
ATOM     39  H   UNL     1      -8.335  16.723  17.324  0.00  0.00    +0.000 HD
ENDBRANCH  35  38
ENDBRANCH  29  32
ENDBRANCH   1  29
TORSDOF 9
ENDMDL
MODEL 5
REMARK VINA RESULT:      -5.7      0.653      1.113
REMARK  Name = 
REMARK  10 active torsions:
REMARK  status: ('A' for Active; 'I' for Inactive)
REMARK    1  A    between atoms: C_1  and  O_2
REMARK    2  A    between atoms: O_2  and  C_3
REMARK    3  A    between atoms: C_5  and  C_6
REMARK    4  A    between atoms: C_6  and  C_7
REMARK    5  A    between atoms: C_8  and  C_9
REMARK    6  A    between atoms: C_11  and  N_12
REMARK    7  A    between atoms: N_13  and  C_14
REMARK    8  A    between atoms: C_17  and  S_18
REMARK    9  A    between atoms: S_18  and  N_19
REMARK   10  A    between atoms: C_33  and  O_34
REMARK                            x       y       z     vdW  Elec       q    Type
REMARK                         _______ _______ _______ _____ _____    ______ ____
ROOT
ATOM      1  C   UNL     1      -1.767  13.238  19.474  0.00  0.00    +0.000 C 
ATOM      2  C   UNL     1      -0.344  13.127  20.004  0.00  0.00    +0.000 C 
ATOM      3  C   UNL     1       0.395  11.984  19.962  0.00  0.00    +0.000 C 
ATOM      4  N   UNL     1      -0.151  10.792  19.364  0.00  0.00    +0.000 N 
ATOM      5  C   UNL     1      -1.524  10.782  18.926  0.00  0.00    +0.000 C 
ATOM      6  C   UNL     1      -2.298  11.900  18.985  0.00  0.00    +0.000 C 
ATOM      7  C   UNL     1      -3.676  11.896  18.379  0.00  0.00    +0.000 C 
ATOM      8  O   UNL     1      -4.377  12.904  18.389  0.00  0.00    +0.000 OA
ATOM      9  C   UNL     1      -4.147  10.676  17.635  0.00  0.00    +0.000 C 
ATOM     10  C   UNL     1      -3.644   9.431  18.322  0.00  0.00    +0.000 C 
ATOM     11  C   UNL     1      -2.125   9.478  18.396  0.00  0.00    +0.000 C 
ENDROOT
BRANCH   4  12
ATOM     12  C   UNL     1       0.732   9.656  19.124  0.00  0.00    +0.000 A 
ATOM     13  C   UNL     1       0.995   8.690  20.121  0.00  0.00    +0.000 A 
ATOM     14  C   UNL     1       1.943   7.672  19.940  0.00  0.00    +0.000 A 
ATOM     15  C   UNL     1       2.557   7.524  18.706  0.00  0.00    +0.000 A 
ATOM     16  C   UNL     1       2.294   8.423  17.675  0.00  0.00    +0.000 A 
ATOM     17  C   UNL     1       1.432   9.502  17.911  0.00  0.00    +0.000 A 
BRANCH  15  18
ATOM     18  S   UNL     1       3.751   6.234  18.455  0.00  0.00    +0.000 S 
ATOM     19  O   UNL     1       4.712   6.656  17.459  0.00  0.00    +0.000 OA
ATOM     20  O   UNL     1       4.146   5.711  19.748  0.00  0.00    +0.000 OA
BRANCH  18  21
ATOM     21  N   UNL     1       2.814   5.047  17.731  0.00  0.00    +0.000 NA
ATOM     22  H   UNL     1       3.111   4.928  16.753  0.00  0.00    +0.000 HD
ATOM     23  H   UNL     1       2.858   4.189  18.279  0.00  0.00    +0.000 HD
ENDBRANCH  18  21
ENDBRANCH  15  18
ENDBRANCH   4  12
BRANCH   3  24
ATOM     24  N   UNL     1       1.703  12.019  20.457  0.00  0.00    +0.000 N 
ATOM     25  H   UNL     1       2.427  11.591  19.888  0.00  0.00    +0.000 HD
ATOM     26  H   UNL     1       1.752  11.677  21.414  0.00  0.00    +0.000 HD
ENDBRANCH   3  24
BRANCH   2  27
ATOM     27  C   UNL     1       0.251  14.334  20.488  0.00  0.00    +0.000 C 
ATOM     28  N   UNL     1       0.760  15.298  20.881  0.00  0.00    +0.000 NA
ENDBRANCH   2  27
BRANCH   1  29
ATOM     29  C   UNL     1      -2.684  14.100  20.411  0.00  0.00    +0.000 C 
BRANCH  29  32
ATOM     30  C   UNL     1      -5.213  12.899  23.017  0.00  0.00    +0.000 A 
ATOM     31  C   UNL     1      -4.646  13.475  21.871  0.00  0.00    +0.000 A 
ATOM     32  C   UNL     1      -3.265  13.439  21.636  0.00  0.00    +0.000 A 
ATOM     33  C   UNL     1      -2.440  12.846  22.597  0.00  0.00    +0.000 A 
ATOM     34  C   UNL     1      -2.989  12.258  23.736  0.00  0.00    +0.000 A 
ATOM     35  C   UNL     1      -4.371  12.274  23.942  0.00  0.00    +0.000 A 
BRANCH  30  37
ATOM     36  C   UNL     1      -7.349  12.403  22.066  0.00  0.00    +0.000 C 
ATOM     37  O   UNL     1      -6.573  13.047  23.064  0.00  0.00    +0.000 OA
ENDBRANCH  30  37
BRANCH  35  38
ATOM     38  O   UNL     1      -4.859  11.668  25.067  0.00  0.00    +0.000 OA
ATOM     39  H   UNL     1      -5.577  11.065  24.814  0.00  0.00    +0.000 HD
ENDBRANCH  35  38
ENDBRANCH  29  32
ENDBRANCH   1  29
TORSDOF 9
ENDMDL
MODEL 6
REMARK VINA RESULT:      -5.7      3.552      8.610
REMARK  Name = 
REMARK  10 active torsions:
REMARK  status: ('A' for Active; 'I' for Inactive)
REMARK    1  A    between atoms: C_1  and  O_2
REMARK    2  A    between atoms: O_2  and  C_3
REMARK    3  A    between atoms: C_5  and  C_6
REMARK    4  A    between atoms: C_6  and  C_7
REMARK    5  A    between atoms: C_8  and  C_9
REMARK    6  A    between atoms: C_11  and  N_12
REMARK    7  A    between atoms: N_13  and  C_14
REMARK    8  A    between atoms: C_17  and  S_18
REMARK    9  A    between atoms: S_18  and  N_19
REMARK   10  A    between atoms: C_33  and  O_34
REMARK                            x       y       z     vdW  Elec       q    Type
REMARK                         _______ _______ _______ _____ _____    ______ ____
ROOT
ATOM      1  C   UNL     1       0.050   9.839  19.698  0.00  0.00    +0.000 C 
ATOM      2  C   UNL     1       0.040  10.498  21.070  0.00  0.00    +0.000 C 
ATOM      3  C   UNL     1      -0.857  11.450  21.450  0.00  0.00    +0.000 C 
ATOM      4  N   UNL     1      -1.894  11.869  20.540  0.00  0.00    +0.000 N 
ATOM      5  C   UNL     1      -1.899  11.367  19.189  0.00  0.00    +0.000 C 
ATOM      6  C   UNL     1      -0.996  10.439  18.771  0.00  0.00    +0.000 C 
ATOM      7  C   UNL     1      -1.123   9.824  17.403  0.00  0.00    +0.000 C 
ATOM      8  O   UNL     1      -0.340   8.959  17.020  0.00  0.00    +0.000 OA
ATOM      9  C   UNL     1      -2.307  10.182  16.546  0.00  0.00    +0.000 C 
ATOM     10  C   UNL     1      -2.652  11.638  16.731  0.00  0.00    +0.000 C 
ATOM     11  C   UNL     1      -2.938  11.903  18.201  0.00  0.00    +0.000 C 
ENDROOT
BRANCH   4  12
ATOM     12  C   UNL     1      -2.974  12.712  21.042  0.00  0.00    +0.000 A 
ATOM     13  C   UNL     1      -4.216  12.173  21.447  0.00  0.00    +0.000 A 
ATOM     14  C   UNL     1      -5.300  12.988  21.805  0.00  0.00    +0.000 A 
ATOM     15  C   UNL     1      -5.122  14.361  21.887  0.00  0.00    +0.000 A 
ATOM     16  C   UNL     1      -3.901  14.936  21.545  0.00  0.00    +0.000 A 
ATOM     17  C   UNL     1      -2.865  14.116  21.078  0.00  0.00    +0.000 A 
BRANCH  15  18
ATOM     18  S   UNL     1      -6.480  15.408  22.350  0.00  0.00    +0.000 S 
ATOM     19  O   UNL     1      -6.210  16.002  23.640  0.00  0.00    +0.000 OA
ATOM     20  O   UNL     1      -6.875  16.191  21.196  0.00  0.00    +0.000 OA
BRANCH  18  21
ATOM     21  N   UNL     1      -7.700  14.282  22.597  0.00  0.00    +0.000 NA
ATOM     22  H   UNL     1      -7.357  13.543  23.224  0.00  0.00    +0.000 HD
ATOM     23  H   UNL     1      -8.539  14.751  22.935  0.00  0.00    +0.000 HD
ENDBRANCH  18  21
ENDBRANCH  15  18
ENDBRANCH   4  12
BRANCH   3  24
ATOM     24  N   UNL     1      -0.779  11.958  22.750  0.00  0.00    +0.000 N 
ATOM     25  H   UNL     1      -0.284  12.836  22.878  0.00  0.00    +0.000 HD
ATOM     26  H   UNL     1      -0.440  11.259  23.408  0.00  0.00    +0.000 HD
ENDBRANCH   3  24
BRANCH   2  27
ATOM     27  C   UNL     1       0.987  10.004  22.021  0.00  0.00    +0.000 C 
ATOM     28  N   UNL     1       1.732   9.596  22.810  0.00  0.00    +0.000 NA
ENDBRANCH   2  27
BRANCH   1  29
ATOM     29  C   UNL     1       1.504   9.643  19.144  0.00  0.00    +0.000 C 
BRANCH  29  32
ATOM     30  C   UNL     1       2.266   5.970  19.891  0.00  0.00    +0.000 A 
ATOM     31  C   UNL     1       1.772   7.280  19.988  0.00  0.00    +0.000 A 
ATOM     32  C   UNL     1       2.020   8.235  18.992  0.00  0.00    +0.000 A 
ATOM     33  C   UNL     1       2.815   7.870  17.901  0.00  0.00    +0.000 A 
ATOM     34  C   UNL     1       3.303   6.569  17.783  0.00  0.00    +0.000 A 
ATOM     35  C   UNL     1       3.022   5.618  18.768  0.00  0.00    +0.000 A 
BRANCH  30  37
ATOM     36  C   UNL     1       1.154   4.027  20.728  0.00  0.00    +0.000 C 
ATOM     37  O   UNL     1       1.922   5.196  20.966  0.00  0.00    +0.000 OA
ENDBRANCH  30  37
BRANCH  35  38
ATOM     38  O   UNL     1       3.511   4.353  18.596  0.00  0.00    +0.000 OA
ATOM     39  H   UNL     1       4.431   4.326  18.906  0.00  0.00    +0.000 HD
ENDBRANCH  35  38
ENDBRANCH  29  32
ENDBRANCH   1  29
TORSDOF 9
ENDMDL
MODEL 7
REMARK VINA RESULT:      -5.7      3.015      5.288
REMARK  Name = 
REMARK  10 active torsions:
REMARK  status: ('A' for Active; 'I' for Inactive)
REMARK    1  A    between atoms: C_1  and  O_2
REMARK    2  A    between atoms: O_2  and  C_3
REMARK    3  A    between atoms: C_5  and  C_6
REMARK    4  A    between atoms: C_6  and  C_7
REMARK    5  A    between atoms: C_8  and  C_9
REMARK    6  A    between atoms: C_11  and  N_12
REMARK    7  A    between atoms: N_13  and  C_14
REMARK    8  A    between atoms: C_17  and  S_18
REMARK    9  A    between atoms: S_18  and  N_19
REMARK   10  A    between atoms: C_33  and  O_34
REMARK                            x       y       z     vdW  Elec       q    Type
REMARK                         _______ _______ _______ _____ _____    ______ ____
ROOT
ATOM      1  C   UNL     1      -1.163  10.880  20.298  0.00  0.00    +0.000 C 
ATOM      2  C   UNL     1      -0.755  10.591  18.859  0.00  0.00    +0.000 C 
ATOM      3  C   UNL     1       0.260   9.752  18.511  0.00  0.00    +0.000 C 
ATOM      4  N   UNL     1       1.001   9.054  19.531  0.00  0.00    +0.000 N 
ATOM      5  C   UNL     1       0.746   9.343  20.919  0.00  0.00    +0.000 C 
ATOM      6  C   UNL     1      -0.241  10.200  21.297  0.00  0.00    +0.000 C 
ATOM      7  C   UNL     1      -0.583  10.363  22.754  0.00  0.00    +0.000 C 
ATOM      8  O   UNL     1      -1.492  11.104  23.115  0.00  0.00    +0.000 OA
ATOM      9  C   UNL     1       0.117   9.502  23.772  0.00  0.00    +0.000 C 
ATOM     10  C   UNL     1       1.558   9.307  23.373  0.00  0.00    +0.000 C 
ATOM     11  C   UNL     1       1.615   8.678  21.989  0.00  0.00    +0.000 C 
ENDROOT
BRANCH   4  12
ATOM     12  C   UNL     1       1.922   7.995  19.131  0.00  0.00    +0.000 A 
ATOM     13  C   UNL     1       2.014   6.778  19.843  0.00  0.00    +0.000 A 
ATOM     14  C   UNL     1       2.987   5.813  19.544  0.00  0.00    +0.000 A 
ATOM     15  C   UNL     1       3.808   5.992  18.441  0.00  0.00    +0.000 A 
ATOM     16  C   UNL     1       3.723   7.154  17.679  0.00  0.00    +0.000 A 
ATOM     17  C   UNL     1       2.825   8.159  18.062  0.00  0.00    +0.000 A 
BRANCH  15  18
ATOM     18  S   UNL     1       5.038   4.775  18.041  0.00  0.00    +0.000 S 
ATOM     19  O   UNL     1       5.624   5.088  16.756  0.00  0.00    +0.000 OA
ATOM     20  O   UNL     1       5.838   4.518  19.222  0.00  0.00    +0.000 OA
BRANCH  18  21
ATOM     21  N   UNL     1       4.093   3.409  17.805  0.00  0.00    +0.000 NA
ATOM     22  H   UNL     1       4.037   3.204  16.798  0.00  0.00    +0.000 HD
ATOM     23  H   UNL     1       4.456   2.636  18.360  0.00  0.00    +0.000 HD
ENDBRANCH  18  21
ENDBRANCH  15  18
ENDBRANCH   4  12
BRANCH   3  24
ATOM     24  N   UNL     1       0.518   9.548  17.152  0.00  0.00    +0.000 N 
ATOM     25  H   UNL     1       0.020   8.792  16.692  0.00  0.00    +0.000 HD
ATOM     26  H   UNL     1       1.516   9.484  16.964  0.00  0.00    +0.000 HD
ENDBRANCH   3  24
BRANCH   2  27
ATOM     27  C   UNL     1      -1.562  11.183  17.837  0.00  0.00    +0.000 C 
ATOM     28  N   UNL     1      -2.234  11.640  17.011  0.00  0.00    +0.000 NA
ENDBRANCH   2  27
BRANCH   1  29
ATOM     29  C   UNL     1      -1.513  12.393  20.523  0.00  0.00    +0.000 C 
BRANCH  29  32
ATOM     30  C   UNL     1       1.643  14.480  21.086  0.00  0.00    +0.000 A 
ATOM     31  C   UNL     1       0.630  13.521  21.235  0.00  0.00    +0.000 A 
ATOM     32  C   UNL     1      -0.420  13.410  20.313  0.00  0.00    +0.000 A 
ATOM     33  C   UNL     1      -0.468  14.312  19.245  0.00  0.00    +0.000 A 
ATOM     34  C   UNL     1       0.538  15.263  19.075  0.00  0.00    +0.000 A 
ATOM     35  C   UNL     1       1.596  15.341  19.986  0.00  0.00    +0.000 A 
BRANCH  30  37
ATOM     36  C   UNL     1       3.909  14.117  21.752  0.00  0.00    +0.000 C 
ATOM     37  O   UNL     1       2.568  14.430  22.093  0.00  0.00    +0.000 OA
ENDBRANCH  30  37
BRANCH  35  38
ATOM     38  O   UNL     1       2.565  16.281  19.764  0.00  0.00    +0.000 OA
ATOM     39  H   UNL     1       2.188  17.002  19.234  0.00  0.00    +0.000 HD
ENDBRANCH  35  38
ENDBRANCH  29  32
ENDBRANCH   1  29
TORSDOF 9
ENDMDL
MODEL 8
REMARK VINA RESULT:      -5.7      3.017      5.228
REMARK  Name = 
REMARK  10 active torsions:
REMARK  status: ('A' for Active; 'I' for Inactive)
REMARK    1  A    between atoms: C_1  and  O_2
REMARK    2  A    between atoms: O_2  and  C_3
REMARK    3  A    between atoms: C_5  and  C_6
REMARK    4  A    between atoms: C_6  and  C_7
REMARK    5  A    between atoms: C_8  and  C_9
REMARK    6  A    between atoms: C_11  and  N_12
REMARK    7  A    between atoms: N_13  and  C_14
REMARK    8  A    between atoms: C_17  and  S_18
REMARK    9  A    between atoms: S_18  and  N_19
REMARK   10  A    between atoms: C_33  and  O_34
REMARK                            x       y       z     vdW  Elec       q    Type
REMARK                         _______ _______ _______ _____ _____    ______ ____
ROOT
ATOM      1  C   UNL     1      -1.131  10.788  20.270  0.00  0.00    +0.000 C 
ATOM      2  C   UNL     1      -0.745  10.481  18.829  0.00  0.00    +0.000 C 
ATOM      3  C   UNL     1       0.272   9.647  18.477  0.00  0.00    +0.000 C 
ATOM      4  N   UNL     1       1.038   8.971  19.494  0.00  0.00    +0.000 N 
ATOM      5  C   UNL     1       0.802   9.278  20.882  0.00  0.00    +0.000 C 
ATOM      6  C   UNL     1      -0.186  10.132  21.264  0.00  0.00    +0.000 C 
ATOM      7  C   UNL     1      -0.505  10.314  22.724  0.00  0.00    +0.000 C 
ATOM      8  O   UNL     1      -1.416  11.052  23.089  0.00  0.00    +0.000 OA
ATOM      9  C   UNL     1       0.220   9.476  23.742  0.00  0.00    +0.000 C 
ATOM     10  C   UNL     1       1.656   9.288  23.323  0.00  0.00    +0.000 C 
ATOM     11  C   UNL     1       1.696   8.638  21.947  0.00  0.00    +0.000 C 
ENDROOT
BRANCH   4  12
ATOM     12  C   UNL     1       1.962   7.914  19.096  0.00  0.00    +0.000 A 
ATOM     13  C   UNL     1       2.924   8.109  18.080  0.00  0.00    +0.000 A 
ATOM     14  C   UNL     1       3.724   7.060  17.603  0.00  0.00    +0.000 A 
ATOM     15  C   UNL     1       3.665   5.821  18.223  0.00  0.00    +0.000 A 
ATOM     16  C   UNL     1       2.766   5.594  19.261  0.00  0.00    +0.000 A 
ATOM     17  C   UNL     1       1.893   6.620  19.647  0.00  0.00    +0.000 A 
BRANCH  15  18
ATOM     18  S   UNL     1       4.679   4.485  17.639  0.00  0.00    +0.000 S 
ATOM     19  O   UNL     1       3.853   3.321  17.406  0.00  0.00    +0.000 OA
ATOM     20  O   UNL     1       5.599   5.001  16.644  0.00  0.00    +0.000 OA
BRANCH  18  21
ATOM     21  N   UNL     1       5.599   4.144  19.000  0.00  0.00    +0.000 NA
ATOM     22  H   UNL     1       6.313   4.874  19.119  0.00  0.00    +0.000 HD
ATOM     23  H   UNL     1       4.990   4.031  19.809  0.00  0.00    +0.000 HD
ENDBRANCH  18  21
ENDBRANCH  15  18
ENDBRANCH   4  12
BRANCH   3  24
ATOM     24  N   UNL     1       0.509   9.424  17.117  0.00  0.00    +0.000 N 
ATOM     25  H   UNL     1       0.146  10.110  16.462  0.00  0.00    +0.000 HD
ATOM     26  H   UNL     1       0.237   8.484  16.836  0.00  0.00    +0.000 HD
ENDBRANCH   3  24
BRANCH   2  27
ATOM     27  C   UNL     1      -1.575  11.049  17.812  0.00  0.00    +0.000 C 
ATOM     28  N   UNL     1      -2.235  11.491  16.969  0.00  0.00    +0.000 NA
ENDBRANCH   2  27
BRANCH   1  29
ATOM     29  C   UNL     1      -1.492  12.300  20.478  0.00  0.00    +0.000 C 
BRANCH  29  32
ATOM     30  C   UNL     1       1.623  14.440  21.068  0.00  0.00    +0.000 A 
ATOM     31  C   UNL     1       0.615  13.476  21.218  0.00  0.00    +0.000 A 
ATOM     32  C   UNL     1      -0.404  13.323  20.268  0.00  0.00    +0.000 A 
ATOM     33  C   UNL     1      -0.428  14.188  19.170  0.00  0.00    +0.000 A 
ATOM     34  C   UNL     1       0.573  15.144  18.999  0.00  0.00    +0.000 A 
ATOM     35  C   UNL     1       1.601  15.264  19.938  0.00  0.00    +0.000 A 
BRANCH  30  37
ATOM     36  C   UNL     1       3.876  14.154  21.810  0.00  0.00    +0.000 C 
ATOM     37  O   UNL     1       2.517  14.434  22.104  0.00  0.00    +0.000 OA
ENDBRANCH  30  37
BRANCH  35  38
ATOM     38  O   UNL     1       2.567  16.207  19.715  0.00  0.00    +0.000 OA
ATOM     39  H   UNL     1       2.267  16.804  19.010  0.00  0.00    +0.000 HD
ENDBRANCH  35  38
ENDBRANCH  29  32
ENDBRANCH   1  29
TORSDOF 9
ENDMDL
MODEL 9
REMARK VINA RESULT:      -5.6      4.031      6.209
REMARK  Name = 
REMARK  10 active torsions:
REMARK  status: ('A' for Active; 'I' for Inactive)
REMARK    1  A    between atoms: C_1  and  O_2
REMARK    2  A    between atoms: O_2  and  C_3
REMARK    3  A    between atoms: C_5  and  C_6
REMARK    4  A    between atoms: C_6  and  C_7
REMARK    5  A    between atoms: C_8  and  C_9
REMARK    6  A    between atoms: C_11  and  N_12
REMARK    7  A    between atoms: N_13  and  C_14
REMARK    8  A    between atoms: C_17  and  S_18
REMARK    9  A    between atoms: S_18  and  N_19
REMARK   10  A    between atoms: C_33  and  O_34
REMARK                            x       y       z     vdW  Elec       q    Type
REMARK                         _______ _______ _______ _____ _____    ______ ____
ROOT
ATOM      1  C   UNL     1      -3.842  11.999  20.076  0.00  0.00    +0.000 C 
ATOM      2  C   UNL     1      -3.094  11.927  18.752  0.00  0.00    +0.000 C 
ATOM      3  C   UNL     1      -1.904  12.547  18.518  0.00  0.00    +0.000 C 
ATOM      4  N   UNL     1      -1.265  13.303  19.565  0.00  0.00    +0.000 N 
ATOM      5  C   UNL     1      -1.950  13.503  20.817  0.00  0.00    +0.000 C 
ATOM      6  C   UNL     1      -3.155  12.922  21.069  0.00  0.00    +0.000 C 
ATOM      7  C   UNL     1      -3.771  13.025  22.439  0.00  0.00    +0.000 C 
ATOM      8  O   UNL     1      -4.840  12.479  22.698  0.00  0.00    +0.000 OA
ATOM      9  C   UNL     1      -2.999  13.697  23.541  0.00  0.00    +0.000 C 
ATOM     10  C   UNL     1      -2.237  14.876  22.989  0.00  0.00    +0.000 C 
ATOM     11  C   UNL     1      -1.311  14.400  21.880  0.00  0.00    +0.000 C 
ENDROOT
BRANCH   4  12
ATOM     12  C   UNL     1       0.106  13.762  19.367  0.00  0.00    +0.000 A 
ATOM     13  C   UNL     1       1.218  12.966  19.721  0.00  0.00    +0.000 A 
ATOM     14  C   UNL     1       2.532  13.452  19.656  0.00  0.00    +0.000 A 
ATOM     15  C   UNL     1       2.769  14.706  19.113  0.00  0.00    +0.000 A 
ATOM     16  C   UNL     1       1.708  15.510  18.705  0.00  0.00    +0.000 A 
ATOM     17  C   UNL     1       0.395  15.054  18.885  0.00  0.00    +0.000 A 
BRANCH  15  18
ATOM     18  S   UNL     1       4.427  15.333  19.012  0.00  0.00    +0.000 S 
ATOM     19  O   UNL     1       5.058  15.233  20.310  0.00  0.00    +0.000 OA
ATOM     20  O   UNL     1       5.043  14.823  17.803  0.00  0.00    +0.000 OA
BRANCH  18  21
ATOM     21  N   UNL     1       4.152  16.967  18.749  0.00  0.00    +0.000 NA
ATOM     22  H   UNL     1       4.328  17.186  17.760  0.00  0.00    +0.000 HD
ATOM     23  H   UNL     1       3.214  17.214  19.062  0.00  0.00    +0.000 HD
ENDBRANCH  18  21
ENDBRANCH  15  18
ENDBRANCH   4  12
BRANCH   3  24
ATOM     24  N   UNL     1      -1.302  12.380  17.267  0.00  0.00    +0.000 N 
ATOM     25  H   UNL     1      -1.915  12.315  16.460  0.00  0.00    +0.000 HD
ATOM     26  H   UNL     1      -0.633  11.612  17.270  0.00  0.00    +0.000 HD
ENDBRANCH   3  24
BRANCH   2  27
ATOM     27  C   UNL     1      -3.657  11.080  17.747  0.00  0.00    +0.000 C 
ATOM     28  N   UNL     1      -4.088  10.396  16.917  0.00  0.00    +0.000 NA
ENDBRANCH   2  27
BRANCH   1  29
ATOM     29  C   UNL     1      -5.391  12.149  19.875  0.00  0.00    +0.000 C 
BRANCH  29  32
ATOM     30  C   UNL     1      -6.432  15.763  19.175  0.00  0.00    +0.000 A 
ATOM     31  C   UNL     1      -5.937  14.612  19.808  0.00  0.00    +0.000 A 
ATOM     32  C   UNL     1      -5.895  13.373  19.153  0.00  0.00    +0.000 A 
ATOM     33  C   UNL     1      -6.401  13.289  17.852  0.00  0.00    +0.000 A 
ATOM     34  C   UNL     1      -6.884  14.425  17.204  0.00  0.00    +0.000 A 
ATOM     35  C   UNL     1      -6.891  15.660  17.858  0.00  0.00    +0.000 A 
BRANCH  30  37
ATOM     36  C   UNL     1      -7.545  17.163  20.761  0.00  0.00    +0.000 C 
ATOM     37  O   UNL     1      -6.395  16.866  19.984  0.00  0.00    +0.000 OA
ENDBRANCH  30  37
BRANCH  35  38
ATOM     38  O   UNL     1      -7.360  16.747  17.172  0.00  0.00    +0.000 OA
ATOM     39  H   UNL     1      -8.277  16.918  17.443  0.00  0.00    +0.000 HD
ENDBRANCH  35  38
ENDBRANCH  29  32
ENDBRANCH   1  29
TORSDOF 9
ENDMDL
