MODEL 1
REMARK VINA RESULT:      -8.0      0.000      0.000
REMARK  Name = 
REMARK  7 active torsions:
REMARK  status: ('A' for Active; 'I' for Inactive)
REMARK    1  A    between atoms: C_1  and  C_2
REMARK    2  A    between atoms: C_5  and  C_6
REMARK    3  A    between atoms: C_11  and  C_12
REMARK    4  A    between atoms: C_12  and  C_13
REMARK    5  A    between atoms: C_13  and  N_14
REMARK    6  A    between atoms: C_18  and  C_19
REMARK    7  A    between atoms: C_24  and  C_25
REMARK                            x       y       z     vdW  Elec       q    Type
REMARK                         _______ _______ _______ _____ _____    ______ ____
ROOT
ATOM      1  C   UNL     1       0.989   9.648  19.306  0.00  0.00    +0.000 A 
ATOM      2  C   UNL     1       1.684   9.701  18.097  0.00  0.00    +0.000 A 
ATOM      3  C   UNL     1       2.438   8.604  17.699  0.00  0.00    +0.000 A 
ATOM      4  C   UNL     1       2.512   7.486  18.527  0.00  0.00    +0.000 A 
ATOM      5  C   UNL     1       3.272   6.359  18.176  0.00  0.00    +0.000 A 
ATOM      6  C   UNL     1       3.362   5.256  19.037  0.00  0.00    +0.000 A 
ATOM      7  C   UNL     1       2.708   5.319  20.270  0.00  0.00    +0.000 A 
ATOM      8  C   UNL     1       1.935   6.437  20.603  0.00  0.00    +0.000 A 
ATOM      9  C   UNL     1       1.809   7.518  19.744  0.00  0.00    +0.000 A 
ATOM     10  N   UNL     1       1.048   8.559  20.106  0.00  0.00    +0.000 NA
ENDROOT
BRANCH   1  15
ATOM     11  C   UNL     1      -2.321  14.042  21.002  0.00  0.00    +0.000 C 
ATOM     12  C   UNL     1      -1.455  12.881  20.616  0.00  0.00    +0.000 A 
ATOM     13  C   UNL     1      -0.239  12.661  21.229  0.00  0.00    +0.000 A 
ATOM     14  C   UNL     1       0.540  11.595  20.794  0.00  0.00    +0.000 A 
ATOM     15  C   UNL     1       0.110  10.742  19.761  0.00  0.00    +0.000 A 
ATOM     16  C   UNL     1      -1.155  11.026  19.216  0.00  0.00    +0.000 A 
ATOM     17  C   UNL     1      -1.805  10.230  18.119  0.00  0.00    +0.000 C 
ATOM     18  N   UNL     1      -1.921  12.080  19.634  0.00  0.00    +0.000 NA
ENDBRANCH   1  15
BRANCH   6  19
ATOM     19  C   UNL     1       4.231   4.092  18.619  0.00  0.00    +0.000 C 
BRANCH  19  20
ATOM     20  C   UNL     1       5.740   4.389  18.542  0.00  0.00    +0.000 C 
BRANCH  20  21
ATOM     21  N   UNL     1       6.280   4.147  17.204  0.00  0.00    +0.000 NA
ATOM     22  C   UNL     1       5.255   3.904  16.179  0.00  0.00    +0.000 C 
ATOM     23  C   UNL     1       5.485   4.944  15.101  0.00  0.00    +0.000 C 
ATOM     24  C   UNL     1       6.973   5.192  15.192  0.00  0.00    +0.000 C 
ATOM     25  C   UNL     1       7.240   5.148  16.696  0.00  0.00    +0.000 C 
ATOM     26  C   UNL     1       7.161   6.555  17.302  0.00  0.00    +0.000 C 
ENDBRANCH  20  21
ENDBRANCH  19  20
ENDBRANCH   6  19
TORSDOF 4
ENDMDL
MODEL 2
REMARK VINA RESULT:      -8.0      1.624      3.162
REMARK  Name = 
REMARK  7 active torsions:
REMARK  status: ('A' for Active; 'I' for Inactive)
REMARK    1  A    between atoms: C_1  and  C_2
REMARK    2  A    between atoms: C_5  and  C_6
REMARK    3  A    between atoms: C_11  and  C_12
REMARK    4  A    between atoms: C_12  and  C_13
REMARK    5  A    between atoms: C_13  and  N_14
REMARK    6  A    between atoms: C_18  and  C_19
REMARK    7  A    between atoms: C_24  and  C_25
REMARK                            x       y       z     vdW  Elec       q    Type
REMARK                         _______ _______ _______ _____ _____    ______ ____
ROOT
ATOM      1  C   UNL     1       0.494   9.509  20.212  0.00  0.00    +0.000 A 
ATOM      2  C   UNL     1       0.545   8.495  21.170  0.00  0.00    +0.000 A 
ATOM      3  C   UNL     1       1.407   7.423  20.980  0.00  0.00    +0.000 A 
ATOM      4  C   UNL     1       2.181   7.363  19.822  0.00  0.00    +0.000 A 
ATOM      5  C   UNL     1       3.056   6.294  19.577  0.00  0.00    +0.000 A 
ATOM      6  C   UNL     1       3.802   6.233  18.391  0.00  0.00    +0.000 A 
ATOM      7  C   UNL     1       3.627   7.242  17.442  0.00  0.00    +0.000 A 
ATOM      8  C   UNL     1       2.769   8.316  17.704  0.00  0.00    +0.000 A 
ATOM      9  C   UNL     1       2.053   8.405  18.887  0.00  0.00    +0.000 A 
ATOM     10  N   UNL     1       1.253   9.460  19.094  0.00  0.00    +0.000 NA
ENDROOT
BRANCH   1  15
ATOM     11  C   UNL     1      -2.610  14.318  20.821  0.00  0.00    +0.000 C 
ATOM     12  C   UNL     1      -1.817  13.050  20.716  0.00  0.00    +0.000 A 
ATOM     13  C   UNL     1      -0.889  12.707  21.677  0.00  0.00    +0.000 A 
ATOM     14  C   UNL     1      -0.152  11.541  21.500  0.00  0.00    +0.000 A 
ATOM     15  C   UNL     1      -0.341  10.714  20.378  0.00  0.00    +0.000 A 
ATOM     16  C   UNL     1      -1.328  11.130  19.467  0.00  0.00    +0.000 A 
ATOM     17  C   UNL     1      -1.696  10.383  18.215  0.00  0.00    +0.000 C 
ATOM     18  N   UNL     1      -2.049  12.281  19.632  0.00  0.00    +0.000 NA
ENDBRANCH   1  15
BRANCH   6  19
ATOM     19  C   UNL     1       4.694   5.032  18.169  0.00  0.00    +0.000 C 
BRANCH  19  20
ATOM     20  C   UNL     1       4.120   3.945  17.242  0.00  0.00    +0.000 C 
BRANCH  20  21
ATOM     21  N   UNL     1       3.614   2.795  17.991  0.00  0.00    +0.000 NA
ATOM     22  C   UNL     1       4.091   2.727  19.379  0.00  0.00    +0.000 C 
ATOM     23  C   UNL     1       2.850   2.696  20.249  0.00  0.00    +0.000 C 
ATOM     24  C   UNL     1       1.836   2.019  19.354  0.00  0.00    +0.000 C 
ATOM     25  C   UNL     1       2.150   2.598  17.975  0.00  0.00    +0.000 C 
ATOM     26  C   UNL     1       1.286   3.835  17.698  0.00  0.00    +0.000 C 
ENDBRANCH  20  21
ENDBRANCH  19  20
ENDBRANCH   6  19
TORSDOF 4
ENDMDL
MODEL 3
REMARK VINA RESULT:      -7.9      1.512      2.254
REMARK  Name = 
REMARK  7 active torsions:
REMARK  status: ('A' for Active; 'I' for Inactive)
REMARK    1  A    between atoms: C_1  and  C_2
REMARK    2  A    between atoms: C_5  and  C_6
REMARK    3  A    between atoms: C_11  and  C_12
REMARK    4  A    between atoms: C_12  and  C_13
REMARK    5  A    between atoms: C_13  and  N_14
REMARK    6  A    between atoms: C_18  and  C_19
REMARK    7  A    between atoms: C_24  and  C_25
REMARK                            x       y       z     vdW  Elec       q    Type
REMARK                         _______ _______ _______ _____ _____    ______ ____
ROOT
ATOM      1  C   UNL     1       0.969  10.095  20.104  0.00  0.00    +0.000 A 
ATOM      2  C   UNL     1       1.261  10.322  18.758  0.00  0.00    +0.000 A 
ATOM      3  C   UNL     1       1.758   9.280  17.986  0.00  0.00    +0.000 A 
ATOM      4  C   UNL     1       1.987   8.038  18.575  0.00  0.00    +0.000 A 
ATOM      5  C   UNL     1       2.501   6.959  17.841  0.00  0.00    +0.000 A 
ATOM      6  C   UNL     1       2.757   5.726  18.459  0.00  0.00    +0.000 A 
ATOM      7  C   UNL     1       2.523   5.608  19.830  0.00  0.00    +0.000 A 
ATOM      8  C   UNL     1       1.989   6.682  20.551  0.00  0.00    +0.000 A 
ATOM      9  C   UNL     1       1.699   7.894  19.944  0.00  0.00    +0.000 A 
ATOM     10  N   UNL     1       1.178   8.887  20.677  0.00  0.00    +0.000 NA
ENDROOT
BRANCH   1  15
ATOM     11  C   UNL     1      -1.287  14.043  23.635  0.00  0.00    +0.000 C 
ATOM     12  C   UNL     1      -0.753  13.003  22.696  0.00  0.00    +0.000 A 
ATOM     13  C   UNL     1      -1.267  11.723  22.680  0.00  0.00    +0.000 A 
ATOM     14  C   UNL     1      -0.698  10.791  21.819  0.00  0.00    +0.000 A 
ATOM     15  C   UNL     1       0.371  11.129  20.970  0.00  0.00    +0.000 A 
ATOM     16  C   UNL     1       0.810  12.464  21.036  0.00  0.00    +0.000 A 
ATOM     17  C   UNL     1       1.926  13.032  20.203  0.00  0.00    +0.000 C 
ATOM     18  N   UNL     1       0.260  13.382  21.888  0.00  0.00    +0.000 NA
ENDBRANCH   1  15
BRANCH   6  19
ATOM     19  C   UNL     1       3.352   4.617  17.621  0.00  0.00    +0.000 C 
BRANCH  19  20
ATOM     20  C   UNL     1       4.858   4.372  17.823  0.00  0.00    +0.000 C 
BRANCH  20  21
ATOM     21  N   UNL     1       5.573   5.601  18.167  0.00  0.00    +0.000 NA
ATOM     22  C   UNL     1       6.441   5.480  19.346  0.00  0.00    +0.000 C 
ATOM     23  C   UNL     1       7.832   5.871  18.886  0.00  0.00    +0.000 C 
ATOM     24  C   UNL     1       7.547   6.853  17.772  0.00  0.00    +0.000 C 
ATOM     25  C   UNL     1       6.332   6.243  17.074  0.00  0.00    +0.000 C 
ATOM     26  C   UNL     1       6.771   5.343  15.912  0.00  0.00    +0.000 C 
ENDBRANCH  20  21
ENDBRANCH  19  20
ENDBRANCH   6  19
TORSDOF 4
ENDMDL
MODEL 4
REMARK VINA RESULT:      -7.9      1.693      9.102
REMARK  Name = 
REMARK  7 active torsions:
REMARK  status: ('A' for Active; 'I' for Inactive)
REMARK    1  A    between atoms: C_1  and  C_2
REMARK    2  A    between atoms: C_5  and  C_6
REMARK    3  A    between atoms: C_11  and  C_12
REMARK    4  A    between atoms: C_12  and  C_13
REMARK    5  A    between atoms: C_13  and  N_14
REMARK    6  A    between atoms: C_18  and  C_19
REMARK    7  A    between atoms: C_24  and  C_25
REMARK                            x       y       z     vdW  Elec       q    Type
REMARK                         _______ _______ _______ _____ _____    ______ ____
ROOT
ATOM      1  C   UNL     1       4.438   5.826  17.630  0.00  0.00    +0.000 A 
ATOM      2  C   UNL     1       4.320   5.007  18.754  0.00  0.00    +0.000 A 
ATOM      3  C   UNL     1       3.419   5.352  19.754  0.00  0.00    +0.000 A 
ATOM      4  C   UNL     1       2.675   6.524  19.632  0.00  0.00    +0.000 A 
ATOM      5  C   UNL     1       1.764   6.923  20.621  0.00  0.00    +0.000 A 
ATOM      6  C   UNL     1       1.049   8.123  20.497  0.00  0.00    +0.000 A 
ATOM      7  C   UNL     1       1.292   8.931  19.385  0.00  0.00    +0.000 A 
ATOM      8  C   UNL     1       2.186   8.515  18.392  0.00  0.00    +0.000 A 
ATOM      9  C   UNL     1       2.872   7.315  18.486  0.00  0.00    +0.000 A 
ATOM     10  N   UNL     1       3.709   6.957  17.502  0.00  0.00    +0.000 NA
ENDROOT
BRANCH   1  15
ATOM     11  C   UNL     1       7.762   4.622  13.086  0.00  0.00    +0.000 C 
ATOM     12  C   UNL     1       6.887   4.878  14.277  0.00  0.00    +0.000 A 
ATOM     13  C   UNL     1       5.617   4.347  14.358  0.00  0.00    +0.000 A 
ATOM     14  C   UNL     1       4.837   4.659  15.465  0.00  0.00    +0.000 A 
ATOM     15  C   UNL     1       5.318   5.488  16.494  0.00  0.00    +0.000 A 
ATOM     16  C   UNL     1       6.634   5.960  16.339  0.00  0.00    +0.000 A 
ATOM     17  C   UNL     1       7.341   6.844  17.329  0.00  0.00    +0.000 C 
ATOM     18  N   UNL     1       7.402   5.664  15.246  0.00  0.00    +0.000 NA
ENDBRANCH   1  15
BRANCH   6  19
ATOM     19  C   UNL     1       0.114   8.517  21.619  0.00  0.00    +0.000 C 
BRANCH  19  20
ATOM     20  C   UNL     1       0.342   9.922  22.206  0.00  0.00    +0.000 C 
BRANCH  20  21
ATOM     21  N   UNL     1      -0.767  10.829  21.907  0.00  0.00    +0.000 NA
ATOM     22  C   UNL     1      -1.420  11.390  23.097  0.00  0.00    +0.000 C 
ATOM     23  C   UNL     1      -1.337  12.896  22.951  0.00  0.00    +0.000 C 
ATOM     24  C   UNL     1      -1.338  13.084  21.451  0.00  0.00    +0.000 C 
ATOM     25  C   UNL     1      -0.479  11.921  20.955  0.00  0.00    +0.000 C 
ATOM     26  C   UNL     1       0.987  12.352  20.817  0.00  0.00    +0.000 C 
ENDBRANCH  20  21
ENDBRANCH  19  20
ENDBRANCH   6  19
TORSDOF 4
ENDMDL
MODEL 5
REMARK VINA RESULT:      -7.8      0.852      1.551
REMARK  Name = 
REMARK  7 active torsions:
REMARK  status: ('A' for Active; 'I' for Inactive)
REMARK    1  A    between atoms: C_1  and  C_2
REMARK    2  A    between atoms: C_5  and  C_6
REMARK    3  A    between atoms: C_11  and  C_12
REMARK    4  A    between atoms: C_12  and  C_13
REMARK    5  A    between atoms: C_13  and  N_14
REMARK    6  A    between atoms: C_18  and  C_19
REMARK    7  A    between atoms: C_24  and  C_25
REMARK                            x       y       z     vdW  Elec       q    Type
REMARK                         _______ _______ _______ _____ _____    ______ ____
ROOT
ATOM      1  C   UNL     1       0.655   9.752  20.222  0.00  0.00    +0.000 A 
ATOM      2  C   UNL     1       0.493   8.805  21.235  0.00  0.00    +0.000 A 
ATOM      3  C   UNL     1       1.165   7.593  21.145  0.00  0.00    +0.000 A 
ATOM      4  C   UNL     1       1.961   7.330  20.031  0.00  0.00    +0.000 A 
ATOM      5  C   UNL     1       2.647   6.115  19.886  0.00  0.00    +0.000 A 
ATOM      6  C   UNL     1       3.416   5.855  18.743  0.00  0.00    +0.000 A 
ATOM      7  C   UNL     1       3.453   6.819  17.733  0.00  0.00    +0.000 A 
ATOM      8  C   UNL     1       2.784   8.038  17.895  0.00  0.00    +0.000 A 
ATOM      9  C   UNL     1       2.050   8.320  19.036  0.00  0.00    +0.000 A 
ATOM     10  N   UNL     1       1.437   9.506  19.146  0.00  0.00    +0.000 NA
ENDROOT
BRANCH   1  15
ATOM     11  C   UNL     1      -1.614  15.041  20.363  0.00  0.00    +0.000 C 
ATOM     12  C   UNL     1      -1.027  13.661  20.385  0.00  0.00    +0.000 A 
ATOM     13  C   UNL     1       0.053  13.356  21.187  0.00  0.00    +0.000 A 
ATOM     14  C   UNL     1       0.581  12.072  21.128  0.00  0.00    +0.000 A 
ATOM     15  C   UNL     1       0.035  11.089  20.282  0.00  0.00    +0.000 A 
ATOM     16  C   UNL     1      -1.082  11.483  19.523  0.00  0.00    +0.000 A 
ATOM     17  C   UNL     1      -1.822  10.584  18.572  0.00  0.00    +0.000 C 
ATOM     18  N   UNL     1      -1.599  12.749  19.571  0.00  0.00    +0.000 NA
ENDBRANCH   1  15
BRANCH   6  19
ATOM     19  C   UNL     1       4.095   4.509  18.629  0.00  0.00    +0.000 C 
BRANCH  19  20
ATOM     20  C   UNL     1       5.635   4.543  18.636  0.00  0.00    +0.000 C 
BRANCH  20  21
ATOM     21  N   UNL     1       6.198   4.180  17.336  0.00  0.00    +0.000 NA
ATOM     22  C   UNL     1       5.191   3.903  16.303  0.00  0.00    +0.000 C 
ATOM     23  C   UNL     1       5.493   4.848  15.157  0.00  0.00    +0.000 C 
ATOM     24  C   UNL     1       6.988   5.040  15.273  0.00  0.00    +0.000 C 
ATOM     25  C   UNL     1       7.214   5.099  16.783  0.00  0.00    +0.000 C 
ATOM     26  C   UNL     1       7.180   6.549  17.281  0.00  0.00    +0.000 C 
ENDBRANCH  20  21
ENDBRANCH  19  20
ENDBRANCH   6  19
TORSDOF 4
ENDMDL
MODEL 6
REMARK VINA RESULT:      -7.8      1.493      2.206
REMARK  Name = 
REMARK  7 active torsions:
REMARK  status: ('A' for Active; 'I' for Inactive)
REMARK    1  A    between atoms: C_1  and  C_2
REMARK    2  A    between atoms: C_5  and  C_6
REMARK    3  A    between atoms: C_11  and  C_12
REMARK    4  A    between atoms: C_12  and  C_13
REMARK    5  A    between atoms: C_13  and  N_14
REMARK    6  A    between atoms: C_18  and  C_19
REMARK    7  A    between atoms: C_24  and  C_25
REMARK                            x       y       z     vdW  Elec       q    Type
REMARK                         _______ _______ _______ _____ _____    ______ ____
ROOT
ATOM      1  C   UNL     1       0.985  10.019  20.175  0.00  0.00    +0.000 A 
ATOM      2  C   UNL     1       1.267  10.274  18.832  0.00  0.00    +0.000 A 
ATOM      3  C   UNL     1       1.756   9.246  18.035  0.00  0.00    +0.000 A 
ATOM      4  C   UNL     1       1.986   7.992  18.597  0.00  0.00    +0.000 A 
ATOM      5  C   UNL     1       2.493   6.927  17.838  0.00  0.00    +0.000 A 
ATOM      6  C   UNL     1       2.750   5.681  18.428  0.00  0.00    +0.000 A 
ATOM      7  C   UNL     1       2.525   5.535  19.799  0.00  0.00    +0.000 A 
ATOM      8  C   UNL     1       1.999   6.596  20.545  0.00  0.00    +0.000 A 
ATOM      9  C   UNL     1       1.708   7.821  19.965  0.00  0.00    +0.000 A 
ATOM     10  N   UNL     1       1.195   8.800  20.722  0.00  0.00    +0.000 NA
ENDROOT
BRANCH   1  15
ATOM     11  C   UNL     1      -1.456  14.015  23.524  0.00  0.00    +0.000 C 
ATOM     12  C   UNL     1      -0.771  13.006  22.652  0.00  0.00    +0.000 A 
ATOM     13  C   UNL     1      -0.144  13.381  21.482  0.00  0.00    +0.000 A 
ATOM     14  C   UNL     1       0.433  12.393  20.692  0.00  0.00    +0.000 A 
ATOM     15  C   UNL     1       0.396  11.038  21.066  0.00  0.00    +0.000 A 
ATOM     16  C   UNL     1      -0.240  10.754  22.288  0.00  0.00    +0.000 A 
ATOM     17  C   UNL     1      -0.374   9.376  22.875  0.00  0.00    +0.000 C 
ATOM     18  N   UNL     1      -0.818  11.722  23.064  0.00  0.00    +0.000 NA
ENDBRANCH   1  15
BRANCH   6  19
ATOM     19  C   UNL     1       3.336   4.587  17.564  0.00  0.00    +0.000 C 
BRANCH  19  20
ATOM     20  C   UNL     1       4.852   4.368  17.714  0.00  0.00    +0.000 C 
BRANCH  20  21
ATOM     21  N   UNL     1       5.549   5.597  18.095  0.00  0.00    +0.000 NA
ATOM     22  C   UNL     1       6.385   5.464  19.296  0.00  0.00    +0.000 C 
ATOM     23  C   UNL     1       7.785   5.870  18.882  0.00  0.00    +0.000 C 
ATOM     24  C   UNL     1       7.526   6.866  17.774  0.00  0.00    +0.000 C 
ATOM     25  C   UNL     1       6.335   6.259  17.034  0.00  0.00    +0.000 C 
ATOM     26  C   UNL     1       6.811   5.378  15.872  0.00  0.00    +0.000 C 
ENDBRANCH  20  21
ENDBRANCH  19  20
ENDBRANCH   6  19
TORSDOF 4
ENDMDL
MODEL 7
REMARK VINA RESULT:      -7.8      1.747      3.396
REMARK  Name = 
REMARK  7 active torsions:
REMARK  status: ('A' for Active; 'I' for Inactive)
REMARK    1  A    between atoms: C_1  and  C_2
REMARK    2  A    between atoms: C_5  and  C_6
REMARK    3  A    between atoms: C_11  and  C_12
REMARK    4  A    between atoms: C_12  and  C_13
REMARK    5  A    between atoms: C_13  and  N_14
REMARK    6  A    between atoms: C_18  and  C_19
REMARK    7  A    between atoms: C_24  and  C_25
REMARK                            x       y       z     vdW  Elec       q    Type
REMARK                         _______ _______ _______ _____ _____    ______ ____
ROOT
ATOM      1  C   UNL     1       0.409   9.434  20.290  0.00  0.00    +0.000 A 
ATOM      2  C   UNL     1       0.494   8.418  21.244  0.00  0.00    +0.000 A 
ATOM      3  C   UNL     1       1.388   7.374  21.046  0.00  0.00    +0.000 A 
ATOM      4  C   UNL     1       2.159   7.341  19.885  0.00  0.00    +0.000 A 
ATOM      5  C   UNL     1       3.065   6.301  19.632  0.00  0.00    +0.000 A 
ATOM      6  C   UNL     1       3.808   6.267  18.443  0.00  0.00    +0.000 A 
ATOM      7  C   UNL     1       3.598   7.274  17.499  0.00  0.00    +0.000 A 
ATOM      8  C   UNL     1       2.709   8.321  17.768  0.00  0.00    +0.000 A 
ATOM      9  C   UNL     1       1.995   8.384  18.955  0.00  0.00    +0.000 A 
ATOM     10  N   UNL     1       1.165   9.413  19.169  0.00  0.00    +0.000 NA
ENDROOT
BRANCH   1  15
ATOM     11  C   UNL     1      -3.133  13.931  20.896  0.00  0.00    +0.000 C 
ATOM     12  C   UNL     1      -2.175  12.793  20.706  0.00  0.00    +0.000 A 
ATOM     13  C   UNL     1      -1.745  12.423  19.449  0.00  0.00    +0.000 A 
ATOM     14  C   UNL     1      -0.893  11.330  19.335  0.00  0.00    +0.000 A 
ATOM     15  C   UNL     1      -0.461  10.613  20.465  0.00  0.00    +0.000 A 
ATOM     16  C   UNL     1      -0.929  11.080  21.706  0.00  0.00    +0.000 A 
ATOM     17  C   UNL     1      -0.574  10.467  23.032  0.00  0.00    +0.000 C 
ATOM     18  N   UNL     1      -1.775  12.149  21.823  0.00  0.00    +0.000 NA
ENDBRANCH   1  15
BRANCH   6  19
ATOM     19  C   UNL     1       4.735   5.095  18.212  0.00  0.00    +0.000 C 
BRANCH  19  20
ATOM     20  C   UNL     1       4.217   4.026  17.232  0.00  0.00    +0.000 C 
BRANCH  20  21
ATOM     21  N   UNL     1       3.714   2.841  17.928  0.00  0.00    +0.000 NA
ATOM     22  C   UNL     1       4.170   2.724  19.320  0.00  0.00    +0.000 C 
ATOM     23  C   UNL     1       2.916   2.643  20.168  0.00  0.00    +0.000 C 
ATOM     24  C   UNL     1       1.925   1.990  19.231  0.00  0.00    +0.000 C 
ATOM     25  C   UNL     1       2.253   2.626  17.881  0.00  0.00    +0.000 C 
ATOM     26  C   UNL     1       1.378   3.863  17.638  0.00  0.00    +0.000 C 
ENDBRANCH  20  21
ENDBRANCH  19  20
ENDBRANCH   6  19
TORSDOF 4
ENDMDL
MODEL 8
REMARK VINA RESULT:      -7.7      2.066      9.494
REMARK  Name = 
REMARK  7 active torsions:
REMARK  status: ('A' for Active; 'I' for Inactive)
REMARK    1  A    between atoms: C_1  and  C_2
REMARK    2  A    between atoms: C_5  and  C_6
REMARK    3  A    between atoms: C_11  and  C_12
REMARK    4  A    between atoms: C_12  and  C_13
REMARK    5  A    between atoms: C_13  and  N_14
REMARK    6  A    between atoms: C_18  and  C_19
REMARK    7  A    between atoms: C_24  and  C_25
REMARK                            x       y       z     vdW  Elec       q    Type
REMARK                         _______ _______ _______ _____ _____    ______ ____
ROOT
ATOM      1  C   UNL     1       2.266   7.806  18.508  0.00  0.00    +0.000 A 
ATOM      2  C   UNL     1       1.613   8.824  17.811  0.00  0.00    +0.000 A 
ATOM      3  C   UNL     1       0.844   9.742  18.515  0.00  0.00    +0.000 A 
ATOM      4  C   UNL     1       0.711   9.611  19.896  0.00  0.00    +0.000 A 
ATOM      5  C   UNL     1      -0.067  10.504  20.648  0.00  0.00    +0.000 A 
ATOM      6  C   UNL     1      -0.217  10.337  22.032  0.00  0.00    +0.000 A 
ATOM      7  C   UNL     1       0.396   9.239  22.640  0.00  0.00    +0.000 A 
ATOM      8  C   UNL     1       1.188   8.366  21.886  0.00  0.00    +0.000 A 
ATOM      9  C   UNL     1       1.372   8.541  20.524  0.00  0.00    +0.000 A 
ATOM     10  N   UNL     1       2.150   7.683  19.850  0.00  0.00    +0.000 NA
ENDROOT
BRANCH   1  15
ATOM     11  C   UNL     1       5.879   4.060  16.049  0.00  0.00    +0.000 C 
ATOM     12  C   UNL     1       4.937   5.065  16.639  0.00  0.00    +0.000 A 
ATOM     13  C   UNL     1       5.208   6.417  16.584  0.00  0.00    +0.000 A 
ATOM     14  C   UNL     1       4.318   7.296  17.191  0.00  0.00    +0.000 A 
ATOM     15  C   UNL     1       3.159   6.838  17.842  0.00  0.00    +0.000 A 
ATOM     16  C   UNL     1       2.952   5.447  17.823  0.00  0.00    +0.000 A 
ATOM     17  C   UNL     1       1.770   4.756  18.445  0.00  0.00    +0.000 C 
ATOM     18  N   UNL     1       3.829   4.577  17.236  0.00  0.00    +0.000 NA
ENDBRANCH   1  15
BRANCH   6  19
ATOM     19  C   UNL     1      -1.104  11.308  22.778  0.00  0.00    +0.000 C 
BRANCH  19  20
ATOM     20  C   UNL     1      -1.115  12.747  22.230  0.00  0.00    +0.000 C 
BRANCH  20  21
ATOM     21  N   UNL     1      -2.418  13.390  22.403  0.00  0.00    +0.000 NA
ATOM     22  C   UNL     1      -3.477  12.484  22.868  0.00  0.00    +0.000 C 
ATOM     23  C   UNL     1      -4.018  13.091  24.147  0.00  0.00    +0.000 C 
ATOM     24  C   UNL     1      -3.792  14.570  23.932  0.00  0.00    +0.000 C 
ATOM     25  C   UNL     1      -2.437  14.616  23.227  0.00  0.00    +0.000 C 
ATOM     26  C   UNL     1      -1.303  14.785  24.246  0.00  0.00    +0.000 C 
ENDBRANCH  20  21
ENDBRANCH  19  20
ENDBRANCH   6  19
TORSDOF 4
ENDMDL
MODEL 9
REMARK VINA RESULT:      -7.7      2.456      4.557
REMARK  Name = 
REMARK  7 active torsions:
REMARK  status: ('A' for Active; 'I' for Inactive)
REMARK    1  A    between atoms: C_1  and  C_2
REMARK    2  A    between atoms: C_5  and  C_6
REMARK    3  A    between atoms: C_11  and  C_12
REMARK    4  A    between atoms: C_12  and  C_13
REMARK    5  A    between atoms: C_13  and  N_14
REMARK    6  A    between atoms: C_18  and  C_19
REMARK    7  A    between atoms: C_24  and  C_25
REMARK                            x       y       z     vdW  Elec       q    Type
REMARK                         _______ _______ _______ _____ _____    ______ ____
ROOT
ATOM      1  C   UNL     1      -0.940  11.317  22.252  0.00  0.00    +0.000 A 
ATOM      2  C   UNL     1      -0.477  10.246  23.018  0.00  0.00    +0.000 A 
ATOM      3  C   UNL     1       0.328   9.283  22.422  0.00  0.00    +0.000 A 
ATOM      4  C   UNL     1       0.631   9.385  21.066  0.00  0.00    +0.000 A 
ATOM      5  C   UNL     1       1.427   8.431  20.415  0.00  0.00    +0.000 A 
ATOM      6  C   UNL     1       1.694   8.532  19.042  0.00  0.00    +0.000 A 
ATOM      7  C   UNL     1       1.118   9.585  18.329  0.00  0.00    +0.000 A 
ATOM      8  C   UNL     1       0.343  10.546  18.989  0.00  0.00    +0.000 A 
ATOM      9  C   UNL     1       0.102  10.476  20.352  0.00  0.00    +0.000 A 
ATOM     10  N   UNL     1      -0.638  11.427  20.938  0.00  0.00    +0.000 NA
ENDROOT
BRANCH   1  15
ATOM     11  C   UNL     1      -4.015  15.535  24.678  0.00  0.00    +0.000 C 
ATOM     12  C   UNL     1      -3.261  14.422  24.015  0.00  0.00    +0.000 A 
ATOM     13  C   UNL     1      -3.762  13.137  23.987  0.00  0.00    +0.000 A 
ATOM     14  C   UNL     1      -2.994  12.139  23.397  0.00  0.00    +0.000 A 
ATOM     15  C   UNL     1      -1.737  12.416  22.829  0.00  0.00    +0.000 A 
ATOM     16  C   UNL     1      -1.323  13.759  22.879  0.00  0.00    +0.000 A 
ATOM     17  C   UNL     1      -0.024  14.268  22.317  0.00  0.00    +0.000 C 
ATOM     18  N   UNL     1      -2.070  14.742  23.467  0.00  0.00    +0.000 NA
ENDBRANCH   1  15
BRANCH   6  19
ATOM     19  C   UNL     1       2.523   7.447  18.393  0.00  0.00    +0.000 C 
BRANCH  19  20
ATOM     20  C   UNL     1       2.400   6.051  19.030  0.00  0.00    +0.000 C 
BRANCH  20  21
ATOM     21  N   UNL     1       2.323   4.993  18.023  0.00  0.00    +0.000 NA
ATOM     22  C   UNL     1       3.631   4.540  17.529  0.00  0.00    +0.000 C 
ATOM     23  C   UNL     1       3.683   3.047  17.786  0.00  0.00    +0.000 C 
ATOM     24  C   UNL     1       2.228   2.646  17.702  0.00  0.00    +0.000 C 
ATOM     25  C   UNL     1       1.507   3.813  18.375  0.00  0.00    +0.000 C 
ATOM     26  C   UNL     1       1.301   3.533  19.869  0.00  0.00    +0.000 C 
ENDBRANCH  20  21
ENDBRANCH  19  20
ENDBRANCH   6  19
TORSDOF 4
ENDMDL
