MODEL 1
REMARK VINA RESULT:      -6.8      0.000      0.000
REMARK  Name = 
REMARK  11 active torsions:
REMARK  status: ('A' for Active; 'I' for Inactive)
REMARK    1  A    between atoms: C_2  and  C_3
REMARK    2  A    between atoms: C_6  and  O_7
REMARK    3  A    between atoms: O_7  and  C_8
REMARK    4  A    between atoms: C_8  and  C_9
REMARK    5  A    between atoms: C_9  and  C_10
REMARK    6  A    between atoms: C_10  and  C_11
REMARK    7  A    between atoms: C_11  and  C_12
REMARK    8  A    between atoms: C_12  and  C_13
REMARK    9  A    between atoms: C_13  and  O_14
REMARK   10  A    between atoms: O_14  and  C_15
REMARK   11  A    between atoms: C_18  and  C_19
REMARK                            x       y       z     vdW  Elec       q    Type
REMARK                         _______ _______ _______ _____ _____    ______ ____
ROOT
ATOM      1  C   UNL     1       1.224   3.188  21.247  0.00  0.00    +0.000 C 
ENDROOT
BRANCH   1   2
ATOM      2  C   UNL     1       1.152   4.374  20.286  0.00  0.00    +0.000 C 
BRANCH   2   3
ATOM      3  C   UNL     1       1.909   5.576  20.844  0.00  0.00    +0.000 C 
BRANCH   3   4
ATOM      4  O   UNL     1       2.520   6.299  19.779  0.00  0.00    +0.000 OA
BRANCH   4   8
ATOM      5  C   UNL     1       1.137  10.137  18.961  0.00  0.00    +0.000 A 
ATOM      6  C   UNL     1       1.776   9.368  17.986  0.00  0.00    +0.000 A 
ATOM      7  C   UNL     1       2.216   8.083  18.302  0.00  0.00    +0.000 A 
ATOM      8  C   UNL     1       2.034   7.566  19.588  0.00  0.00    +0.000 A 
ATOM      9  C   UNL     1       1.372   8.336  20.551  0.00  0.00    +0.000 A 
ATOM     10  C   UNL     1       0.932   9.627  20.244  0.00  0.00    +0.000 A 
BRANCH   5  12
ATOM     11  O   UNL     1       0.956  12.453  19.356  0.00  0.00    +0.000 OA
ATOM     12  C   UNL     1       0.669  11.502  18.649  0.00  0.00    +0.000 C 
ENDBRANCH   5  12
ENDBRANCH   4   8
ENDBRANCH   3   4
ENDBRANCH   2   3
ENDBRANCH   1   2
BRANCH   1  13
ATOM     13  C   UNL     1       2.570   2.466  21.172  0.00  0.00    +0.000 C 
BRANCH  13  14
ATOM     14  C   UNL     1       3.132   2.431  19.754  0.00  0.00    +0.000 C 
BRANCH  14  15
ATOM     15  C   UNL     1       4.649   2.577  19.766  0.00  0.00    +0.000 C 
BRANCH  15  16
ATOM     16  O   UNL     1       5.003   3.936  19.516  0.00  0.00    +0.000 OA
BRANCH  16  17
ATOM     17  C   UNL     1       5.531   4.156  18.272  0.00  0.00    +0.000 A 
ATOM     18  C   UNL     1       4.692   3.884  17.191  0.00  0.00    +0.000 A 
ATOM     19  C   UNL     1       5.141   4.067  15.881  0.00  0.00    +0.000 A 
ATOM     20  C   UNL     1       6.430   4.552  15.652  0.00  0.00    +0.000 A 
ATOM     21  C   UNL     1       7.278   4.825  16.725  0.00  0.00    +0.000 A 
ATOM     22  C   UNL     1       6.829   4.620  18.030  0.00  0.00    +0.000 A 
BRANCH  20  23
ATOM     23  C   UNL     1       6.912   4.777  14.271  0.00  0.00    +0.000 C 
ATOM     24  O   UNL     1       7.851   5.509  14.025  0.00  0.00    +0.000 OA
ENDBRANCH  20  23
ENDBRANCH  16  17
ENDBRANCH  15  16
ENDBRANCH  14  15
ENDBRANCH  13  14
ENDBRANCH   1  13
TORSDOF 11
ENDMDL
MODEL 2
REMARK VINA RESULT:      -6.7      1.518      6.473
REMARK  Name = 
REMARK  11 active torsions:
REMARK  status: ('A' for Active; 'I' for Inactive)
REMARK    1  A    between atoms: C_2  and  C_3
REMARK    2  A    between atoms: C_6  and  O_7
REMARK    3  A    between atoms: O_7  and  C_8
REMARK    4  A    between atoms: C_8  and  C_9
REMARK    5  A    between atoms: C_9  and  C_10
REMARK    6  A    between atoms: C_10  and  C_11
REMARK    7  A    between atoms: C_11  and  C_12
REMARK    8  A    between atoms: C_12  and  C_13
REMARK    9  A    between atoms: C_13  and  O_14
REMARK   10  A    between atoms: O_14  and  C_15
REMARK   11  A    between atoms: C_18  and  C_19
REMARK                            x       y       z     vdW  Elec       q    Type
REMARK                         _______ _______ _______ _____ _____    ______ ____
ROOT
ATOM      1  C   UNL     1       0.575   3.467  19.381  0.00  0.00    +0.000 C 
ENDROOT
BRANCH   1   2
ATOM      2  C   UNL     1       1.130   2.383  18.457  0.00  0.00    +0.000 C 
BRANCH   2   3
ATOM      3  C   UNL     1       2.423   1.796  19.018  0.00  0.00    +0.000 C 
BRANCH   3   4
ATOM      4  O   UNL     1       3.442   1.836  18.023  0.00  0.00    +0.000 OA
BRANCH   4   8
ATOM      5  C   UNL     1       5.675   5.335  17.745  0.00  0.00    +0.000 A 
ATOM      6  C   UNL     1       4.962   4.837  16.654  0.00  0.00    +0.000 A 
ATOM      7  C   UNL     1       4.220   3.665  16.794  0.00  0.00    +0.000 A 
ATOM      8  C   UNL     1       4.196   2.981  18.013  0.00  0.00    +0.000 A 
ATOM      9  C   UNL     1       4.897   3.500  19.107  0.00  0.00    +0.000 A 
ATOM     10  C   UNL     1       5.647   4.673  18.973  0.00  0.00    +0.000 A 
BRANCH   5  12
ATOM     11  O   UNL     1       6.276   7.367  16.711  0.00  0.00    +0.000 OA
ATOM     12  C   UNL     1       6.472   6.572  17.615  0.00  0.00    +0.000 C 
ENDBRANCH   5  12
ENDBRANCH   4   8
ENDBRANCH   3   4
ENDBRANCH   2   3
ENDBRANCH   1   2
BRANCH   1  13
ATOM     13  C   UNL     1       1.355   3.560  20.693  0.00  0.00    +0.000 C 
BRANCH  13  14
ATOM     14  C   UNL     1       2.094   4.887  20.837  0.00  0.00    +0.000 C 
BRANCH  14  15
ATOM     15  C   UNL     1       2.112   5.645  19.516  0.00  0.00    +0.000 C 
BRANCH  15  16
ATOM     16  O   UNL     1       2.798   6.885  19.682  0.00  0.00    +0.000 OA
BRANCH  16  17
ATOM     17  C   UNL     1       2.006   7.989  19.512  0.00  0.00    +0.000 A 
ATOM     18  C   UNL     1       2.047   8.587  18.252  0.00  0.00    +0.000 A 
ATOM     19  C   UNL     1       1.282   9.724  17.981  0.00  0.00    +0.000 A 
ATOM     20  C   UNL     1       0.450  10.251  18.971  0.00  0.00    +0.000 A 
ATOM     21  C   UNL     1       0.404   9.663  20.235  0.00  0.00    +0.000 A 
ATOM     22  C   UNL     1       1.186   8.538  20.503  0.00  0.00    +0.000 A 
BRANCH  20  23
ATOM     23  C   UNL     1      -0.387  11.439  18.692  0.00  0.00    +0.000 C 
ATOM     24  O   UNL     1       0.086  12.554  18.594  0.00  0.00    +0.000 OA
ENDBRANCH  20  23
ENDBRANCH  16  17
ENDBRANCH  15  16
ENDBRANCH  14  15
ENDBRANCH  13  14
ENDBRANCH   1  13
TORSDOF 11
ENDMDL
MODEL 3
REMARK VINA RESULT:      -6.7      1.479      2.422
REMARK  Name = 
REMARK  11 active torsions:
REMARK  status: ('A' for Active; 'I' for Inactive)
REMARK    1  A    between atoms: C_2  and  C_3
REMARK    2  A    between atoms: C_6  and  O_7
REMARK    3  A    between atoms: O_7  and  C_8
REMARK    4  A    between atoms: C_8  and  C_9
REMARK    5  A    between atoms: C_9  and  C_10
REMARK    6  A    between atoms: C_10  and  C_11
REMARK    7  A    between atoms: C_11  and  C_12
REMARK    8  A    between atoms: C_12  and  C_13
REMARK    9  A    between atoms: C_13  and  O_14
REMARK   10  A    between atoms: O_14  and  C_15
REMARK   11  A    between atoms: C_18  and  C_19
REMARK                            x       y       z     vdW  Elec       q    Type
REMARK                         _______ _______ _______ _____ _____    ______ ____
ROOT
ATOM      1  C   UNL     1       1.785   5.049  20.237  0.00  0.00    +0.000 C 
ENDROOT
BRANCH   1   2
ATOM      2  C   UNL     1       1.910   5.656  18.841  0.00  0.00    +0.000 C 
BRANCH   2   3
ATOM      3  C   UNL     1       2.628   7.003  18.893  0.00  0.00    +0.000 C 
BRANCH   3   4
ATOM      4  O   UNL     1       2.245   7.709  20.070  0.00  0.00    +0.000 OA
BRANCH   4   8
ATOM      5  C   UNL     1      -0.545  10.772  19.692  0.00  0.00    +0.000 A 
ATOM      6  C   UNL     1      -0.379  10.080  20.893  0.00  0.00    +0.000 A 
ATOM      7  C   UNL     1       0.574   9.066  20.977  0.00  0.00    +0.000 A 
ATOM      8  C   UNL     1       1.354   8.730  19.867  0.00  0.00    +0.000 A 
ATOM      9  C   UNL     1       1.196   9.444  18.674  0.00  0.00    +0.000 A 
ATOM     10  C   UNL     1       0.239  10.460  18.580  0.00  0.00    +0.000 A 
BRANCH   5  12
ATOM     11  O   UNL     1      -1.239  13.024  19.628  0.00  0.00    +0.000 OA
ATOM     12  C   UNL     1      -1.553  11.845  19.581  0.00  0.00    +0.000 C 
ENDBRANCH   5  12
ENDBRANCH   4   8
ENDBRANCH   3   4
ENDBRANCH   2   3
ENDBRANCH   1   2
BRANCH   1  13
ATOM     13  C   UNL     1       0.838   3.848  20.261  0.00  0.00    +0.000 C 
BRANCH  13  14
ATOM     14  C   UNL     1       1.571   2.537  20.525  0.00  0.00    +0.000 C 
BRANCH  14  15
ATOM     15  C   UNL     1       3.019   2.793  20.925  0.00  0.00    +0.000 C 
BRANCH  15  16
ATOM     16  O   UNL     1       3.894   2.177  19.981  0.00  0.00    +0.000 OA
BRANCH  16  17
ATOM     17  C   UNL     1       4.276   3.000  18.955  0.00  0.00    +0.000 A 
ATOM     18  C   UNL     1       5.159   4.028  19.287  0.00  0.00    +0.000 A 
ATOM     19  C   UNL     1       5.601   4.925  18.312  0.00  0.00    +0.000 A 
ATOM     20  C   UNL     1       5.177   4.777  16.990  0.00  0.00    +0.000 A 
ATOM     21  C   UNL     1       4.291   3.755  16.648  0.00  0.00    +0.000 A 
ATOM     22  C   UNL     1       3.839   2.874  17.632  0.00  0.00    +0.000 A 
BRANCH  20  23
ATOM     23  C   UNL     1       5.656   5.704  15.941  0.00  0.00    +0.000 C 
ATOM     24  O   UNL     1       5.945   6.859  16.182  0.00  0.00    +0.000 OA
ENDBRANCH  20  23
ENDBRANCH  16  17
ENDBRANCH  15  16
ENDBRANCH  14  15
ENDBRANCH  13  14
ENDBRANCH   1  13
TORSDOF 11
ENDMDL
MODEL 4
REMARK VINA RESULT:      -6.7      1.770      6.329
REMARK  Name = 
REMARK  11 active torsions:
REMARK  status: ('A' for Active; 'I' for Inactive)
REMARK    1  A    between atoms: C_2  and  C_3
REMARK    2  A    between atoms: C_6  and  O_7
REMARK    3  A    between atoms: O_7  and  C_8
REMARK    4  A    between atoms: C_8  and  C_9
REMARK    5  A    between atoms: C_9  and  C_10
REMARK    6  A    between atoms: C_10  and  C_11
REMARK    7  A    between atoms: C_11  and  C_12
REMARK    8  A    between atoms: C_12  and  C_13
REMARK    9  A    between atoms: C_13  and  O_14
REMARK   10  A    between atoms: O_14  and  C_15
REMARK   11  A    between atoms: C_18  and  C_19
REMARK                            x       y       z     vdW  Elec       q    Type
REMARK                         _______ _______ _______ _____ _____    ______ ____
ROOT
ATOM      1  C   UNL     1       3.175   2.169  19.167  0.00  0.00    +0.000 C 
ENDROOT
BRANCH   1   2
ATOM      2  C   UNL     1       2.591   2.298  17.761  0.00  0.00    +0.000 C 
BRANCH   2   3
ATOM      3  C   UNL     1       3.007   3.618  17.115  0.00  0.00    +0.000 C 
BRANCH   3   4
ATOM      4  O   UNL     1       4.341   3.516  16.626  0.00  0.00    +0.000 OA
BRANCH   4   8
ATOM      5  C   UNL     1       6.819   6.759  17.436  0.00  0.00    +0.000 A 
ATOM      6  C   UNL     1       6.965   5.544  18.108  0.00  0.00    +0.000 A 
ATOM      7  C   UNL     1       6.117   4.481  17.798  0.00  0.00    +0.000 A 
ATOM      8  C   UNL     1       5.118   4.627  16.832  0.00  0.00    +0.000 A 
ATOM      9  C   UNL     1       4.994   5.842  16.149  0.00  0.00    +0.000 A 
ATOM     10  C   UNL     1       5.837   6.915  16.457  0.00  0.00    +0.000 A 
BRANCH   5  12
ATOM     11  O   UNL     1       8.518   7.843  18.658  0.00  0.00    +0.000 OA
ATOM     12  C   UNL     1       7.702   7.899  17.753  0.00  0.00    +0.000 C 
ENDBRANCH   5  12
ENDBRANCH   4   8
ENDBRANCH   3   4
ENDBRANCH   2   3
ENDBRANCH   1   2
BRANCH   1  13
ATOM     13  C   UNL     1       3.174   3.503  19.916  0.00  0.00    +0.000 C 
BRANCH  13  14
ATOM     14  C   UNL     1       1.796   3.856  20.469  0.00  0.00    +0.000 C 
BRANCH  14  15
ATOM     15  C   UNL     1       1.703   5.343  20.788  0.00  0.00    +0.000 C 
BRANCH  15  16
ATOM     16  O   UNL     1       2.646   6.065  19.997  0.00  0.00    +0.000 OA
BRANCH  16  17
ATOM     17  C   UNL     1       2.207   7.298  19.591  0.00  0.00    +0.000 A 
ATOM     18  C   UNL     1       1.468   8.024  20.525  0.00  0.00    +0.000 A 
ATOM     19  C   UNL     1       0.968   9.289  20.205  0.00  0.00    +0.000 A 
ATOM     20  C   UNL     1       1.233   9.841  18.950  0.00  0.00    +0.000 A 
ATOM     21  C   UNL     1       1.968   9.121  18.008  0.00  0.00    +0.000 A 
ATOM     22  C   UNL     1       2.448   7.851  18.329  0.00  0.00    +0.000 A 
BRANCH  20  23
ATOM     23  C   UNL     1       0.733  11.190  18.604  0.00  0.00    +0.000 C 
ATOM     24  O   UNL     1       0.055  11.844  19.371  0.00  0.00    +0.000 OA
ENDBRANCH  20  23
ENDBRANCH  16  17
ENDBRANCH  15  16
ENDBRANCH  14  15
ENDBRANCH  13  14
ENDBRANCH   1  13
TORSDOF 11
ENDMDL
MODEL 5
REMARK VINA RESULT:      -6.6      1.558      1.934
REMARK  Name = 
REMARK  11 active torsions:
REMARK  status: ('A' for Active; 'I' for Inactive)
REMARK    1  A    between atoms: C_2  and  C_3
REMARK    2  A    between atoms: C_6  and  O_7
REMARK    3  A    between atoms: O_7  and  C_8
REMARK    4  A    between atoms: C_8  and  C_9
REMARK    5  A    between atoms: C_9  and  C_10
REMARK    6  A    between atoms: C_10  and  C_11
REMARK    7  A    between atoms: C_11  and  C_12
REMARK    8  A    between atoms: C_12  and  C_13
REMARK    9  A    between atoms: C_13  and  O_14
REMARK   10  A    between atoms: O_14  and  C_15
REMARK   11  A    between atoms: C_18  and  C_19
REMARK                            x       y       z     vdW  Elec       q    Type
REMARK                         _______ _______ _______ _____ _____    ______ ____
ROOT
ATOM      1  C   UNL     1       1.438   3.356  20.959  0.00  0.00    +0.000 C 
ENDROOT
BRANCH   1   2
ATOM      2  C   UNL     1       2.286   4.616  21.130  0.00  0.00    +0.000 C 
BRANCH   2   3
ATOM      3  C   UNL     1       1.471   5.869  20.819  0.00  0.00    +0.000 C 
BRANCH   3   4
ATOM      4  O   UNL     1       2.336   6.907  20.365  0.00  0.00    +0.000 OA
BRANCH   4   8
ATOM      5  C   UNL     1       0.518  10.431  19.106  0.00  0.00    +0.000 A 
ATOM      6  C   UNL     1       1.232   9.622  18.221  0.00  0.00    +0.000 A 
ATOM      7  C   UNL     1       1.818   8.445  18.685  0.00  0.00    +0.000 A 
ATOM      8  C   UNL     1       1.707   8.077  20.029  0.00  0.00    +0.000 A 
ATOM      9  C   UNL     1       0.970   8.884  20.903  0.00  0.00    +0.000 A 
ATOM     10  C   UNL     1       0.383  10.068  20.447  0.00  0.00    +0.000 A 
BRANCH   5  12
ATOM     11  O   UNL     1      -1.225  12.014  18.993  0.00  0.00    +0.000 OA
ATOM     12  C   UNL     1      -0.106  11.684  18.636  0.00  0.00    +0.000 C 
ENDBRANCH   5  12
ENDBRANCH   4   8
ENDBRANCH   3   4
ENDBRANCH   2   3
ENDBRANCH   1   2
BRANCH   1  13
ATOM     13  C   UNL     1       0.799   3.275  19.572  0.00  0.00    +0.000 C 
BRANCH  13  14
ATOM     14  C   UNL     1       1.334   2.104  18.753  0.00  0.00    +0.000 C 
BRANCH  14  15
ATOM     15  C   UNL     1       2.819   2.279  18.460  0.00  0.00    +0.000 C 
BRANCH  15  16
ATOM     16  O   UNL     1       2.992   2.797  17.143  0.00  0.00    +0.000 OA
BRANCH  16  17
ATOM     17  C   UNL     1       3.906   3.814  17.058  0.00  0.00    +0.000 A 
ATOM     18  C   UNL     1       3.639   4.946  17.829  0.00  0.00    +0.000 A 
ATOM     19  C   UNL     1       4.507   6.041  17.805  0.00  0.00    +0.000 A 
ATOM     20  C   UNL     1       5.662   5.992  17.023  0.00  0.00    +0.000 A 
ATOM     21  C   UNL     1       5.936   4.866  16.245  0.00  0.00    +0.000 A 
ATOM     22  C   UNL     1       5.054   3.785  16.260  0.00  0.00    +0.000 A 
BRANCH  20  23
ATOM     23  C   UNL     1       6.605   7.132  17.006  0.00  0.00    +0.000 C 
ATOM     24  O   UNL     1       7.775   6.999  16.707  0.00  0.00    +0.000 OA
ENDBRANCH  20  23
ENDBRANCH  16  17
ENDBRANCH  15  16
ENDBRANCH  14  15
ENDBRANCH  13  14
ENDBRANCH   1  13
TORSDOF 11
ENDMDL
MODEL 6
REMARK VINA RESULT:      -6.6      5.715      7.608
REMARK  Name = 
REMARK  11 active torsions:
REMARK  status: ('A' for Active; 'I' for Inactive)
REMARK    1  A    between atoms: C_2  and  C_3
REMARK    2  A    between atoms: C_6  and  O_7
REMARK    3  A    between atoms: O_7  and  C_8
REMARK    4  A    between atoms: C_8  and  C_9
REMARK    5  A    between atoms: C_9  and  C_10
REMARK    6  A    between atoms: C_10  and  C_11
REMARK    7  A    between atoms: C_11  and  C_12
REMARK    8  A    between atoms: C_12  and  C_13
REMARK    9  A    between atoms: C_13  and  O_14
REMARK   10  A    between atoms: O_14  and  C_15
REMARK   11  A    between atoms: C_18  and  C_19
REMARK                            x       y       z     vdW  Elec       q    Type
REMARK                         _______ _______ _______ _____ _____    ______ ____
ROOT
ATOM      1  C   UNL     1       6.473   5.935  17.419  0.00  0.00    +0.000 C 
ENDROOT
BRANCH   1   2
ATOM      2  C   UNL     1       4.990   5.793  17.760  0.00  0.00    +0.000 C 
BRANCH   2   3
ATOM      3  C   UNL     1       4.241   7.096  17.493  0.00  0.00    +0.000 C 
BRANCH   3   4
ATOM      4  O   UNL     1       2.839   6.885  17.634  0.00  0.00    +0.000 OA
BRANCH   4   8
ATOM      5  C   UNL     1       1.694   3.840  20.229  0.00  0.00    +0.000 A 
ATOM      6  C   UNL     1       1.575   3.703  18.845  0.00  0.00    +0.000 A 
ATOM      7  C   UNL     1       1.979   4.746  18.012  0.00  0.00    +0.000 A 
ATOM      8  C   UNL     1       2.489   5.930  18.553  0.00  0.00    +0.000 A 
ATOM      9  C   UNL     1       2.624   6.049  19.940  0.00  0.00    +0.000 A 
ATOM     10  C   UNL     1       2.217   5.010  20.783  0.00  0.00    +0.000 A 
BRANCH   5  12
ATOM     11  O   UNL     1       1.686   2.663  22.271  0.00  0.00    +0.000 OA
ATOM     12  C   UNL     1       1.266   2.750  21.128  0.00  0.00    +0.000 C 
ENDBRANCH   5  12
ENDBRANCH   4   8
ENDBRANCH   3   4
ENDBRANCH   2   3
ENDBRANCH   1   2
BRANCH   1  13
ATOM     13  C   UNL     1       6.901   7.399  17.305  0.00  0.00    +0.000 C 
BRANCH  13  14
ATOM     14  C   UNL     1       8.042   7.745  18.258  0.00  0.00    +0.000 C 
BRANCH  14  15
ATOM     15  C   UNL     1       8.381   9.229  18.183  0.00  0.00    +0.000 C 
BRANCH  15  16
ATOM     16  O   UNL     1       9.080   9.622  19.362  0.00  0.00    +0.000 OA
BRANCH  16  17
ATOM     17  C   UNL     1       9.780  10.793  19.232  0.00  0.00    +0.000 A 
ATOM     18  C   UNL     1       9.935  11.275  17.932  0.00  0.00    +0.000 A 
ATOM     19  C   UNL     1      10.640  12.457  17.694  0.00  0.00    +0.000 A 
ATOM     20  C   UNL     1      11.171  13.176  18.767  0.00  0.00    +0.000 A 
ATOM     21  C   UNL     1      11.024  12.701  20.070  0.00  0.00    +0.000 A 
ATOM     22  C   UNL     1      10.334  11.509  20.298  0.00  0.00    +0.000 A 
BRANCH  20  23
ATOM     23  C   UNL     1      11.898  14.444  18.534  0.00  0.00    +0.000 C 
ATOM     24  O   UNL     1      12.331  14.748  17.440  0.00  0.00    +0.000 OA
ENDBRANCH  20  23
ENDBRANCH  16  17
ENDBRANCH  15  16
ENDBRANCH  14  15
ENDBRANCH  13  14
ENDBRANCH   1  13
TORSDOF 11
ENDMDL
MODEL 7
REMARK VINA RESULT:      -6.6      2.113      4.779
REMARK  Name = 
REMARK  11 active torsions:
REMARK  status: ('A' for Active; 'I' for Inactive)
REMARK    1  A    between atoms: C_2  and  C_3
REMARK    2  A    between atoms: C_6  and  O_7
REMARK    3  A    between atoms: O_7  and  C_8
REMARK    4  A    between atoms: C_8  and  C_9
REMARK    5  A    between atoms: C_9  and  C_10
REMARK    6  A    between atoms: C_10  and  C_11
REMARK    7  A    between atoms: C_11  and  C_12
REMARK    8  A    between atoms: C_12  and  C_13
REMARK    9  A    between atoms: C_13  and  O_14
REMARK   10  A    between atoms: O_14  and  C_15
REMARK   11  A    between atoms: C_18  and  C_19
REMARK                            x       y       z     vdW  Elec       q    Type
REMARK                         _______ _______ _______ _____ _____    ______ ____
ROOT
ATOM      1  C   UNL     1       5.617   6.834  17.043  0.00  0.00    +0.000 C 
ENDROOT
BRANCH   1   2
ATOM      2  C   UNL     1       4.652   7.659  17.893  0.00  0.00    +0.000 C 
BRANCH   2   3
ATOM      3  C   UNL     1       3.217   7.163  17.729  0.00  0.00    +0.000 C 
BRANCH   3   4
ATOM      4  O   UNL     1       2.334   8.274  17.599  0.00  0.00    +0.000 OA
BRANCH   4   8
ATOM      5  C   UNL     1       0.609   9.284  21.249  0.00  0.00    +0.000 A 
ATOM      6  C   UNL     1       1.308   8.087  21.078  0.00  0.00    +0.000 A 
ATOM      7  C   UNL     1       1.877   7.793  19.839  0.00  0.00    +0.000 A 
ATOM      8  C   UNL     1       1.743   8.680  18.767  0.00  0.00    +0.000 A 
ATOM      9  C   UNL     1       1.060   9.887  18.955  0.00  0.00    +0.000 A 
ATOM     10  C   UNL     1       0.482  10.187  20.192  0.00  0.00    +0.000 A 
BRANCH   5  12
ATOM     11  O   UNL     1       0.642   9.601  23.584  0.00  0.00    +0.000 OA
ATOM     12  C   UNL     1      -0.006   9.611  22.551  0.00  0.00    +0.000 C 
ENDBRANCH   5  12
ENDBRANCH   4   8
ENDBRANCH   3   4
ENDBRANCH   2   3
ENDBRANCH   1   2
BRANCH   1  13
ATOM     13  C   UNL     1       5.037   6.507  15.666  0.00  0.00    +0.000 C 
BRANCH  13  14
ATOM     14  C   UNL     1       5.619   5.224  15.081  0.00  0.00    +0.000 C 
BRANCH  14  15
ATOM     15  C   UNL     1       6.061   4.273  16.187  0.00  0.00    +0.000 C 
BRANCH  15  16
ATOM     16  O   UNL     1       5.087   3.245  16.355  0.00  0.00    +0.000 OA
BRANCH  16  17
ATOM     17  C   UNL     1       4.210   3.469  17.384  0.00  0.00    +0.000 A 
ATOM     18  C   UNL     1       2.855   3.456  17.050  0.00  0.00    +0.000 A 
ATOM     19  C   UNL     1       1.883   3.683  18.026  0.00  0.00    +0.000 A 
ATOM     20  C   UNL     1       2.268   3.898  19.351  0.00  0.00    +0.000 A 
ATOM     21  C   UNL     1       3.619   3.917  19.695  0.00  0.00    +0.000 A 
ATOM     22  C   UNL     1       4.586   3.708  18.709  0.00  0.00    +0.000 A 
BRANCH  20  23
ATOM     23  C   UNL     1       1.248   4.114  20.402  0.00  0.00    +0.000 C 
ATOM     24  O   UNL     1       1.083   3.327  21.313  0.00  0.00    +0.000 OA
ENDBRANCH  20  23
ENDBRANCH  16  17
ENDBRANCH  15  16
ENDBRANCH  14  15
ENDBRANCH  13  14
ENDBRANCH   1  13
TORSDOF 11
ENDMDL
MODEL 8
REMARK VINA RESULT:      -6.5      0.599      6.943
REMARK  Name = 
REMARK  11 active torsions:
REMARK  status: ('A' for Active; 'I' for Inactive)
REMARK    1  A    between atoms: C_2  and  C_3
REMARK    2  A    between atoms: C_6  and  O_7
REMARK    3  A    between atoms: O_7  and  C_8
REMARK    4  A    between atoms: C_8  and  C_9
REMARK    5  A    between atoms: C_9  and  C_10
REMARK    6  A    between atoms: C_10  and  C_11
REMARK    7  A    between atoms: C_11  and  C_12
REMARK    8  A    between atoms: C_12  and  C_13
REMARK    9  A    between atoms: C_13  and  O_14
REMARK   10  A    between atoms: O_14  and  C_15
REMARK   11  A    between atoms: C_18  and  C_19
REMARK                            x       y       z     vdW  Elec       q    Type
REMARK                         _______ _______ _______ _____ _____    ______ ____
ROOT
ATOM      1  C   UNL     1       2.501   2.381  21.192  0.00  0.00    +0.000 C 
ENDROOT
BRANCH   1   2
ATOM      2  C   UNL     1       3.998   2.304  20.895  0.00  0.00    +0.000 C 
BRANCH   2   3
ATOM      3  C   UNL     1       4.289   2.701  19.450  0.00  0.00    +0.000 C 
BRANCH   3   4
ATOM      4  O   UNL     1       5.248   3.755  19.424  0.00  0.00    +0.000 OA
BRANCH   4   8
ATOM      5  C   UNL     1       6.563   4.545  15.556  0.00  0.00    +0.000 A 
ATOM      6  C   UNL     1       5.293   4.019  15.802  0.00  0.00    +0.000 A 
ATOM      7  C   UNL     1       4.891   3.778  17.115  0.00  0.00    +0.000 A 
ATOM      8  C   UNL     1       5.752   4.046  18.183  0.00  0.00    +0.000 A 
ATOM      9  C   UNL     1       7.014   4.594  17.927  0.00  0.00    +0.000 A 
ATOM     10  C   UNL     1       7.427   4.834  16.613  0.00  0.00    +0.000 A 
BRANCH   5  12
ATOM     11  O   UNL     1       7.909   5.590  13.928  0.00  0.00    +0.000 OA
ATOM     12  C   UNL     1       7.010   4.802  14.173  0.00  0.00    +0.000 C 
ENDBRANCH   5  12
ENDBRANCH   4   8
ENDBRANCH   3   4
ENDBRANCH   2   3
ENDBRANCH   1   2
BRANCH   1  13
ATOM     13  C   UNL     1       1.693   2.830  19.973  0.00  0.00    +0.000 C 
BRANCH  13  14
ATOM     14  C   UNL     1       1.188   4.263  20.107  0.00  0.00    +0.000 C 
BRANCH  14  15
ATOM     15  C   UNL     1       1.988   5.208  19.220  0.00  0.00    +0.000 C 
BRANCH  15  16
ATOM     16  O   UNL     1       2.497   6.287  20.002  0.00  0.00    +0.000 OA
BRANCH  16  17
ATOM     17  C   UNL     1       2.009   7.515  19.643  0.00  0.00    +0.000 A 
ATOM     18  C   UNL     1       1.372   8.241  20.651  0.00  0.00    +0.000 A 
ATOM     19  C   UNL     1       0.832   9.501  20.383  0.00  0.00    +0.000 A 
ATOM     20  C   UNL     1       0.954  10.050  19.105  0.00  0.00    +0.000 A 
ATOM     21  C   UNL     1       1.586   9.332  18.090  0.00  0.00    +0.000 A 
ATOM     22  C   UNL     1       2.106   8.065  18.361  0.00  0.00    +0.000 A 
BRANCH  20  23
ATOM     23  C   UNL     1       0.411  11.395  18.812  0.00  0.00    +0.000 C 
ATOM     24  O   UNL     1      -0.066  12.102  19.678  0.00  0.00    +0.000 OA
ENDBRANCH  20  23
ENDBRANCH  16  17
ENDBRANCH  15  16
ENDBRANCH  14  15
ENDBRANCH  13  14
ENDBRANCH   1  13
TORSDOF 11
ENDMDL
MODEL 9
REMARK VINA RESULT:      -6.5      1.891      7.566
REMARK  Name = 
REMARK  11 active torsions:
REMARK  status: ('A' for Active; 'I' for Inactive)
REMARK    1  A    between atoms: C_2  and  C_3
REMARK    2  A    between atoms: C_6  and  O_7
REMARK    3  A    between atoms: O_7  and  C_8
REMARK    4  A    between atoms: C_8  and  C_9
REMARK    5  A    between atoms: C_9  and  C_10
REMARK    6  A    between atoms: C_10  and  C_11
REMARK    7  A    between atoms: C_11  and  C_12
REMARK    8  A    between atoms: C_12  and  C_13
REMARK    9  A    between atoms: C_13  and  O_14
REMARK   10  A    between atoms: O_14  and  C_15
REMARK   11  A    between atoms: C_18  and  C_19
REMARK                            x       y       z     vdW  Elec       q    Type
REMARK                         _______ _______ _______ _____ _____    ______ ____
ROOT
ATOM      1  C   UNL     1       5.801   6.343  16.551  0.00  0.00    +0.000 C 
ENDROOT
BRANCH   1   2
ATOM      2  C   UNL     1       5.598   5.206  15.551  0.00  0.00    +0.000 C 
BRANCH   2   3
ATOM      3  C   UNL     1       5.328   3.887  16.270  0.00  0.00    +0.000 C 
BRANCH   3   4
ATOM      4  O   UNL     1       3.926   3.635  16.306  0.00  0.00    +0.000 OA
BRANCH   4   8
ATOM      5  C   UNL     1       2.121   3.046  20.008  0.00  0.00    +0.000 A 
ATOM      6  C   UNL     1       1.365   3.238  18.850  0.00  0.00    +0.000 A 
ATOM      7  C   UNL     1       2.012   3.423  17.629  0.00  0.00    +0.000 A 
ATOM      8  C   UNL     1       3.408   3.431  17.559  0.00  0.00    +0.000 A 
ATOM      9  C   UNL     1       4.156   3.215  18.722  0.00  0.00    +0.000 A 
ATOM     10  C   UNL     1       3.515   3.033  19.951  0.00  0.00    +0.000 A 
BRANCH   5  12
ATOM     11  O   UNL     1       2.036   3.067  22.364  0.00  0.00    +0.000 OA
ATOM     12  C   UNL     1       1.455   2.854  21.312  0.00  0.00    +0.000 C 
ENDBRANCH   5  12
ENDBRANCH   4   8
ENDBRANCH   3   4
ENDBRANCH   2   3
ENDBRANCH   1   2
BRANCH   1  13
ATOM     13  C   UNL     1       4.505   7.106  16.829  0.00  0.00    +0.000 C 
BRANCH  13  14
ATOM     14  C   UNL     1       4.047   6.965  18.277  0.00  0.00    +0.000 C 
BRANCH  14  15
ATOM     15  C   UNL     1       2.526   6.935  18.367  0.00  0.00    +0.000 C 
BRANCH  15  16
ATOM     16  O   UNL     1       2.126   6.905  19.736  0.00  0.00    +0.000 OA
BRANCH  16  17
ATOM     17  C   UNL     1       1.609   8.088  20.193  0.00  0.00    +0.000 A 
ATOM     18  C   UNL     1       1.345   9.058  19.224  0.00  0.00    +0.000 A 
ATOM     19  C   UNL     1       0.826  10.302  19.590  0.00  0.00    +0.000 A 
ATOM     20  C   UNL     1       0.544  10.568  20.932  0.00  0.00    +0.000 A 
ATOM     21  C   UNL     1       0.807   9.607  21.908  0.00  0.00    +0.000 A 
ATOM     22  C   UNL     1       1.344   8.373  21.536  0.00  0.00    +0.000 A 
BRANCH  20  23
ATOM     23  C   UNL     1      -0.031  11.871  21.333  0.00  0.00    +0.000 C 
ATOM     24  O   UNL     1       0.664  12.799  21.699  0.00  0.00    +0.000 OA
ENDBRANCH  20  23
ENDBRANCH  16  17
ENDBRANCH  15  16
ENDBRANCH  14  15
ENDBRANCH  13  14
ENDBRANCH   1  13
TORSDOF 11
ENDMDL
