MODEL 1
REMARK VINA RESULT:      -9.2      0.000      0.000
REMARK  Name = 
REMARK  5 active torsions:
REMARK  status: ('A' for Active; 'I' for Inactive)
REMARK    1  A    between atoms: C_11  and  C_12
REMARK    2  A    between atoms: C_11  and  C_26
REMARK    3  A    between atoms: C_12  and  N_13
REMARK    4  A    between atoms: C_14  and  C_16
REMARK    5  A    between atoms: C_19  and  C_20
REMARK                            x       y       z     vdW  Elec       q    Type
REMARK                         _______ _______ _______ _____ _____    ______ ____
ROOT
ATOM      1  O   UNL     1       7.960   5.829  18.921  0.00  0.00    +0.000 OA
ATOM      2  C   UNL     1       6.803   5.497  18.705  0.00  0.00    +0.000 C 
ATOM      3  N   UNL     1       6.230   4.441  19.348  0.00  0.00    +0.000 N 
ATOM      4  C   UNL     1       4.914   4.033  19.182  0.00  0.00    +0.000 A 
ATOM      5  C   UNL     1       4.380   3.062  20.030  0.00  0.00    +0.000 A 
ATOM      6  C   UNL     1       3.076   2.609  19.822  0.00  0.00    +0.000 A 
ATOM      7  C   UNL     1       2.331   3.116  18.761  0.00  0.00    +0.000 A 
ATOM      8 CL   UNL     1       0.749   2.511  18.466  0.00  0.00    +0.000 Cl
ATOM      9  C   UNL     1       2.867   4.098  17.925  0.00  0.00    +0.000 A 
ATOM     10  C   UNL     1       4.167   4.583  18.144  0.00  0.00    +0.000 A 
ATOM     11  C   UNL     1       4.836   5.606  17.242  0.00  0.00    +0.000 C 
ATOM     12  O   UNL     1       5.989   6.224  17.906  0.00  0.00    +0.000 OA
ATOM     13  H   UNL     1       6.823   3.992  20.035  0.00  0.00    +0.000 HD
ENDROOT
BRANCH  11  14
ATOM     14  C   UNL     1       5.309   4.969  15.904  0.00  0.00    +0.000 C 
ATOM     15  F   UNL     1       4.468   4.009  15.450  0.00  0.00    +0.000 F 
ATOM     16  F   UNL     1       5.420   5.887  14.913  0.00  0.00    +0.000 F 
ATOM     17  F   UNL     1       6.525   4.384  16.027  0.00  0.00    +0.000 F 
ENDBRANCH  11  14
BRANCH  11  18
ATOM     18  C   UNL     1       3.919   6.816  16.922  0.00  0.00    +0.000 C 
BRANCH  18  19
ATOM     19  N   UNL     1       3.186   7.308  18.093  0.00  0.00    +0.000 N 
ATOM     20  C   UNL     1       2.403   8.443  18.054  0.00  0.00    +0.000 C 
ATOM     21  O   UNL     1       2.271   9.128  17.047  0.00  0.00    +0.000 OA
ATOM     22  H   UNL     1       3.164   6.704  18.905  0.00  0.00    +0.000 HD
BRANCH  20  23
ATOM     23  C   UNL     1       1.656   8.776  19.299  0.00  0.00    +0.000 A 
ATOM     24  C   UNL     1       0.831   9.904  19.389  0.00  0.00    +0.000 A 
ATOM     25  C   UNL     1       0.198  10.215  20.598  0.00  0.00    +0.000 A 
ATOM     26  C   UNL     1       0.371   9.402  21.729  0.00  0.00    +0.000 A 
ATOM     27  C   UNL     1       1.161   8.247  21.617  0.00  0.00    +0.000 A 
ATOM     28  C   UNL     1       1.796   7.935  20.408  0.00  0.00    +0.000 A 
BRANCH  26  29
ATOM     29  C   UNL     1      -0.269   9.757  23.050  0.00  0.00    +0.000 C 
ATOM     30  F   UNL     1       0.501   9.442  24.128  0.00  0.00    +0.000 F 
ATOM     31  F   UNL     1      -0.546  11.084  23.162  0.00  0.00    +0.000 F 
ATOM     32  F   UNL     1      -1.453   9.110  23.239  0.00  0.00    +0.000 F 
ENDBRANCH  26  29
ENDBRANCH  20  23
ENDBRANCH  18  19
ENDBRANCH  11  18
TORSDOF 5
ENDMDL
MODEL 2
REMARK VINA RESULT:      -9.2      3.918      6.525
REMARK  Name = 
REMARK  5 active torsions:
REMARK  status: ('A' for Active; 'I' for Inactive)
REMARK    1  A    between atoms: C_11  and  C_12
REMARK    2  A    between atoms: C_11  and  C_26
REMARK    3  A    between atoms: C_12  and  N_13
REMARK    4  A    between atoms: C_14  and  C_16
REMARK    5  A    between atoms: C_19  and  C_20
REMARK                            x       y       z     vdW  Elec       q    Type
REMARK                         _______ _______ _______ _____ _____    ______ ____
ROOT
ATOM      1  O   UNL     1       2.166   2.185  22.326  0.00  0.00    +0.000 OA
ATOM      2  C   UNL     1       2.393   2.995  21.439  0.00  0.00    +0.000 C 
ATOM      3  N   UNL     1       1.902   4.266  21.487  0.00  0.00    +0.000 N 
ATOM      4  C   UNL     1       2.151   5.246  20.538  0.00  0.00    +0.000 A 
ATOM      5  C   UNL     1       1.756   6.562  20.784  0.00  0.00    +0.000 A 
ATOM      6  C   UNL     1       1.953   7.535  19.804  0.00  0.00    +0.000 A 
ATOM      7  C   UNL     1       2.522   7.179  18.584  0.00  0.00    +0.000 A 
ATOM      8 CL   UNL     1       2.703   8.364  17.351  0.00  0.00    +0.000 Cl
ATOM      9  C   UNL     1       2.927   5.864  18.349  0.00  0.00    +0.000 A 
ATOM     10  C   UNL     1       2.762   4.883  19.342  0.00  0.00    +0.000 A 
ATOM     11  C   UNL     1       3.126   3.422  19.136  0.00  0.00    +0.000 C 
ATOM     12  O   UNL     1       3.238   2.718  20.419  0.00  0.00    +0.000 OA
ATOM     13  H   UNL     1       1.378   4.484  22.326  0.00  0.00    +0.000 HD
ENDROOT
BRANCH  11  14
ATOM     14  C   UNL     1       2.078   2.689  18.251  0.00  0.00    +0.000 C 
ATOM     15  F   UNL     1       1.951   1.377  18.561  0.00  0.00    +0.000 F 
ATOM     16  F   UNL     1       0.843   3.236  18.363  0.00  0.00    +0.000 F 
ATOM     17  F   UNL     1       2.405   2.740  16.937  0.00  0.00    +0.000 F 
ENDBRANCH  11  14
BRANCH  11  18
ATOM     18  C   UNL     1       4.531   3.236  18.504  0.00  0.00    +0.000 C 
BRANCH  18  19
ATOM     19  N   UNL     1       5.377   4.427  18.620  0.00  0.00    +0.000 N 
ATOM     20  C   UNL     1       6.207   4.848  17.603  0.00  0.00    +0.000 C 
ATOM     21  O   UNL     1       6.307   4.256  16.535  0.00  0.00    +0.000 OA
ATOM     22  H   UNL     1       5.229   5.015  19.431  0.00  0.00    +0.000 HD
BRANCH  20  23
ATOM     23  C   UNL     1       6.947   6.120  17.834  0.00  0.00    +0.000 A 
ATOM     24  C   UNL     1       7.899   6.249  18.852  0.00  0.00    +0.000 A 
ATOM     25  C   UNL     1       8.525   7.481  19.076  0.00  0.00    +0.000 A 
ATOM     26  C   UNL     1       8.216   8.597  18.283  0.00  0.00    +0.000 A 
ATOM     27  C   UNL     1       7.297   8.447  17.233  0.00  0.00    +0.000 A 
ATOM     28  C   UNL     1       6.669   7.215  17.009  0.00  0.00    +0.000 A 
BRANCH  26  29
ATOM     29  C   UNL     1       8.851   9.941  18.548  0.00  0.00    +0.000 C 
ATOM     30  F   UNL     1       8.925  10.256  19.872  0.00  0.00    +0.000 F 
ATOM     31  F   UNL     1      10.123  10.026  18.072  0.00  0.00    +0.000 F 
ATOM     32  F   UNL     1       8.163  10.961  17.963  0.00  0.00    +0.000 F 
ENDBRANCH  26  29
ENDBRANCH  20  23
ENDBRANCH  18  19
ENDBRANCH  11  18
TORSDOF 5
ENDMDL
MODEL 3
REMARK VINA RESULT:      -9.2      3.875      6.496
REMARK  Name = 
REMARK  5 active torsions:
REMARK  status: ('A' for Active; 'I' for Inactive)
REMARK    1  A    between atoms: C_11  and  C_12
REMARK    2  A    between atoms: C_11  and  C_26
REMARK    3  A    between atoms: C_12  and  N_13
REMARK    4  A    between atoms: C_14  and  C_16
REMARK    5  A    between atoms: C_19  and  C_20
REMARK                            x       y       z     vdW  Elec       q    Type
REMARK                         _______ _______ _______ _____ _____    ______ ____
ROOT
ATOM      1  O   UNL     1       2.735   2.185  21.950  0.00  0.00    +0.000 OA
ATOM      2  C   UNL     1       2.812   3.087  21.129  0.00  0.00    +0.000 C 
ATOM      3  N   UNL     1       2.186   4.283  21.320  0.00  0.00    +0.000 N 
ATOM      4  C   UNL     1       2.261   5.362  20.451  0.00  0.00    +0.000 A 
ATOM      5  C   UNL     1       1.738   6.598  20.837  0.00  0.00    +0.000 A 
ATOM      6  C   UNL     1       1.760   7.666  19.940  0.00  0.00    +0.000 A 
ATOM      7  C   UNL     1       2.284   7.482  18.663  0.00  0.00    +0.000 A 
ATOM      8 CL   UNL     1       2.251   8.779  17.534  0.00  0.00    +0.000 Cl
ATOM      9  C   UNL     1       2.818   6.248  18.287  0.00  0.00    +0.000 A 
ATOM     10  C   UNL     1       2.829   5.174  19.194  0.00  0.00    +0.000 A 
ATOM     11  C   UNL     1       3.339   3.789  18.837  0.00  0.00    +0.000 C 
ATOM     12  O   UNL     1       3.613   2.998  20.042  0.00  0.00    +0.000 OA
ATOM     13  H   UNL     1       1.697   4.368  22.202  0.00  0.00    +0.000 HD
ENDROOT
BRANCH  11  14
ATOM     14  C   UNL     1       2.324   3.015  17.948  0.00  0.00    +0.000 C 
ATOM     15  F   UNL     1       1.037   3.353  18.201  0.00  0.00    +0.000 F 
ATOM     16  F   UNL     1       2.531   3.235  16.627  0.00  0.00    +0.000 F 
ATOM     17  F   UNL     1       2.411   1.675  18.135  0.00  0.00    +0.000 F 
ENDBRANCH  11  14
BRANCH  11  18
ATOM     18  C   UNL     1       4.712   3.822  18.114  0.00  0.00    +0.000 C 
BRANCH  18  19
ATOM     19  N   UNL     1       5.400   5.110  18.244  0.00  0.00    +0.000 N 
ATOM     20  C   UNL     1       6.731   5.275  17.923  0.00  0.00    +0.000 C 
ATOM     21  O   UNL     1       7.437   4.360  17.517  0.00  0.00    +0.000 OA
ATOM     22  H   UNL     1       4.825   5.916  18.451  0.00  0.00    +0.000 HD
BRANCH  20  23
ATOM     23  C   UNL     1       7.273   6.658  18.030  0.00  0.00    +0.000 A 
ATOM     24  C   UNL     1       6.811   7.701  17.219  0.00  0.00    +0.000 A 
ATOM     25  C   UNL     1       7.394   8.970  17.308  0.00  0.00    +0.000 A 
ATOM     26  C   UNL     1       8.438   9.219  18.213  0.00  0.00    +0.000 A 
ATOM     27  C   UNL     1       8.862   8.180  19.057  0.00  0.00    +0.000 A 
ATOM     28  C   UNL     1       8.281   6.909  18.968  0.00  0.00    +0.000 A 
BRANCH  26  29
ATOM     29  C   UNL     1       9.104  10.572  18.283  0.00  0.00    +0.000 C 
ATOM     30  F   UNL     1      10.235  10.660  17.528  0.00  0.00    +0.000 F 
ATOM     31  F   UNL     1       8.294  11.580  17.861  0.00  0.00    +0.000 F 
ATOM     32  F   UNL     1       9.478  10.898  19.551  0.00  0.00    +0.000 F 
ENDBRANCH  26  29
ENDBRANCH  20  23
ENDBRANCH  18  19
ENDBRANCH  11  18
TORSDOF 5
ENDMDL
MODEL 4
REMARK VINA RESULT:      -9.0      0.435      1.092
REMARK  Name = 
REMARK  5 active torsions:
REMARK  status: ('A' for Active; 'I' for Inactive)
REMARK    1  A    between atoms: C_11  and  C_12
REMARK    2  A    between atoms: C_11  and  C_26
REMARK    3  A    between atoms: C_12  and  N_13
REMARK    4  A    between atoms: C_14  and  C_16
REMARK    5  A    between atoms: C_19  and  C_20
REMARK                            x       y       z     vdW  Elec       q    Type
REMARK                         _______ _______ _______ _____ _____    ______ ____
ROOT
ATOM      1  O   UNL     1       7.965   5.433  19.117  0.00  0.00    +0.000 OA
ATOM      2  C   UNL     1       6.809   5.145  18.845  0.00  0.00    +0.000 C 
ATOM      3  N   UNL     1       6.169   4.106  19.453  0.00  0.00    +0.000 N 
ATOM      4  C   UNL     1       4.849   3.746  19.222  0.00  0.00    +0.000 A 
ATOM      5  C   UNL     1       4.241   2.789  20.036  0.00  0.00    +0.000 A 
ATOM      6  C   UNL     1       2.934   2.385  19.766  0.00  0.00    +0.000 A 
ATOM      7  C   UNL     1       2.256   2.926  18.676  0.00  0.00    +0.000 A 
ATOM      8 CL   UNL     1       0.669   2.379  18.303  0.00  0.00    +0.000 Cl
ATOM      9  C   UNL     1       2.865   3.893  17.873  0.00  0.00    +0.000 A 
ATOM     10  C   UNL     1       4.171   4.330  18.156  0.00  0.00    +0.000 A 
ATOM     11  C   UNL     1       4.916   5.334  17.294  0.00  0.00    +0.000 C 
ATOM     12  O   UNL     1       6.059   5.907  18.015  0.00  0.00    +0.000 OA
ATOM     13  H   UNL     1       6.713   3.632  20.162  0.00  0.00    +0.000 HD
ENDROOT
BRANCH  11  14
ATOM     14  C   UNL     1       5.428   4.690  15.974  0.00  0.00    +0.000 C 
ATOM     15  F   UNL     1       6.536   5.296  15.486  0.00  0.00    +0.000 F 
ATOM     16  F   UNL     1       5.739   3.381  16.132  0.00  0.00    +0.000 F 
ATOM     17  F   UNL     1       4.496   4.749  14.991  0.00  0.00    +0.000 F 
ENDBRANCH  11  14
BRANCH  11  18
ATOM     18  C   UNL     1       4.058   6.579  16.942  0.00  0.00    +0.000 C 
BRANCH  18  19
ATOM     19  N   UNL     1       3.310   7.103  18.088  0.00  0.00    +0.000 N 
ATOM     20  C   UNL     1       2.558   8.258  18.017  0.00  0.00    +0.000 C 
ATOM     21  O   UNL     1       2.469   8.933  16.998  0.00  0.00    +0.000 OA
ATOM     22  H   UNL     1       3.251   6.510  18.906  0.00  0.00    +0.000 HD
BRANCH  20  23
ATOM     23  C   UNL     1       1.789   8.626  19.238  0.00  0.00    +0.000 A 
ATOM     24  C   UNL     1       1.039   9.805  19.314  0.00  0.00    +0.000 A 
ATOM     25  C   UNL     1       0.383  10.144  20.503  0.00  0.00    +0.000 A 
ATOM     26  C   UNL     1       0.460   9.308  21.628  0.00  0.00    +0.000 A 
ATOM     27  C   UNL     1       1.173   8.103  21.528  0.00  0.00    +0.000 A 
ATOM     28  C   UNL     1       1.831   7.764  20.339  0.00  0.00    +0.000 A 
BRANCH  26  29
ATOM     29  C   UNL     1      -0.205   9.689  22.930  0.00  0.00    +0.000 C 
ATOM     30  F   UNL     1      -0.565  11.002  22.992  0.00  0.00    +0.000 F 
ATOM     31  F   UNL     1      -1.340   8.978  23.170  0.00  0.00    +0.000 F 
ATOM     32  F   UNL     1       0.605   9.476  24.004  0.00  0.00    +0.000 F 
ENDBRANCH  26  29
ENDBRANCH  20  23
ENDBRANCH  18  19
ENDBRANCH  11  18
TORSDOF 5
ENDMDL
MODEL 5
REMARK VINA RESULT:      -8.9      3.851      6.618
REMARK  Name = 
REMARK  5 active torsions:
REMARK  status: ('A' for Active; 'I' for Inactive)
REMARK    1  A    between atoms: C_11  and  C_12
REMARK    2  A    between atoms: C_11  and  C_26
REMARK    3  A    between atoms: C_12  and  N_13
REMARK    4  A    between atoms: C_14  and  C_16
REMARK    5  A    between atoms: C_19  and  C_20
REMARK                            x       y       z     vdW  Elec       q    Type
REMARK                         _______ _______ _______ _____ _____    ______ ____
ROOT
ATOM      1  O   UNL     1       2.677   2.759  21.949  0.00  0.00    +0.000 OA
ATOM      2  C   UNL     1       2.667   3.645  21.107  0.00  0.00    +0.000 C 
ATOM      3  N   UNL     1       2.153   4.879  21.372  0.00  0.00    +0.000 N 
ATOM      4  C   UNL     1       2.143   5.941  20.479  0.00  0.00    +0.000 A 
ATOM      5  C   UNL     1       1.766   7.211  20.920  0.00  0.00    +0.000 A 
ATOM      6  C   UNL     1       1.699   8.264  20.007  0.00  0.00    +0.000 A 
ATOM      7  C   UNL     1       1.990   8.033  18.665  0.00  0.00    +0.000 A 
ATOM      8 CL   UNL     1       1.843   9.316  17.529  0.00  0.00    +0.000 Cl
ATOM      9  C   UNL     1       2.380   6.764  18.234  0.00  0.00    +0.000 A 
ATOM     10  C   UNL     1       2.481   5.703  19.150  0.00  0.00    +0.000 A 
ATOM     11  C   UNL     1       2.842   4.285  18.744  0.00  0.00    +0.000 C 
ATOM     12  O   UNL     1       3.268   3.494  19.904  0.00  0.00    +0.000 OA
ATOM     13  H   UNL     1       1.825   5.004  22.322  0.00  0.00    +0.000 HD
ENDROOT
BRANCH  11  14
ATOM     14  C   UNL     1       1.649   3.563  18.055  0.00  0.00    +0.000 C 
ATOM     15  F   UNL     1       0.997   4.352  17.167  0.00  0.00    +0.000 F 
ATOM     16  F   UNL     1       2.044   2.459  17.376  0.00  0.00    +0.000 F 
ATOM     17  F   UNL     1       0.722   3.153  18.953  0.00  0.00    +0.000 F 
ENDBRANCH  11  14
BRANCH  11  18
ATOM     18  C   UNL     1       4.074   4.225  17.802  0.00  0.00    +0.000 C 
BRANCH  18  19
ATOM     19  N   UNL     1       4.934   5.407  17.903  0.00  0.00    +0.000 N 
ATOM     20  C   UNL     1       6.289   5.320  18.147  0.00  0.00    +0.000 C 
ATOM     21  O   UNL     1       6.870   4.253  18.306  0.00  0.00    +0.000 OA
ATOM     22  H   UNL     1       4.521   6.296  17.650  0.00  0.00    +0.000 HD
BRANCH  20  23
ATOM     23  C   UNL     1       7.048   6.601  18.145  0.00  0.00    +0.000 A 
ATOM     24  C   UNL     1       8.141   6.817  18.993  0.00  0.00    +0.000 A 
ATOM     25  C   UNL     1       8.785   8.060  19.004  0.00  0.00    +0.000 A 
ATOM     26  C   UNL     1       8.355   9.099  18.165  0.00  0.00    +0.000 A 
ATOM     27  C   UNL     1       7.289   8.859  17.283  0.00  0.00    +0.000 A 
ATOM     28  C   UNL     1       6.642   7.617  17.272  0.00  0.00    +0.000 A 
BRANCH  26  29
ATOM     29  C   UNL     1       9.013  10.457  18.205  0.00  0.00    +0.000 C 
ATOM     30  F   UNL     1       8.232  11.455  17.704  0.00  0.00    +0.000 F 
ATOM     31  F   UNL     1       9.349  10.843  19.466  0.00  0.00    +0.000 F 
ATOM     32  F   UNL     1      10.168  10.492  17.483  0.00  0.00    +0.000 F 
ENDBRANCH  26  29
ENDBRANCH  20  23
ENDBRANCH  18  19
ENDBRANCH  11  18
TORSDOF 5
ENDMDL
MODEL 6
REMARK VINA RESULT:      -8.8      0.315      1.173
REMARK  Name = 
REMARK  5 active torsions:
REMARK  status: ('A' for Active; 'I' for Inactive)
REMARK    1  A    between atoms: C_11  and  C_12
REMARK    2  A    between atoms: C_11  and  C_26
REMARK    3  A    between atoms: C_12  and  N_13
REMARK    4  A    between atoms: C_14  and  C_16
REMARK    5  A    between atoms: C_19  and  C_20
REMARK                            x       y       z     vdW  Elec       q    Type
REMARK                         _______ _______ _______ _____ _____    ______ ____
ROOT
ATOM      1  O   UNL     1       7.918   5.658  19.230  0.00  0.00    +0.000 OA
ATOM      2  C   UNL     1       6.762   5.375  18.951  0.00  0.00    +0.000 C 
ATOM      3  N   UNL     1       6.124   4.319  19.531  0.00  0.00    +0.000 N 
ATOM      4  C   UNL     1       4.805   3.963  19.290  0.00  0.00    +0.000 A 
ATOM      5  C   UNL     1       4.199   2.984  20.080  0.00  0.00    +0.000 A 
ATOM      6  C   UNL     1       2.893   2.584  19.798  0.00  0.00    +0.000 A 
ATOM      7  C   UNL     1       2.215   3.151  18.721  0.00  0.00    +0.000 A 
ATOM      8 CL   UNL     1       0.629   2.611  18.333  0.00  0.00    +0.000 Cl
ATOM      9  C   UNL     1       2.822   4.140  17.945  0.00  0.00    +0.000 A 
ATOM     10  C   UNL     1       4.126   4.572  18.239  0.00  0.00    +0.000 A 
ATOM     11  C   UNL     1       4.870   5.600  17.404  0.00  0.00    +0.000 C 
ATOM     12  O   UNL     1       6.011   6.156  18.140  0.00  0.00    +0.000 OA
ATOM     13  H   UNL     1       6.669   3.828  20.229  0.00  0.00    +0.000 HD
ENDROOT
BRANCH  11  14
ATOM     14  C   UNL     1       5.384   4.991  16.068  0.00  0.00    +0.000 C 
ATOM     15  F   UNL     1       4.994   3.706  15.889  0.00  0.00    +0.000 F 
ATOM     16  F   UNL     1       4.944   5.683  14.989  0.00  0.00    +0.000 F 
ATOM     17  F   UNL     1       6.738   4.991  16.002  0.00  0.00    +0.000 F 
ENDBRANCH  11  14
BRANCH  11  18
ATOM     18  C   UNL     1       4.010   6.851  17.084  0.00  0.00    +0.000 C 
BRANCH  18  19
ATOM     19  N   UNL     1       3.338   7.404  18.263  0.00  0.00    +0.000 N 
ATOM     20  C   UNL     1       2.360   8.372  18.173  0.00  0.00    +0.000 C 
ATOM     21  O   UNL     1       1.989   8.848  17.107  0.00  0.00    +0.000 OA
ATOM     22  H   UNL     1       3.522   6.949  19.149  0.00  0.00    +0.000 HD
BRANCH  20  23
ATOM     23  C   UNL     1       1.712   8.782  19.450  0.00  0.00    +0.000 A 
ATOM     24  C   UNL     1       1.701   7.950  20.576  0.00  0.00    +0.000 A 
ATOM     25  C   UNL     1       1.024   8.347  21.735  0.00  0.00    +0.000 A 
ATOM     26  C   UNL     1       0.357   9.580  21.790  0.00  0.00    +0.000 A 
ATOM     27  C   UNL     1       0.414  10.430  20.673  0.00  0.00    +0.000 A 
ATOM     28  C   UNL     1       1.090  10.033  19.513  0.00  0.00    +0.000 A 
BRANCH  26  29
ATOM     29  C   UNL     1      -0.415   9.996  23.019  0.00  0.00    +0.000 C 
ATOM     30  F   UNL     1      -1.689   9.513  23.048  0.00  0.00    +0.000 F 
ATOM     31  F   UNL     1       0.170   9.578  24.175  0.00  0.00    +0.000 F 
ATOM     32  F   UNL     1      -0.529  11.349  23.124  0.00  0.00    +0.000 F 
ENDBRANCH  26  29
ENDBRANCH  20  23
ENDBRANCH  18  19
ENDBRANCH  11  18
TORSDOF 5
ENDMDL
MODEL 7
REMARK VINA RESULT:      -8.6      3.855      8.213
REMARK  Name = 
REMARK  5 active torsions:
REMARK  status: ('A' for Active; 'I' for Inactive)
REMARK    1  A    between atoms: C_11  and  C_12
REMARK    2  A    between atoms: C_11  and  C_26
REMARK    3  A    between atoms: C_12  and  N_13
REMARK    4  A    between atoms: C_14  and  C_16
REMARK    5  A    between atoms: C_19  and  C_20
REMARK                            x       y       z     vdW  Elec       q    Type
REMARK                         _______ _______ _______ _____ _____    ______ ____
ROOT
ATOM      1  O   UNL     1       1.606   2.181  22.391  0.00  0.00    +0.000 OA
ATOM      2  C   UNL     1       1.997   3.023  21.597  0.00  0.00    +0.000 C 
ATOM      3  N   UNL     1       1.437   4.264  21.537  0.00  0.00    +0.000 N 
ATOM      4  C   UNL     1       1.854   5.281  20.689  0.00  0.00    +0.000 A 
ATOM      5  C   UNL     1       1.336   6.567  20.845  0.00  0.00    +0.000 A 
ATOM      6  C   UNL     1       1.710   7.573  19.954  0.00  0.00    +0.000 A 
ATOM      7  C   UNL     1       2.582   7.279  18.908  0.00  0.00    +0.000 A 
ATOM      8 CL   UNL     1       2.992   8.502  17.772  0.00  0.00    +0.000 Cl
ATOM      9  C   UNL     1       3.108   5.993  18.766  0.00  0.00    +0.000 A 
ATOM     10  C   UNL     1       2.761   4.980  19.676  0.00  0.00    +0.000 A 
ATOM     11  C   UNL     1       3.247   3.547  19.550  0.00  0.00    +0.000 C 
ATOM     12  O   UNL     1       3.081   2.818  20.813  0.00  0.00    +0.000 OA
ATOM     13  H   UNL     1       0.711   4.434  22.222  0.00  0.00    +0.000 HD
ENDROOT
BRANCH  11  14
ATOM     14  C   UNL     1       2.493   2.781  18.426  0.00  0.00    +0.000 C 
ATOM     15  F   UNL     1       2.780   3.247  17.187  0.00  0.00    +0.000 F 
ATOM     16  F   UNL     1       2.789   1.459  18.422  0.00  0.00    +0.000 F 
ATOM     17  F   UNL     1       1.149   2.876  18.567  0.00  0.00    +0.000 F 
ENDBRANCH  11  14
BRANCH  11  18
ATOM     18  C   UNL     1       4.773   3.451  19.283  0.00  0.00    +0.000 C 
BRANCH  18  19
ATOM     19  N   UNL     1       5.112   3.511  17.858  0.00  0.00    +0.000 N 
ATOM     20  C   UNL     1       5.939   4.482  17.334  0.00  0.00    +0.000 C 
ATOM     21  O   UNL     1       6.441   5.369  18.013  0.00  0.00    +0.000 OA
ATOM     22  H   UNL     1       4.825   2.726  17.287  0.00  0.00    +0.000 HD
BRANCH  20  23
ATOM     23  C   UNL     1       6.257   4.370  15.883  0.00  0.00    +0.000 A 
ATOM     24  C   UNL     1       7.332   5.055  15.304  0.00  0.00    +0.000 A 
ATOM     25  C   UNL     1       7.556   4.973  13.925  0.00  0.00    +0.000 A 
ATOM     26  C   UNL     1       6.718   4.200  13.107  0.00  0.00    +0.000 A 
ATOM     27  C   UNL     1       5.672   3.477  13.702  0.00  0.00    +0.000 A 
ATOM     28  C   UNL     1       5.445   3.560  15.081  0.00  0.00    +0.000 A 
BRANCH  26  29
ATOM     29  C   UNL     1       6.923   4.143  11.612  0.00  0.00    +0.000 C 
ATOM     30  F   UNL     1       5.763   4.017  10.909  0.00  0.00    +0.000 F 
ATOM     31  F   UNL     1       7.539   5.254  11.122  0.00  0.00    +0.000 F 
ATOM     32  F   UNL     1       7.700   3.088  11.237  0.00  0.00    +0.000 F 
ENDBRANCH  26  29
ENDBRANCH  20  23
ENDBRANCH  18  19
ENDBRANCH  11  18
TORSDOF 5
ENDMDL
MODEL 8
REMARK VINA RESULT:      -8.2      4.513      8.587
REMARK  Name = 
REMARK  5 active torsions:
REMARK  status: ('A' for Active; 'I' for Inactive)
REMARK    1  A    between atoms: C_11  and  C_12
REMARK    2  A    between atoms: C_11  and  C_26
REMARK    3  A    between atoms: C_12  and  N_13
REMARK    4  A    between atoms: C_14  and  C_16
REMARK    5  A    between atoms: C_19  and  C_20
REMARK                            x       y       z     vdW  Elec       q    Type
REMARK                         _______ _______ _______ _____ _____    ______ ____
ROOT
ATOM      1  O   UNL     1      -1.061  10.030  22.790  0.00  0.00    +0.000 OA
ATOM      2  C   UNL     1      -0.560  10.777  21.962  0.00  0.00    +0.000 C 
ATOM      3  N   UNL     1      -0.366  12.101  22.217  0.00  0.00    +0.000 N 
ATOM      4  C   UNL     1       0.230  12.997  21.341  0.00  0.00    +0.000 A 
ATOM      5  C   UNL     1       0.549  14.283  21.779  0.00  0.00    +0.000 A 
ATOM      6  C   UNL     1       1.093  15.201  20.880  0.00  0.00    +0.000 A 
ATOM      7  C   UNL     1       1.294  14.831  19.553  0.00  0.00    +0.000 A 
ATOM      8 CL   UNL     1       1.902  15.982  18.430  0.00  0.00    +0.000 Cl
ATOM      9  C   UNL     1       0.986  13.538  19.125  0.00  0.00    +0.000 A 
ATOM     10  C   UNL     1       0.466  12.596  20.029  0.00  0.00    +0.000 A 
ATOM     11  C   UNL     1       0.054  11.192  19.623  0.00  0.00    +0.000 C 
ATOM     12  O   UNL     1      -0.062  10.314  20.793  0.00  0.00    +0.000 OA
ATOM     13  H   UNL     1      -0.632  12.395  23.149  0.00  0.00    +0.000 HD
ENDROOT
BRANCH  11  14
ATOM     14  C   UNL     1      -1.300  11.190  18.857  0.00  0.00    +0.000 C 
ATOM     15  F   UNL     1      -1.196  11.679  17.599  0.00  0.00    +0.000 F 
ATOM     16  F   UNL     1      -1.823   9.944  18.748  0.00  0.00    +0.000 F 
ATOM     17  F   UNL     1      -2.234  11.947  19.484  0.00  0.00    +0.000 F 
ENDBRANCH  11  14
BRANCH  11  18
ATOM     18  C   UNL     1       1.122  10.481  18.749  0.00  0.00    +0.000 C 
BRANCH  18  19
ATOM     19  N   UNL     1       1.283   9.062  19.078  0.00  0.00    +0.000 N 
ATOM     20  C   UNL     1       2.068   8.212  18.328  0.00  0.00    +0.000 C 
ATOM     21  O   UNL     1       2.678   8.575  17.330  0.00  0.00    +0.000 OA
ATOM     22  H   UNL     1       0.903   8.753  19.964  0.00  0.00    +0.000 HD
BRANCH  20  23
ATOM     23  C   UNL     1       2.200   6.815  18.829  0.00  0.00    +0.000 A 
ATOM     24  C   UNL     1       2.544   5.754  17.983  0.00  0.00    +0.000 A 
ATOM     25  C   UNL     1       2.594   4.447  18.482  0.00  0.00    +0.000 A 
ATOM     26  C   UNL     1       2.308   4.182  19.830  0.00  0.00    +0.000 A 
ATOM     27  C   UNL     1       2.011   5.258  20.682  0.00  0.00    +0.000 A 
ATOM     28  C   UNL     1       1.960   6.566  20.184  0.00  0.00    +0.000 A 
BRANCH  26  29
ATOM     29  C   UNL     1       2.313   2.771  20.366  0.00  0.00    +0.000 C 
ATOM     30  F   UNL     1       2.088   1.826  19.409  0.00  0.00    +0.000 F 
ATOM     31  F   UNL     1       3.493   2.434  20.954  0.00  0.00    +0.000 F 
ATOM     32  F   UNL     1       1.353   2.575  21.313  0.00  0.00    +0.000 F 
ENDBRANCH  26  29
ENDBRANCH  20  23
ENDBRANCH  18  19
ENDBRANCH  11  18
TORSDOF 5
ENDMDL
MODEL 9
REMARK VINA RESULT:      -8.2      3.047      3.960
REMARK  Name = 
REMARK  5 active torsions:
REMARK  status: ('A' for Active; 'I' for Inactive)
REMARK    1  A    between atoms: C_11  and  C_12
REMARK    2  A    between atoms: C_11  and  C_26
REMARK    3  A    between atoms: C_12  and  N_13
REMARK    4  A    between atoms: C_14  and  C_16
REMARK    5  A    between atoms: C_19  and  C_20
REMARK                            x       y       z     vdW  Elec       q    Type
REMARK                         _______ _______ _______ _____ _____    ______ ____
ROOT
ATOM      1  O   UNL     1       2.277   2.269  17.344  0.00  0.00    +0.000 OA
ATOM      2  C   UNL     1       2.956   3.285  17.400  0.00  0.00    +0.000 C 
ATOM      3  N   UNL     1       4.309   3.251  17.240  0.00  0.00    +0.000 N 
ATOM      4  C   UNL     1       5.135   4.365  17.253  0.00  0.00    +0.000 A 
ATOM      5  C   UNL     1       6.477   4.234  16.891  0.00  0.00    +0.000 A 
ATOM      6  C   UNL     1       7.321   5.343  16.963  0.00  0.00    +0.000 A 
ATOM      7  C   UNL     1       6.820   6.563  17.412  0.00  0.00    +0.000 A 
ATOM      8 CL   UNL     1       7.874   7.913  17.564  0.00  0.00    +0.000 Cl
ATOM      9  C   UNL     1       5.474   6.690  17.760  0.00  0.00    +0.000 A 
ATOM     10  C   UNL     1       4.608   5.587  17.662  0.00  0.00    +0.000 A 
ATOM     11  C   UNL     1       3.148   5.636  18.077  0.00  0.00    +0.000 C 
ATOM     12  O   UNL     1       2.396   4.512  17.505  0.00  0.00    +0.000 OA
ATOM     13  H   UNL     1       4.687   2.334  17.036  0.00  0.00    +0.000 HD
ENDROOT
BRANCH  11  14
ATOM     14  C   UNL     1       2.989   5.611  19.624  0.00  0.00    +0.000 C 
ATOM     15  F   UNL     1       3.884   4.796  20.233  0.00  0.00    +0.000 F 
ATOM     16  F   UNL     1       3.147   6.840  20.173  0.00  0.00    +0.000 F 
ATOM     17  F   UNL     1       1.761   5.176  19.997  0.00  0.00    +0.000 F 
ENDBRANCH  11  14
BRANCH  11  18
ATOM     18  C   UNL     1       2.406   6.880  17.519  0.00  0.00    +0.000 C 
BRANCH  18  19
ATOM     19  N   UNL     1       1.771   7.687  18.564  0.00  0.00    +0.000 N 
ATOM     20  C   UNL     1       1.600   9.051  18.447  0.00  0.00    +0.000 C 
ATOM     21  O   UNL     1       1.974   9.688  17.470  0.00  0.00    +0.000 OA
ATOM     22  H   UNL     1       1.333   7.185  19.327  0.00  0.00    +0.000 HD
BRANCH  20  23
ATOM     23  C   UNL     1       0.867   9.726  19.554  0.00  0.00    +0.000 A 
ATOM     24  C   UNL     1       0.766   9.159  20.830  0.00  0.00    +0.000 A 
ATOM     25  C   UNL     1       0.014   9.797  21.823  0.00  0.00    +0.000 A 
ATOM     26  C   UNL     1      -0.641  11.010  21.560  0.00  0.00    +0.000 A 
ATOM     27  C   UNL     1      -0.495  11.596  20.292  0.00  0.00    +0.000 A 
ATOM     28  C   UNL     1       0.257  10.959  19.297  0.00  0.00    +0.000 A 
BRANCH  26  29
ATOM     29  C   UNL     1      -1.494  11.680  22.610  0.00  0.00    +0.000 C 
ATOM     30  F   UNL     1      -0.867  12.713  23.240  0.00  0.00    +0.000 F 
ATOM     31  F   UNL     1      -2.646  12.196  22.103  0.00  0.00    +0.000 F 
ATOM     32  F   UNL     1      -1.871  10.819  23.596  0.00  0.00    +0.000 F 
ENDBRANCH  26  29
ENDBRANCH  20  23
ENDBRANCH  18  19
ENDBRANCH  11  18
TORSDOF 5
ENDMDL
