MODEL 1
REMARK VINA RESULT:      -9.7      0.000      0.000
REMARK  Name = 
REMARK  3 active torsions:
REMARK  status: ('A' for Active; 'I' for Inactive)
REMARK    1  A    between atoms: C_6  and  C_7
REMARK    2  A    between atoms: C_12  and  N_13
REMARK    3  A    between atoms: C_16  and  C_17
REMARK                            x       y       z     vdW  Elec       q    Type
REMARK                         _______ _______ _______ _____ _____    ______ ____
ROOT
ATOM      1  C   UNL     1       2.665   6.078  19.794  0.00  0.00    +0.000 A 
ATOM      2  C   UNL     1       2.329   4.992  20.623  0.00  0.00    +0.000 A 
ATOM      3  C   UNL     1       2.965   3.757  20.488  0.00  0.00    +0.000 A 
ATOM      4  F   UNL     1       2.604   2.748  21.291  0.00  0.00    +0.000 F 
ATOM      5  C   UNL     1       3.964   3.553  19.548  0.00  0.00    +0.000 A 
ATOM      6  C   UNL     1       4.349   4.623  18.741  0.00  0.00    +0.000 A 
ATOM      7  C   UNL     1       3.690   5.865  18.856  0.00  0.00    +0.000 A 
ENDROOT
BRANCH   1  13
ATOM      8  F   UNL     1       1.302  10.339  17.857  0.00  0.00    +0.000 F 
ATOM      9  C   UNL     1       1.305   9.513  18.911  0.00  0.00    +0.000 A 
ATOM     10  C   UNL     1       0.680   9.902  20.085  0.00  0.00    +0.000 A 
ATOM     11  C   UNL     1       0.687   9.039  21.175  0.00  0.00    +0.000 A 
ATOM     12  C   UNL     1       1.316   7.793  21.073  0.00  0.00    +0.000 A 
ATOM     13  C   UNL     1       1.966   7.383  19.890  0.00  0.00    +0.000 A 
ATOM     14  C   UNL     1       1.945   8.279  18.807  0.00  0.00    +0.000 A 
ENDBRANCH   1  13
BRANCH   6  15
ATOM     15  N   UNL     1       5.419   4.489  17.829  0.00  0.00    +0.000 N 
ATOM     16  N   UNL     1       6.720   4.549  18.184  0.00  0.00    +0.000 NA
ATOM     17  N   UNL     1       7.396   4.536  17.043  0.00  0.00    +0.000 NA
ATOM     18  C   UNL     1       6.469   4.461  16.031  0.00  0.00    +0.000 A 
ATOM     19  N   UNL     1       5.209   4.379  16.497  0.00  0.00    +0.000 NA
BRANCH  18  20
ATOM     20  C   UNL     1       6.808   4.502  14.610  0.00  0.00    +0.000 A 
ATOM     21  C   UNL     1       6.142   3.674  13.704  0.00  0.00    +0.000 A 
ATOM     22  C   UNL     1       6.476   3.740  12.355  0.00  0.00    +0.000 A 
ATOM     23  C   UNL     1       7.457   4.634  11.944  0.00  0.00    +0.000 A 
ATOM     24  C   UNL     1       8.064   5.428  12.904  0.00  0.00    +0.000 A 
ATOM     25  N   UNL     1       7.765   5.383  14.221  0.00  0.00    +0.000 NA
ENDBRANCH  18  20
ENDBRANCH   6  15
TORSDOF 3
ENDMDL
MODEL 2
REMARK VINA RESULT:      -9.7      0.902      1.316
REMARK  Name = 
REMARK  3 active torsions:
REMARK  status: ('A' for Active; 'I' for Inactive)
REMARK    1  A    between atoms: C_6  and  C_7
REMARK    2  A    between atoms: C_12  and  N_13
REMARK    3  A    between atoms: C_16  and  C_17
REMARK                            x       y       z     vdW  Elec       q    Type
REMARK                         _______ _______ _______ _____ _____    ______ ____
ROOT
ATOM      1  C   UNL     1       2.635   6.321  19.636  0.00  0.00    +0.000 A 
ATOM      2  C   UNL     1       2.270   5.285  20.515  0.00  0.00    +0.000 A 
ATOM      3  C   UNL     1       2.871   4.029  20.440  0.00  0.00    +0.000 A 
ATOM      4  F   UNL     1       2.484   3.069  21.290  0.00  0.00    +0.000 F 
ATOM      5  C   UNL     1       3.866   3.754  19.513  0.00  0.00    +0.000 A 
ATOM      6  C   UNL     1       4.279   4.773  18.657  0.00  0.00    +0.000 A 
ATOM      7  C   UNL     1       3.655   6.037  18.712  0.00  0.00    +0.000 A 
ENDROOT
BRANCH   1  13
ATOM      8  F   UNL     1       0.159   9.792  21.999  0.00  0.00    +0.000 F 
ATOM      9  C   UNL     1       0.723   9.366  20.862  0.00  0.00    +0.000 A 
ATOM     10  C   UNL     1       0.654  10.157  19.727  0.00  0.00    +0.000 A 
ATOM     11  C   UNL     1       1.242   9.708  18.550  0.00  0.00    +0.000 A 
ATOM     12  C   UNL     1       1.899   8.471  18.527  0.00  0.00    +0.000 A 
ATOM     13  C   UNL     1       1.972   7.647  19.669  0.00  0.00    +0.000 A 
ATOM     14  C   UNL     1       1.364   8.128  20.842  0.00  0.00    +0.000 A 
ENDBRANCH   1  13
BRANCH   6  15
ATOM     15  N   UNL     1       5.346   4.567  17.755  0.00  0.00    +0.000 N 
ATOM     16  N   UNL     1       6.646   4.535  18.121  0.00  0.00    +0.000 NA
ATOM     17  N   UNL     1       7.329   4.478  16.987  0.00  0.00    +0.000 NA
ATOM     18  C   UNL     1       6.408   4.470  15.966  0.00  0.00    +0.000 A 
ATOM     19  N   UNL     1       5.142   4.475  16.420  0.00  0.00    +0.000 NA
BRANCH  18  20
ATOM     20  C   UNL     1       6.763   4.492  14.548  0.00  0.00    +0.000 A 
ATOM     21  C   UNL     1       6.102   3.656  13.646  0.00  0.00    +0.000 A 
ATOM     22  C   UNL     1       6.450   3.702  12.299  0.00  0.00    +0.000 A 
ATOM     23  C   UNL     1       7.441   4.585  11.889  0.00  0.00    +0.000 A 
ATOM     24  C   UNL     1       8.044   5.387  12.844  0.00  0.00    +0.000 A 
ATOM     25  N   UNL     1       7.730   5.361  14.158  0.00  0.00    +0.000 NA
ENDBRANCH  18  20
ENDBRANCH   6  15
TORSDOF 3
ENDMDL
MODEL 3
REMARK VINA RESULT:      -9.0      4.640      6.148
REMARK  Name = 
REMARK  3 active torsions:
REMARK  status: ('A' for Active; 'I' for Inactive)
REMARK    1  A    between atoms: C_6  and  C_7
REMARK    2  A    between atoms: C_12  and  N_13
REMARK    3  A    between atoms: C_16  and  C_17
REMARK                            x       y       z     vdW  Elec       q    Type
REMARK                         _______ _______ _______ _____ _____    ______ ____
ROOT
ATOM      1  C   UNL     1       4.212   4.868  17.618  0.00  0.00    +0.000 A 
ATOM      2  C   UNL     1       4.342   4.373  16.307  0.00  0.00    +0.000 A 
ATOM      3  C   UNL     1       5.373   4.804  15.472  0.00  0.00    +0.000 A 
ATOM      4  F   UNL     1       5.451   4.315  14.227  0.00  0.00    +0.000 F 
ATOM      5  C   UNL     1       6.322   5.720  15.902  0.00  0.00    +0.000 A 
ATOM      6  C   UNL     1       6.244   6.195  17.210  0.00  0.00    +0.000 A 
ATOM      7  C   UNL     1       5.188   5.783  18.049  0.00  0.00    +0.000 A 
ENDROOT
BRANCH   1  13
ATOM      8  F   UNL     1       0.310   2.100  18.555  0.00  0.00    +0.000 F 
ATOM      9  C   UNL     1       1.139   3.075  18.948  0.00  0.00    +0.000 A 
ATOM     10  C   UNL     1       0.923   3.706  20.163  0.00  0.00    +0.000 A 
ATOM     11  C   UNL     1       1.788   4.717  20.566  0.00  0.00    +0.000 A 
ATOM     12  C   UNL     1       2.864   5.080  19.747  0.00  0.00    +0.000 A 
ATOM     13  C   UNL     1       3.094   4.458  18.503  0.00  0.00    +0.000 A 
ATOM     14  C   UNL     1       2.200   3.442  18.123  0.00  0.00    +0.000 A 
ENDBRANCH   1  13
BRANCH   6  15
ATOM     15  N   UNL     1       7.235   7.063  17.720  0.00  0.00    +0.000 N 
ATOM     16  N   UNL     1       8.082   6.732  18.718  0.00  0.00    +0.000 NA
ATOM     17  N   UNL     1       8.738   7.847  19.007  0.00  0.00    +0.000 NA
ATOM     18  C   UNL     1       8.264   8.820  18.159  0.00  0.00    +0.000 A 
ATOM     19  N   UNL     1       7.347   8.344  17.298  0.00  0.00    +0.000 NA
BRANCH  18  20
ATOM     20  C   UNL     1       8.680  10.220  18.210  0.00  0.00    +0.000 A 
ATOM     21  C   UNL     1       9.763  10.602  19.005  0.00  0.00    +0.000 A 
ATOM     22  C   UNL     1      10.147  11.940  19.028  0.00  0.00    +0.000 A 
ATOM     23  C   UNL     1       9.447  12.857  18.255  0.00  0.00    +0.000 A 
ATOM     24  C   UNL     1       8.389  12.396  17.486  0.00  0.00    +0.000 A 
ATOM     25  N   UNL     1       7.991  11.106  17.447  0.00  0.00    +0.000 NA
ENDBRANCH  18  20
ENDBRANCH   6  15
TORSDOF 3
ENDMDL
MODEL 4
REMARK VINA RESULT:      -8.8      1.382      1.791
REMARK  Name = 
REMARK  3 active torsions:
REMARK  status: ('A' for Active; 'I' for Inactive)
REMARK    1  A    between atoms: C_6  and  C_7
REMARK    2  A    between atoms: C_12  and  N_13
REMARK    3  A    between atoms: C_16  and  C_17
REMARK                            x       y       z     vdW  Elec       q    Type
REMARK                         _______ _______ _______ _____ _____    ______ ____
ROOT
ATOM      1  C   UNL     1       2.189   7.243  19.612  0.00  0.00    +0.000 A 
ATOM      2  C   UNL     1       1.946   6.147  20.460  0.00  0.00    +0.000 A 
ATOM      3  C   UNL     1       2.669   4.961  20.330  0.00  0.00    +0.000 A 
ATOM      4  F   UNL     1       2.396   3.938  21.152  0.00  0.00    +0.000 F 
ATOM      5  C   UNL     1       3.668   4.818  19.378  0.00  0.00    +0.000 A 
ATOM      6  C   UNL     1       3.960   5.902  18.552  0.00  0.00    +0.000 A 
ATOM      7  C   UNL     1       3.213   7.094  18.662  0.00  0.00    +0.000 A 
ENDROOT
BRANCH   1  13
ATOM      8  F   UNL     1      -0.592  10.355  22.131  0.00  0.00    +0.000 F 
ATOM      9  C   UNL     1      -0.002  10.032  20.974  0.00  0.00    +0.000 A 
ATOM     10  C   UNL     1      -0.163  10.855  19.871  0.00  0.00    +0.000 A 
ATOM     11  C   UNL     1       0.453  10.514  18.673  0.00  0.00    +0.000 A 
ATOM     12  C   UNL     1       1.229   9.351  18.596  0.00  0.00    +0.000 A 
ATOM     13  C   UNL     1       1.397   8.494  19.704  0.00  0.00    +0.000 A 
ATOM     14  C   UNL     1       0.758   8.866  20.900  0.00  0.00    +0.000 A 
ENDBRANCH   1  13
BRANCH   6  15
ATOM     15  N   UNL     1       5.024   5.835  17.626  0.00  0.00    +0.000 N 
ATOM     16  N   UNL     1       6.127   6.612  17.690  0.00  0.00    +0.000 NA
ATOM     17  N   UNL     1       6.799   6.359  16.575  0.00  0.00    +0.000 NA
ATOM     18  C   UNL     1       6.074   5.425  15.875  0.00  0.00    +0.000 A 
ATOM     19  N   UNL     1       4.970   5.034  16.536  0.00  0.00    +0.000 NA
BRANCH  18  20
ATOM     20  C   UNL     1       6.440   4.937  14.546  0.00  0.00    +0.000 A 
ATOM     21  C   UNL     1       5.658   3.969  13.912  0.00  0.00    +0.000 A 
ATOM     22  C   UNL     1       6.022   3.528  12.644  0.00  0.00    +0.000 A 
ATOM     23  C   UNL     1       7.149   4.069  12.039  0.00  0.00    +0.000 A 
ATOM     24  C   UNL     1       7.867   5.033  12.730  0.00  0.00    +0.000 A 
ATOM     25  N   UNL     1       7.541   5.476  13.964  0.00  0.00    +0.000 NA
ENDBRANCH  18  20
ENDBRANCH   6  15
TORSDOF 3
ENDMDL
MODEL 5
REMARK VINA RESULT:      -8.7      4.541      6.191
REMARK  Name = 
REMARK  3 active torsions:
REMARK  status: ('A' for Active; 'I' for Inactive)
REMARK    1  A    between atoms: C_6  and  C_7
REMARK    2  A    between atoms: C_12  and  N_13
REMARK    3  A    between atoms: C_16  and  C_17
REMARK                            x       y       z     vdW  Elec       q    Type
REMARK                         _______ _______ _______ _____ _____    ______ ____
ROOT
ATOM      1  C   UNL     1       4.417   4.545  17.205  0.00  0.00    +0.000 A 
ATOM      2  C   UNL     1       4.687   4.093  15.901  0.00  0.00    +0.000 A 
ATOM      3  C   UNL     1       5.780   4.579  15.181  0.00  0.00    +0.000 A 
ATOM      4  F   UNL     1       5.993   4.129  13.937  0.00  0.00    +0.000 F 
ATOM      5  C   UNL     1       6.654   5.509  15.726  0.00  0.00    +0.000 A 
ATOM      6  C   UNL     1       6.435   5.942  17.033  0.00  0.00    +0.000 A 
ATOM      7  C   UNL     1       5.317   5.474  17.753  0.00  0.00    +0.000 A 
ENDROOT
BRANCH   1  13
ATOM      8  F   UNL     1       1.096   5.148  20.723  0.00  0.00    +0.000 F 
ATOM      9  C   UNL     1       1.589   4.388  19.737  0.00  0.00    +0.000 A 
ATOM     10  C   UNL     1       1.003   3.163  19.461  0.00  0.00    +0.000 A 
ATOM     11  C   UNL     1       1.519   2.380  18.435  0.00  0.00    +0.000 A 
ATOM     12  C   UNL     1       2.615   2.838  17.694  0.00  0.00    +0.000 A 
ATOM     13  C   UNL     1       3.232   4.076  17.966  0.00  0.00    +0.000 A 
ATOM     14  C   UNL     1       2.689   4.843  19.011  0.00  0.00    +0.000 A 
ENDBRANCH   1  13
BRANCH   6  15
ATOM     15  N   UNL     1       7.344   6.822  17.660  0.00  0.00    +0.000 N 
ATOM     16  N   UNL     1       8.072   6.499  18.751  0.00  0.00    +0.000 NA
ATOM     17  N   UNL     1       8.671   7.623  19.119  0.00  0.00    +0.000 NA
ATOM     18  C   UNL     1       8.285   8.592  18.224  0.00  0.00    +0.000 A 
ATOM     19  N   UNL     1       7.485   8.107  17.258  0.00  0.00    +0.000 NA
BRANCH  18  20
ATOM     20  C   UNL     1       8.671   9.998  18.329  0.00  0.00    +0.000 A 
ATOM     21  C   UNL     1       8.065  10.956  17.513  0.00  0.00    +0.000 A 
ATOM     22  C   UNL     1       8.441  12.290  17.640  0.00  0.00    +0.000 A 
ATOM     23  C   UNL     1       9.404  12.633  18.580  0.00  0.00    +0.000 A 
ATOM     24  C   UNL     1       9.951  11.625  19.358  0.00  0.00    +0.000 A 
ATOM     25  N   UNL     1       9.610  10.322  19.255  0.00  0.00    +0.000 NA
ENDBRANCH  18  20
ENDBRANCH   6  15
TORSDOF 3
ENDMDL
MODEL 6
REMARK VINA RESULT:      -8.7      4.493      6.256
REMARK  Name = 
REMARK  3 active torsions:
REMARK  status: ('A' for Active; 'I' for Inactive)
REMARK    1  A    between atoms: C_6  and  C_7
REMARK    2  A    between atoms: C_12  and  N_13
REMARK    3  A    between atoms: C_16  and  C_17
REMARK                            x       y       z     vdW  Elec       q    Type
REMARK                         _______ _______ _______ _____ _____    ______ ____
ROOT
ATOM      1  C   UNL     1       4.359   4.499  17.501  0.00  0.00    +0.000 A 
ATOM      2  C   UNL     1       4.545   4.031  16.188  0.00  0.00    +0.000 A 
ATOM      3  C   UNL     1       5.574   4.525  15.385  0.00  0.00    +0.000 A 
ATOM      4  F   UNL     1       5.706   4.058  14.136  0.00  0.00    +0.000 F 
ATOM      5  C   UNL     1       6.465   5.480  15.851  0.00  0.00    +0.000 A 
ATOM      6  C   UNL     1       6.332   5.931  17.163  0.00  0.00    +0.000 A 
ATOM      7  C   UNL     1       5.278   5.455  17.969  0.00  0.00    +0.000 A 
ENDROOT
BRANCH   1  13
ATOM      8  F   UNL     1       2.607   3.016  21.802  0.00  0.00    +0.000 F 
ATOM      9  C   UNL     1       2.387   3.270  20.506  0.00  0.00    +0.000 A 
ATOM     10  C   UNL     1       1.126   3.056  19.973  0.00  0.00    +0.000 A 
ATOM     11  C   UNL     1       0.904   3.323  18.627  0.00  0.00    +0.000 A 
ATOM     12  C   UNL     1       1.949   3.807  17.832  0.00  0.00    +0.000 A 
ATOM     13  C   UNL     1       3.242   4.022  18.352  0.00  0.00    +0.000 A 
ATOM     14  C   UNL     1       3.435   3.739  19.716  0.00  0.00    +0.000 A 
ENDBRANCH   1  13
BRANCH   6  15
ATOM     15  N   UNL     1       7.266   6.839  17.710  0.00  0.00    +0.000 N 
ATOM     16  N   UNL     1       8.056   6.558  18.768  0.00  0.00    +0.000 NA
ATOM     17  N   UNL     1       8.663   7.699  19.065  0.00  0.00    +0.000 NA
ATOM     18  C   UNL     1       8.220   8.634  18.162  0.00  0.00    +0.000 A 
ATOM     19  N   UNL     1       7.372   8.111  17.258  0.00  0.00    +0.000 NA
BRANCH  18  20
ATOM     20  C   UNL     1       8.596  10.046  18.199  0.00  0.00    +0.000 A 
ATOM     21  C   UNL     1       9.677  10.465  18.978  0.00  0.00    +0.000 A 
ATOM     22  C   UNL     1      10.022  11.813  18.989  0.00  0.00    +0.000 A 
ATOM     23  C   UNL     1       9.287  12.704  18.217  0.00  0.00    +0.000 A 
ATOM     24  C   UNL     1       8.235  12.208  17.464  0.00  0.00    +0.000 A 
ATOM     25  N   UNL     1       7.873  10.907  17.437  0.00  0.00    +0.000 NA
ENDBRANCH  18  20
ENDBRANCH   6  15
TORSDOF 3
ENDMDL
MODEL 7
REMARK VINA RESULT:      -8.7      5.416     10.218
REMARK  Name = 
REMARK  3 active torsions:
REMARK  status: ('A' for Active; 'I' for Inactive)
REMARK    1  A    between atoms: C_6  and  C_7
REMARK    2  A    between atoms: C_12  and  N_13
REMARK    3  A    between atoms: C_16  and  C_17
REMARK                            x       y       z     vdW  Elec       q    Type
REMARK                         _______ _______ _______ _____ _____    ______ ____
ROOT
ATOM      1  C   UNL     1       2.106   6.906  19.785  0.00  0.00    +0.000 A 
ATOM      2  C   UNL     1       2.307   7.552  18.551  0.00  0.00    +0.000 A 
ATOM      3  C   UNL     1       1.872   8.862  18.344  0.00  0.00    +0.000 A 
ATOM      4  F   UNL     1       2.073   9.433  17.149  0.00  0.00    +0.000 F 
ATOM      5  C   UNL     1       1.246   9.587  19.347  0.00  0.00    +0.000 A 
ATOM      6  C   UNL     1       1.072   8.988  20.593  0.00  0.00    +0.000 A 
ATOM      7  C   UNL     1       1.486   7.655  20.798  0.00  0.00    +0.000 A 
ENDROOT
BRANCH   1  13
ATOM      8  F   UNL     1       1.539   2.596  21.991  0.00  0.00    +0.000 F 
ATOM      9  C   UNL     1       2.227   3.356  21.129  0.00  0.00    +0.000 A 
ATOM     10  C   UNL     1       3.329   2.823  20.479  0.00  0.00    +0.000 A 
ATOM     11  C   UNL     1       4.038   3.617  19.585  0.00  0.00    +0.000 A 
ATOM     12  C   UNL     1       3.630   4.935  19.348  0.00  0.00    +0.000 A 
ATOM     13  C   UNL     1       2.517   5.498  20.007  0.00  0.00    +0.000 A 
ATOM     14  C   UNL     1       1.824   4.671  20.908  0.00  0.00    +0.000 A 
ENDBRANCH   1  13
BRANCH   6  15
ATOM     15  N   UNL     1       0.517   9.715  21.669  0.00  0.00    +0.000 N 
ATOM     16  N   UNL     1       0.615   9.335  22.962  0.00  0.00    +0.000 NA
ATOM     17  N   UNL     1      -0.155  10.180  23.634  0.00  0.00    +0.000 NA
ATOM     18  C   UNL     1      -0.689  11.052  22.716  0.00  0.00    +0.000 A 
ATOM     19  N   UNL     1      -0.244  10.816  21.469  0.00  0.00    +0.000 NA
BRANCH  18  20
ATOM     20  C   UNL     1      -1.658  12.094  23.049  0.00  0.00    +0.000 A 
ATOM     21  C   UNL     1      -1.307  13.441  22.939  0.00  0.00    +0.000 A 
ATOM     22  C   UNL     1      -2.251  14.415  23.252  0.00  0.00    +0.000 A 
ATOM     23  C   UNL     1      -3.520  14.019  23.657  0.00  0.00    +0.000 A 
ATOM     24  C   UNL     1      -3.793  12.663  23.731  0.00  0.00    +0.000 A 
ATOM     25  N   UNL     1      -2.896  11.695  23.439  0.00  0.00    +0.000 NA
ENDBRANCH  18  20
ENDBRANCH   6  15
TORSDOF 3
ENDMDL
MODEL 8
REMARK VINA RESULT:      -8.6      0.700      1.033
REMARK  Name = 
REMARK  3 active torsions:
REMARK  status: ('A' for Active; 'I' for Inactive)
REMARK    1  A    between atoms: C_6  and  C_7
REMARK    2  A    between atoms: C_12  and  N_13
REMARK    3  A    between atoms: C_16  and  C_17
REMARK                            x       y       z     vdW  Elec       q    Type
REMARK                         _______ _______ _______ _____ _____    ______ ____
ROOT
ATOM      1  C   UNL     1       2.439   6.283  19.883  0.00  0.00    +0.000 A 
ATOM      2  C   UNL     1       1.992   5.203  20.666  0.00  0.00    +0.000 A 
ATOM      3  C   UNL     1       2.518   3.922  20.494  0.00  0.00    +0.000 A 
ATOM      4  F   UNL     1       2.055   2.921  21.254  0.00  0.00    +0.000 F 
ATOM      5  C   UNL     1       3.515   3.664  19.564  0.00  0.00    +0.000 A 
ATOM      6  C   UNL     1       4.008   4.723  18.805  0.00  0.00    +0.000 A 
ATOM      7  C   UNL     1       3.459   6.014  18.956  0.00  0.00    +0.000 A 
ENDROOT
BRANCH   1  13
ATOM      8  F   UNL     1       1.206  10.601  17.985  0.00  0.00    +0.000 F 
ATOM      9  C   UNL     1       1.259   9.798  19.055  0.00  0.00    +0.000 A 
ATOM     10  C   UNL     1       0.795  10.257  20.277  0.00  0.00    +0.000 A 
ATOM     11  C   UNL     1       0.852   9.418  21.383  0.00  0.00    +0.000 A 
ATOM     12  C   UNL     1       1.369   8.124  21.250  0.00  0.00    +0.000 A 
ATOM     13  C   UNL     1       1.856   7.641  20.017  0.00  0.00    +0.000 A 
ATOM     14  C   UNL     1       1.788   8.516  18.918  0.00  0.00    +0.000 A 
ENDBRANCH   1  13
BRANCH   6  15
ATOM     15  N   UNL     1       5.080   4.527  17.907  0.00  0.00    +0.000 N 
ATOM     16  N   UNL     1       6.380   4.575  18.266  0.00  0.00    +0.000 NA
ATOM     17  N   UNL     1       7.061   4.499  17.131  0.00  0.00    +0.000 NA
ATOM     18  C   UNL     1       6.138   4.399  16.118  0.00  0.00    +0.000 A 
ATOM     19  N   UNL     1       4.875   4.364  16.578  0.00  0.00    +0.000 NA
BRANCH  18  20
ATOM     20  C   UNL     1       6.486   4.372  14.698  0.00  0.00    +0.000 A 
ATOM     21  C   UNL     1       7.444   5.252  14.192  0.00  0.00    +0.000 A 
ATOM     22  C   UNL     1       7.765   5.200  12.839  0.00  0.00    +0.000 A 
ATOM     23  C   UNL     1       7.130   4.266  12.030  0.00  0.00    +0.000 A 
ATOM     24  C   UNL     1       6.197   3.421  12.610  0.00  0.00    +0.000 A 
ATOM     25  N   UNL     1       5.861   3.452  13.919  0.00  0.00    +0.000 NA
ENDBRANCH  18  20
ENDBRANCH   6  15
TORSDOF 3
ENDMDL
MODEL 9
REMARK VINA RESULT:      -8.5      3.832      7.869
REMARK  Name = 
REMARK  3 active torsions:
REMARK  status: ('A' for Active; 'I' for Inactive)
REMARK    1  A    between atoms: C_6  and  C_7
REMARK    2  A    between atoms: C_12  and  N_13
REMARK    3  A    between atoms: C_16  and  C_17
REMARK                            x       y       z     vdW  Elec       q    Type
REMARK                         _______ _______ _______ _____ _____    ______ ____
ROOT
ATOM      1  C   UNL     1       3.738   5.088  18.795  0.00  0.00    +0.000 A 
ATOM      2  C   UNL     1       3.129   3.982  19.415  0.00  0.00    +0.000 A 
ATOM      3  C   UNL     1       2.113   4.153  20.357  0.00  0.00    +0.000 A 
ATOM      4  F   UNL     1       1.569   3.071  20.931  0.00  0.00    +0.000 F 
ATOM      5  C   UNL     1       1.650   5.413  20.706  0.00  0.00    +0.000 A 
ATOM      6  C   UNL     1       2.205   6.525  20.076  0.00  0.00    +0.000 A 
ATOM      7  C   UNL     1       3.250   6.359  19.144  0.00  0.00    +0.000 A 
ENDROOT
BRANCH   1  13
ATOM      8  F   UNL     1       8.428   4.204  17.801  0.00  0.00    +0.000 F 
ATOM      9  C   UNL     1       7.202   4.497  17.351  0.00  0.00    +0.000 A 
ATOM     10  C   UNL     1       6.998   4.674  15.992  0.00  0.00    +0.000 A 
ATOM     11  C   UNL     1       5.722   4.978  15.532  0.00  0.00    +0.000 A 
ATOM     12  C   UNL     1       4.663   5.094  16.441  0.00  0.00    +0.000 A 
ATOM     13  C   UNL     1       4.852   4.928  17.828  0.00  0.00    +0.000 A 
ATOM     14  C   UNL     1       6.155   4.625  18.262  0.00  0.00    +0.000 A 
ENDBRANCH   1  13
BRANCH   6  15
ATOM     15  N   UNL     1       1.708   7.821  20.335  0.00  0.00    +0.000 N 
ATOM     16  N   UNL     1       1.237   8.219  21.536  0.00  0.00    +0.000 NA
ATOM     17  N   UNL     1       0.730   9.428  21.331  0.00  0.00    +0.000 NA
ATOM     18  C   UNL     1       0.922   9.721  20.003  0.00  0.00    +0.000 A 
ATOM     19  N   UNL     1       1.584   8.746  19.354  0.00  0.00    +0.000 NA
BRANCH  18  20
ATOM     20  C   UNL     1       0.432  10.937  19.357  0.00  0.00    +0.000 A 
ATOM     21  C   UNL     1      -0.876  10.996  18.869  0.00  0.00    +0.000 A 
ATOM     22  C   UNL     1      -1.322  12.169  18.268  0.00  0.00    +0.000 A 
ATOM     23  C   UNL     1      -0.458  13.252  18.177  0.00  0.00    +0.000 A 
ATOM     24  C   UNL     1       0.821  13.117  18.693  0.00  0.00    +0.000 A 
ATOM     25  N   UNL     1       1.284  11.990  19.278  0.00  0.00    +0.000 NA
ENDBRANCH  18  20
ENDBRANCH   6  15
TORSDOF 3
ENDMDL
