MODEL 1
REMARK VINA RESULT:      -6.5      0.000      0.000
REMARK  Name = 
REMARK  7 active torsions:
REMARK  status: ('A' for Active; 'I' for Inactive)
REMARK    1  A    between atoms: C_1  and  C_2
REMARK    2  A    between atoms: C_4  and  C_5
REMARK    3  A    between atoms: C_7  and  O_8
REMARK    4  A    between atoms: O_8  and  C_9
REMARK    5  A    between atoms: C_9  and  C_10
REMARK    6  A    between atoms: C_10  and  N_11
REMARK    7  A    between atoms: C_10  and  C_12
REMARK                            x       y       z     vdW  Elec       q    Type
REMARK                         _______ _______ _______ _____ _____    ______ ____
ROOT
ATOM      1  O   UNL     1       5.310   3.669  16.345  0.00  0.00    +0.000 OA
ENDROOT
BRANCH   1   8
ATOM      2  C   UNL     1       2.748   7.400  18.267  0.00  0.00    +0.000 C 
ATOM      3  C   UNL     1       2.918   5.932  17.992  0.00  0.00    +0.000 A 
ATOM      4  C   UNL     1       1.932   5.021  18.402  0.00  0.00    +0.000 A 
ATOM      5  C   UNL     1       2.076   3.656  18.134  0.00  0.00    +0.000 A 
ATOM      6  C   UNL     1       1.031   2.666  18.555  0.00  0.00    +0.000 C 
ATOM      7  C   UNL     1       3.208   3.199  17.454  0.00  0.00    +0.000 A 
ATOM      8  C   UNL     1       4.210   4.094  17.030  0.00  0.00    +0.000 A 
ATOM      9  C   UNL     1       4.058   5.463  17.312  0.00  0.00    +0.000 A 
ENDBRANCH   1   8
BRANCH   1  10
ATOM     10  C   UNL     1       6.384   4.491  16.030  0.00  0.00    +0.000 C 
BRANCH  10  11
ATOM     11  C   UNL     1       6.422   4.855  14.535  0.00  0.00    +0.000 C 
BRANCH  11  12
ATOM     12  N   UNL     1       7.701   5.472  14.179  0.00  0.00    +0.000 NA
ATOM     13  H   UNL     1       8.375   4.738  13.859  0.00  0.00    +0.000 HD
ATOM     14  H   UNL     1       8.109   5.957  15.011  0.00  0.00    +0.000 HD
ENDBRANCH  11  12
BRANCH  11  15
ATOM     15  C   UNL     1       6.233   3.582  13.670  0.00  0.00    +0.000 C 
ATOM     16  C   UNL     1       5.130   3.721  12.620  0.00  0.00    +0.000 C 
ATOM     17  C   UNL     1       6.589   3.660  12.191  0.00  0.00    +0.000 C 
ENDBRANCH  11  15
ENDBRANCH  10  11
ENDBRANCH   1  10
TORSDOF 5
ENDMDL
MODEL 2
REMARK VINA RESULT:      -6.4      2.213      3.423
REMARK  Name = 
REMARK  7 active torsions:
REMARK  status: ('A' for Active; 'I' for Inactive)
REMARK    1  A    between atoms: C_1  and  C_2
REMARK    2  A    between atoms: C_4  and  C_5
REMARK    3  A    between atoms: C_7  and  O_8
REMARK    4  A    between atoms: O_8  and  C_9
REMARK    5  A    between atoms: C_9  and  C_10
REMARK    6  A    between atoms: C_10  and  N_11
REMARK    7  A    between atoms: C_10  and  C_12
REMARK                            x       y       z     vdW  Elec       q    Type
REMARK                         _______ _______ _______ _____ _____    ______ ____
ROOT
ATOM      1  O   UNL     1       5.401   4.134  18.986  0.00  0.00    +0.000 OA
ENDROOT
BRANCH   1   8
ATOM      2  C   UNL     1       1.324   2.710  21.338  0.00  0.00    +0.000 C 
ATOM      3  C   UNL     1       2.143   3.775  20.665  0.00  0.00    +0.000 A 
ATOM      4  C   UNL     1       1.668   5.095  20.603  0.00  0.00    +0.000 A 
ATOM      5  C   UNL     1       2.433   6.094  19.992  0.00  0.00    +0.000 A 
ATOM      6  C   UNL     1       1.948   7.511  19.922  0.00  0.00    +0.000 C 
ATOM      7  C   UNL     1       3.678   5.774  19.443  0.00  0.00    +0.000 A 
ATOM      8  C   UNL     1       4.179   4.458  19.496  0.00  0.00    +0.000 A 
ATOM      9  C   UNL     1       3.397   3.461  20.105  0.00  0.00    +0.000 A 
ENDBRANCH   1   8
BRANCH   1  10
ATOM     10  C   UNL     1       6.403   5.064  18.745  0.00  0.00    +0.000 C 
BRANCH  10  11
ATOM     11  C   UNL     1       6.954   4.969  17.311  0.00  0.00    +0.000 C 
BRANCH  11  12
ATOM     12  N   UNL     1       8.136   4.107  17.261  0.00  0.00    +0.000 NA
ATOM     13  H   UNL     1       8.887   4.493  17.880  0.00  0.00    +0.000 HD
ATOM     14  H   UNL     1       8.503   4.058  16.283  0.00  0.00    +0.000 HD
ENDBRANCH  11  12
BRANCH  11  15
ATOM     15  C   UNL     1       5.878   4.383  16.361  0.00  0.00    +0.000 C 
ATOM     16  C   UNL     1       5.438   5.357  15.268  0.00  0.00    +0.000 C 
ATOM     17  C   UNL     1       6.262   4.129  14.910  0.00  0.00    +0.000 C 
ENDBRANCH  11  15
ENDBRANCH  10  11
ENDBRANCH   1  10
TORSDOF 5
ENDMDL
MODEL 3
REMARK VINA RESULT:      -6.4      2.658      6.088
REMARK  Name = 
REMARK  7 active torsions:
REMARK  status: ('A' for Active; 'I' for Inactive)
REMARK    1  A    between atoms: C_1  and  C_2
REMARK    2  A    between atoms: C_4  and  C_5
REMARK    3  A    between atoms: C_7  and  O_8
REMARK    4  A    between atoms: O_8  and  C_9
REMARK    5  A    between atoms: C_9  and  C_10
REMARK    6  A    between atoms: C_10  and  N_11
REMARK    7  A    between atoms: C_10  and  C_12
REMARK                            x       y       z     vdW  Elec       q    Type
REMARK                         _______ _______ _______ _____ _____    ______ ____
ROOT
ATOM      1  O   UNL     1       3.588   3.759  17.667  0.00  0.00    +0.000 OA
ENDROOT
BRANCH   1   8
ATOM      2  C   UNL     1       6.555   4.263  13.777  0.00  0.00    +0.000 C 
ATOM      3  C   UNL     1       6.214   4.556  15.211  0.00  0.00    +0.000 A 
ATOM      4  C   UNL     1       7.039   5.400  15.972  0.00  0.00    +0.000 A 
ATOM      5  C   UNL     1       6.718   5.691  17.302  0.00  0.00    +0.000 A 
ATOM      6  C   UNL     1       7.580   6.596  18.130  0.00  0.00    +0.000 C 
ATOM      7  C   UNL     1       5.570   5.137  17.874  0.00  0.00    +0.000 A 
ATOM      8  C   UNL     1       4.725   4.289  17.131  0.00  0.00    +0.000 A 
ATOM      9  C   UNL     1       5.062   3.998  15.797  0.00  0.00    +0.000 A 
ENDBRANCH   1   8
BRANCH   1  10
ATOM     10  C   UNL     1       3.426   2.406  17.937  0.00  0.00    +0.000 C 
BRANCH  10  11
ATOM     11  C   UNL     1       3.434   2.108  19.447  0.00  0.00    +0.000 C 
BRANCH  11  12
ATOM     12  N   UNL     1       4.804   2.013  19.955  0.00  0.00    +0.000 NA
ATOM     13  H   UNL     1       5.051   1.010  20.129  0.00  0.00    +0.000 HD
ATOM     14  H   UNL     1       4.889   2.538  20.855  0.00  0.00    +0.000 HD
ENDBRANCH  11  12
BRANCH  11  15
ATOM     15  C   UNL     1       2.701   3.236  20.219  0.00  0.00    +0.000 C 
ATOM     16  C   UNL     1       1.253   2.892  20.566  0.00  0.00    +0.000 C 
ATOM     17  C   UNL     1       2.303   2.974  21.665  0.00  0.00    +0.000 C 
ENDBRANCH  11  15
ENDBRANCH  10  11
ENDBRANCH   1  10
TORSDOF 5
ENDMDL
MODEL 4
REMARK VINA RESULT:      -6.4      2.694      5.900
REMARK  Name = 
REMARK  7 active torsions:
REMARK  status: ('A' for Active; 'I' for Inactive)
REMARK    1  A    between atoms: C_1  and  C_2
REMARK    2  A    between atoms: C_4  and  C_5
REMARK    3  A    between atoms: C_7  and  O_8
REMARK    4  A    between atoms: O_8  and  C_9
REMARK    5  A    between atoms: C_9  and  C_10
REMARK    6  A    between atoms: C_10  and  N_11
REMARK    7  A    between atoms: C_10  and  C_12
REMARK                            x       y       z     vdW  Elec       q    Type
REMARK                         _______ _______ _______ _____ _____    ______ ____
ROOT
ATOM      1  O   UNL     1       3.225   4.653  17.820  0.00  0.00    +0.000 OA
ENDROOT
BRANCH   1   8
ATOM      2  C   UNL     1       7.547   6.998  17.862  0.00  0.00    +0.000 C 
ATOM      3  C   UNL     1       6.565   6.073  17.199  0.00  0.00    +0.000 A 
ATOM      4  C   UNL     1       6.889   5.463  15.978  0.00  0.00    +0.000 A 
ATOM      5  C   UNL     1       5.986   4.588  15.363  0.00  0.00    +0.000 A 
ATOM      6  C   UNL     1       6.314   3.918  14.063  0.00  0.00    +0.000 C 
ATOM      7  C   UNL     1       4.757   4.322  15.973  0.00  0.00    +0.000 A 
ATOM      8  C   UNL     1       4.410   4.920  17.200  0.00  0.00    +0.000 A 
ATOM      9  C   UNL     1       5.322   5.803  17.804  0.00  0.00    +0.000 A 
ENDBRANCH   1   8
BRANCH   1  10
ATOM     10  C   UNL     1       2.343   3.667  17.398  0.00  0.00    +0.000 C 
BRANCH  10  11
ATOM     11  C   UNL     1       1.851   2.788  18.561  0.00  0.00    +0.000 C 
BRANCH  11  12
ATOM     12  N   UNL     1       2.457   1.456  18.504  0.00  0.00    +0.000 NA
ATOM     13  H   UNL     1       3.185   1.427  17.752  0.00  0.00    +0.000 HD
ATOM     14  H   UNL     1       1.727   0.739  18.288  0.00  0.00    +0.000 HD
ENDBRANCH  11  12
BRANCH  11  15
ATOM     15  C   UNL     1       2.222   3.439  19.919  0.00  0.00    +0.000 C 
ATOM     16  C   UNL     1       1.043   4.130  20.603  0.00  0.00    +0.000 C 
ATOM     17  C   UNL     1       1.620   2.848  21.187  0.00  0.00    +0.000 C 
ENDBRANCH  11  15
ENDBRANCH  10  11
ENDBRANCH   1  10
TORSDOF 5
ENDMDL
MODEL 5
REMARK VINA RESULT:      -6.4      2.142      2.578
REMARK  Name = 
REMARK  7 active torsions:
REMARK  status: ('A' for Active; 'I' for Inactive)
REMARK    1  A    between atoms: C_1  and  C_2
REMARK    2  A    between atoms: C_4  and  C_5
REMARK    3  A    between atoms: C_7  and  O_8
REMARK    4  A    between atoms: O_8  and  C_9
REMARK    5  A    between atoms: C_9  and  C_10
REMARK    6  A    between atoms: C_10  and  N_11
REMARK    7  A    between atoms: C_10  and  C_12
REMARK                            x       y       z     vdW  Elec       q    Type
REMARK                         _______ _______ _______ _____ _____    ______ ____
ROOT
ATOM      1  O   UNL     1       5.145   4.049  18.716  0.00  0.00    +0.000 OA
ENDROOT
BRANCH   1   8
ATOM      2  C   UNL     1       1.927   7.541  19.995  0.00  0.00    +0.000 C 
ATOM      3  C   UNL     1       2.391   6.112  20.028  0.00  0.00    +0.000 A 
ATOM      4  C   UNL     1       1.633   5.142  20.703  0.00  0.00    +0.000 A 
ATOM      5  C   UNL     1       2.051   3.807  20.724  0.00  0.00    +0.000 A 
ATOM      6  C   UNL     1       1.253   2.753  21.432  0.00  0.00    +0.000 C 
ATOM      7  C   UNL     1       3.229   3.440  20.068  0.00  0.00    +0.000 A 
ATOM      8  C   UNL     1       4.006   4.394  19.381  0.00  0.00    +0.000 A 
ATOM      9  C   UNL     1       3.579   5.734  19.374  0.00  0.00    +0.000 A 
ENDBRANCH   1   8
BRANCH   1  10
ATOM     10  C   UNL     1       6.272   4.858  18.654  0.00  0.00    +0.000 C 
BRANCH  10  11
ATOM     11  C   UNL     1       6.858   4.935  17.233  0.00  0.00    +0.000 C 
BRANCH  11  12
ATOM     12  N   UNL     1       8.100   4.165  17.137  0.00  0.00    +0.000 NA
ATOM     13  H   UNL     1       8.686   4.324  17.990  0.00  0.00    +0.000 HD
ATOM     14  H   UNL     1       8.645   4.469  16.298  0.00  0.00    +0.000 HD
ENDBRANCH  11  12
BRANCH  11  15
ATOM     15  C   UNL     1       5.846   4.365  16.205  0.00  0.00    +0.000 C 
ATOM     16  C   UNL     1       5.498   5.349  15.089  0.00  0.00    +0.000 C 
ATOM     17  C   UNL     1       6.332   4.114  14.784  0.00  0.00    +0.000 C 
ENDBRANCH  11  15
ENDBRANCH  10  11
ENDBRANCH   1  10
TORSDOF 5
ENDMDL
MODEL 6
REMARK VINA RESULT:      -6.3      2.909      6.222
REMARK  Name = 
REMARK  7 active torsions:
REMARK  status: ('A' for Active; 'I' for Inactive)
REMARK    1  A    between atoms: C_1  and  C_2
REMARK    2  A    between atoms: C_4  and  C_5
REMARK    3  A    between atoms: C_7  and  O_8
REMARK    4  A    between atoms: O_8  and  C_9
REMARK    5  A    between atoms: C_9  and  C_10
REMARK    6  A    between atoms: C_10  and  N_11
REMARK    7  A    between atoms: C_10  and  C_12
REMARK                            x       y       z     vdW  Elec       q    Type
REMARK                         _______ _______ _______ _____ _____    ______ ____
ROOT
ATOM      1  O   UNL     1       3.137   4.696  17.901  0.00  0.00    +0.000 OA
ENDROOT
BRANCH   1   8
ATOM      2  C   UNL     1       6.494   4.030  14.371  0.00  0.00    +0.000 C 
ATOM      3  C   UNL     1       6.132   4.415  15.777  0.00  0.00    +0.000 A 
ATOM      4  C   UNL     1       7.127   4.850  16.666  0.00  0.00    +0.000 A 
ATOM      5  C   UNL     1       6.794   5.226  17.972  0.00  0.00    +0.000 A 
ATOM      6  C   UNL     1       7.840   5.701  18.935  0.00  0.00    +0.000 C 
ATOM      7  C   UNL     1       5.462   5.167  18.391  0.00  0.00    +0.000 A 
ATOM      8  C   UNL     1       4.444   4.737  17.517  0.00  0.00    +0.000 A 
ATOM      9  C   UNL     1       4.793   4.354  16.209  0.00  0.00    +0.000 A 
ENDBRANCH   1   8
BRANCH   1  10
ATOM     10  C   UNL     1       2.239   3.729  17.467  0.00  0.00    +0.000 C 
BRANCH  10  11
ATOM     11  C   UNL     1       1.328   3.228  18.602  0.00  0.00    +0.000 C 
BRANCH  11  12
ATOM     12  N   UNL     1       0.900   1.849  18.358  0.00  0.00    +0.000 NA
ATOM     13  H   UNL     1       1.097   1.259  19.201  0.00  0.00    +0.000 HD
ATOM     14  H   UNL     1       1.421   1.450  17.544  0.00  0.00    +0.000 HD
ENDBRANCH  11  12
BRANCH  11  15
ATOM     15  C   UNL     1       2.083   3.276  19.955  0.00  0.00    +0.000 C 
ATOM     16  C   UNL     1       1.536   4.329  20.918  0.00  0.00    +0.000 C 
ATOM     17  C   UNL     1       1.333   2.850  21.211  0.00  0.00    +0.000 C 
ENDBRANCH  11  15
ENDBRANCH  10  11
ENDBRANCH   1  10
TORSDOF 5
ENDMDL
MODEL 7
REMARK VINA RESULT:      -6.3      0.417      2.259
REMARK  Name = 
REMARK  7 active torsions:
REMARK  status: ('A' for Active; 'I' for Inactive)
REMARK    1  A    between atoms: C_1  and  C_2
REMARK    2  A    between atoms: C_4  and  C_5
REMARK    3  A    between atoms: C_7  and  O_8
REMARK    4  A    between atoms: O_8  and  C_9
REMARK    5  A    between atoms: C_9  and  C_10
REMARK    6  A    between atoms: C_10  and  N_11
REMARK    7  A    between atoms: C_10  and  C_12
REMARK                            x       y       z     vdW  Elec       q    Type
REMARK                         _______ _______ _______ _____ _____    ______ ____
ROOT
ATOM      1  O   UNL     1       4.847   3.855  16.163  0.00  0.00    +0.000 OA
ENDROOT
BRANCH   1   8
ATOM      2  C   UNL     1       0.947   2.323  18.737  0.00  0.00    +0.000 C 
ATOM      3  C   UNL     1       1.889   3.414  18.312  0.00  0.00    +0.000 A 
ATOM      4  C   UNL     1       1.743   4.711  18.829  0.00  0.00    +0.000 A 
ATOM      5  C   UNL     1       2.627   5.727  18.451  0.00  0.00    +0.000 A 
ATOM      6  C   UNL     1       2.495   7.117  18.997  0.00  0.00    +0.000 C 
ATOM      7  C   UNL     1       3.661   5.446  17.553  0.00  0.00    +0.000 A 
ATOM      8  C   UNL     1       3.830   4.152  17.022  0.00  0.00    +0.000 A 
ATOM      9  C   UNL     1       2.930   3.141  17.404  0.00  0.00    +0.000 A 
ENDBRANCH   1   8
BRANCH   1  10
ATOM     10  C   UNL     1       5.979   4.644  16.013  0.00  0.00    +0.000 C 
BRANCH  10  11
ATOM     11  C   UNL     1       6.316   4.906  14.534  0.00  0.00    +0.000 C 
BRANCH  11  12
ATOM     12  N   UNL     1       7.684   5.407  14.390  0.00  0.00    +0.000 NA
ATOM     13  H   UNL     1       8.349   4.784  14.906  0.00  0.00    +0.000 HD
ATOM     14  H   UNL     1       7.756   6.372  14.788  0.00  0.00    +0.000 HD
ENDBRANCH  11  12
BRANCH  11  15
ATOM     15  C   UNL     1       6.184   3.597  13.715  0.00  0.00    +0.000 C 
ATOM     16  C   UNL     1       5.122   3.672  12.618  0.00  0.00    +0.000 C 
ATOM     17  C   UNL     1       6.598   3.622  12.250  0.00  0.00    +0.000 C 
ENDBRANCH  11  15
ENDBRANCH  10  11
ENDBRANCH   1  10
TORSDOF 5
ENDMDL
MODEL 8
REMARK VINA RESULT:      -6.3      2.984      5.849
REMARK  Name = 
REMARK  7 active torsions:
REMARK  status: ('A' for Active; 'I' for Inactive)
REMARK    1  A    between atoms: C_1  and  C_2
REMARK    2  A    between atoms: C_4  and  C_5
REMARK    3  A    between atoms: C_7  and  O_8
REMARK    4  A    between atoms: O_8  and  C_9
REMARK    5  A    between atoms: C_9  and  C_10
REMARK    6  A    between atoms: C_10  and  N_11
REMARK    7  A    between atoms: C_10  and  C_12
REMARK                            x       y       z     vdW  Elec       q    Type
REMARK                         _______ _______ _______ _____ _____    ______ ____
ROOT
ATOM      1  O   UNL     1       5.186   3.660  19.407  0.00  0.00    +0.000 OA
ENDROOT
BRANCH   1   8
ATOM      2  C   UNL     1       7.754   7.532  17.797  0.00  0.00    +0.000 C 
ATOM      3  C   UNL     1       6.928   6.305  17.529  0.00  0.00    +0.000 A 
ATOM      4  C   UNL     1       6.682   5.897  16.209  0.00  0.00    +0.000 A 
ATOM      5  C   UNL     1       5.929   4.747  15.953  0.00  0.00    +0.000 A 
ATOM      6  C   UNL     1       5.661   4.288  14.551  0.00  0.00    +0.000 C 
ATOM      7  C   UNL     1       5.420   4.001  17.020  0.00  0.00    +0.000 A 
ATOM      8  C   UNL     1       5.655   4.388  18.354  0.00  0.00    +0.000 A 
ATOM      9  C   UNL     1       6.408   5.551  18.599  0.00  0.00    +0.000 A 
ENDBRANCH   1   8
BRANCH   1  10
ATOM     10  C   UNL     1       4.382   2.537  19.265  0.00  0.00    +0.000 C 
BRANCH  10  11
ATOM     11  C   UNL     1       2.894   2.899  19.114  0.00  0.00    +0.000 C 
BRANCH  11  12
ATOM     12  N   UNL     1       2.106   1.727  18.729  0.00  0.00    +0.000 NA
ATOM     13  H   UNL     1       2.585   1.214  17.952  0.00  0.00    +0.000 HD
ATOM     14  H   UNL     1       1.160   2.024  18.396  0.00  0.00    +0.000 HD
ENDBRANCH  11  12
BRANCH  11  15
ATOM     15  C   UNL     1       2.338   3.446  20.454  0.00  0.00    +0.000 C 
ATOM     16  C   UNL     1       2.013   4.939  20.412  0.00  0.00    +0.000 C 
ATOM     17  C   UNL     1       0.890   3.916  20.491  0.00  0.00    +0.000 C 
ENDBRANCH  11  15
ENDBRANCH  10  11
ENDBRANCH   1  10
TORSDOF 5
ENDMDL
MODEL 9
REMARK VINA RESULT:      -6.2      0.875      1.053
REMARK  Name = 
REMARK  7 active torsions:
REMARK  status: ('A' for Active; 'I' for Inactive)
REMARK    1  A    between atoms: C_1  and  C_2
REMARK    2  A    between atoms: C_4  and  C_5
REMARK    3  A    between atoms: C_7  and  O_8
REMARK    4  A    between atoms: O_8  and  C_9
REMARK    5  A    between atoms: C_9  and  C_10
REMARK    6  A    between atoms: C_10  and  N_11
REMARK    7  A    between atoms: C_10  and  C_12
REMARK                            x       y       z     vdW  Elec       q    Type
REMARK                         _______ _______ _______ _____ _____    ______ ____
ROOT
ATOM      1  O   UNL     1       6.153   5.609  16.522  0.00  0.00    +0.000 OA
ENDROOT
BRANCH   1   8
ATOM      2  C   UNL     1       2.274   7.946  18.440  0.00  0.00    +0.000 C 
ATOM      3  C   UNL     1       2.953   6.681  17.997  0.00  0.00    +0.000 A 
ATOM      4  C   UNL     1       2.278   5.453  18.082  0.00  0.00    +0.000 A 
ATOM      5  C   UNL     1       2.898   4.274  17.656  0.00  0.00    +0.000 A 
ATOM      6  C   UNL     1       2.192   2.953  17.731  0.00  0.00    +0.000 C 
ATOM      7  C   UNL     1       4.196   4.321  17.142  0.00  0.00    +0.000 A 
ATOM      8  C   UNL     1       4.894   5.541  17.043  0.00  0.00    +0.000 A 
ATOM      9  C   UNL     1       4.263   6.719  17.482  0.00  0.00    +0.000 A 
ENDBRANCH   1   8
BRANCH   1  10
ATOM     10  C   UNL     1       6.725   4.596  15.763  0.00  0.00    +0.000 C 
BRANCH  10  11
ATOM     11  C   UNL     1       6.602   4.859  14.252  0.00  0.00    +0.000 C 
BRANCH  11  12
ATOM     12  N   UNL     1       7.828   5.461  13.724  0.00  0.00    +0.000 NA
ATOM     13  H   UNL     1       8.181   6.192  14.386  0.00  0.00    +0.000 HD
ATOM     14  H   UNL     1       7.637   5.914  12.802  0.00  0.00    +0.000 HD
ENDBRANCH  11  12
BRANCH  11  15
ATOM     15  C   UNL     1       6.344   3.530  13.497  0.00  0.00    +0.000 C 
ATOM     16  C   UNL     1       5.183   3.611  12.506  0.00  0.00    +0.000 C 
ATOM     17  C   UNL     1       6.612   3.491  11.998  0.00  0.00    +0.000 C 
ENDBRANCH  11  15
ENDBRANCH  10  11
ENDBRANCH   1  10
TORSDOF 5
ENDMDL
