MODEL 1
REMARK VINA RESULT:      -6.6      0.000      0.000
REMARK  Name = 
REMARK  5 active torsions:
REMARK  status: ('A' for Active; 'I' for Inactive)
REMARK    1  A    between atoms: C_1  and  C_2
REMARK    2  A    between atoms: C_5  and  C_6
REMARK    3  A    between atoms: C_11  and  C_12
REMARK    4  A    between atoms: C_17  and  C_18
REMARK    5  A    between atoms: C_20  and  N_21
REMARK                            x       y       z     vdW  Elec       q    Type
REMARK                         _______ _______ _______ _____ _____    ______ ____
ROOT
ATOM      1  C   UNL     1       9.291  12.195  20.593  0.00  0.00    +0.000 A 
ATOM      2  N   UNL     1       9.479  10.837  20.374  0.00  0.00    +0.000 N 
ATOM      3  N   UNL     1      10.039  10.540  19.184  0.00  0.00    +0.000 NA
ATOM      4  C   UNL     1      10.200  11.738  18.639  0.00  0.00    +0.000 A 
ATOM      5  C   UNL     1       9.746  12.790  19.431  0.00  0.00    +0.000 A 
ATOM      6  C   UNL     1       9.840  14.197  18.954  0.00  0.00    +0.000 C 
ATOM      7  C   UNL     1      10.682  14.279  17.690  0.00  0.00    +0.000 C 
ATOM      8  C   UNL     1      11.103  13.179  17.014  0.00  0.00    +0.000 C 
ATOM      9  O   UNL     1      10.794  11.875  17.436  0.00  0.00    +0.000 OA
ATOM     10  H   UNL     1       9.285  10.078  21.017  0.00  0.00    +0.000 HD
ENDROOT
BRANCH   1  15
ATOM     11  C   UNL     1       7.471  14.394  25.618  0.00  0.00    +0.000 C 
ATOM     12  C   UNL     1       7.907  13.833  24.300  0.00  0.00    +0.000 A 
ATOM     13  C   UNL     1       8.805  14.538  23.503  0.00  0.00    +0.000 A 
ATOM     14  C   UNL     1       9.223  14.002  22.288  0.00  0.00    +0.000 A 
ATOM     15  C   UNL     1       8.773  12.751  21.841  0.00  0.00    +0.000 A 
ATOM     16  C   UNL     1       7.849  12.064  22.632  0.00  0.00    +0.000 A 
ATOM     17  C   UNL     1       7.420  12.601  23.851  0.00  0.00    +0.000 A 
ENDBRANCH   1  15
BRANCH   6  18
ATOM     18  C   UNL     1       8.461  14.794  18.743  0.00  0.00    +0.000 A 
ATOM     19  C   UNL     1       7.439  14.225  17.905  0.00  0.00    +0.000 A 
ATOM     20  C   UNL     1       6.278  14.963  17.908  0.00  0.00    +0.000 A 
ATOM     21  S   UNL     1       6.400  16.347  18.900  0.00  0.00    +0.000 S 
ATOM     22  C   UNL     1       8.008  15.961  19.333  0.00  0.00    +0.000 A 
ENDBRANCH   6  18
BRANCH   8  23
ATOM     23  N   UNL     1      11.887  13.214  15.894  0.00  0.00    +0.000 N 
ATOM     24  H   UNL     1      11.606  13.742  15.076  0.00  0.00    +0.000 HD
ATOM     25  H   UNL     1      12.564  12.466  15.779  0.00  0.00    +0.000 HD
ENDBRANCH   8  23
BRANCH   7  26
ATOM     26  C   UNL     1      11.082  15.584  17.281  0.00  0.00    +0.000 C 
ATOM     27  N   UNL     1      11.402  16.650  16.971  0.00  0.00    +0.000 NA
ENDBRANCH   7  26
TORSDOF 4
ENDMDL
MODEL 2
REMARK VINA RESULT:      -6.2      1.537      1.941
REMARK  Name = 
REMARK  5 active torsions:
REMARK  status: ('A' for Active; 'I' for Inactive)
REMARK    1  A    between atoms: C_1  and  C_2
REMARK    2  A    between atoms: C_5  and  C_6
REMARK    3  A    between atoms: C_11  and  C_12
REMARK    4  A    between atoms: C_17  and  C_18
REMARK    5  A    between atoms: C_20  and  N_21
REMARK                            x       y       z     vdW  Elec       q    Type
REMARK                         _______ _______ _______ _____ _____    ______ ____
ROOT
ATOM      1  C   UNL     1       9.555  12.944  20.479  0.00  0.00    +0.000 A 
ATOM      2  N   UNL     1      10.351  11.948  19.931  0.00  0.00    +0.000 N 
ATOM      3  N   UNL     1      10.855  12.247  18.716  0.00  0.00    +0.000 NA
ATOM      4  C   UNL     1      10.359  13.456  18.492  0.00  0.00    +0.000 A 
ATOM      5  C   UNL     1       9.541  13.934  19.514  0.00  0.00    +0.000 A 
ATOM      6  C   UNL     1       8.893  15.270  19.406  0.00  0.00    +0.000 C 
ATOM      7  C   UNL     1       9.453  16.043  18.222  0.00  0.00    +0.000 C 
ATOM      8  C   UNL     1      10.277  15.482  17.301  0.00  0.00    +0.000 C 
ATOM      9  O   UNL     1      10.682  14.138  17.376  0.00  0.00    +0.000 OA
ATOM     10  H   UNL     1      10.616  11.068  20.359  0.00  0.00    +0.000 HD
ENDROOT
BRANCH   1  15
ATOM     11  C   UNL     1       7.457  12.698  25.858  0.00  0.00    +0.000 C 
ATOM     12  C   UNL     1       7.964  12.764  24.451  0.00  0.00    +0.000 A 
ATOM     13  C   UNL     1       8.536  13.937  23.968  0.00  0.00    +0.000 A 
ATOM     14  C   UNL     1       9.023  13.986  22.665  0.00  0.00    +0.000 A 
ATOM     15  C   UNL     1       8.969  12.871  21.816  0.00  0.00    +0.000 A 
ATOM     16  C   UNL     1       8.366  11.706  22.297  0.00  0.00    +0.000 A 
ATOM     17  C   UNL     1       7.867  11.654  23.604  0.00  0.00    +0.000 A 
ENDBRANCH   1  15
BRANCH   6  18
ATOM     18  C   UNL     1       7.383  15.139  19.323  0.00  0.00    +0.000 A 
ATOM     19  C   UNL     1       6.480  15.333  20.426  0.00  0.00    +0.000 A 
ATOM     20  C   UNL     1       5.162  15.169  20.068  0.00  0.00    +0.000 A 
ATOM     21  S   UNL     1       4.990  14.771  18.418  0.00  0.00    +0.000 S 
ATOM     22  C   UNL     1       6.681  14.820  18.174  0.00  0.00    +0.000 A 
ENDBRANCH   6  18
BRANCH   8  23
ATOM     23  N   UNL     1      10.824  16.154  16.242  0.00  0.00    +0.000 N 
ATOM     24  H   UNL     1      11.272  17.054  16.370  0.00  0.00    +0.000 HD
ATOM     25  H   UNL     1      10.495  15.903  15.315  0.00  0.00    +0.000 HD
ENDBRANCH   8  23
BRANCH   7  26
ATOM     26  C   UNL     1       9.127  17.429  18.162  0.00  0.00    +0.000 C 
ATOM     27  N   UNL     1       8.857  18.550  18.093  0.00  0.00    +0.000 NA
ENDBRANCH   7  26
TORSDOF 4
ENDMDL
MODEL 3
REMARK VINA RESULT:      -6.2     11.270     13.732
REMARK  Name = 
REMARK  5 active torsions:
REMARK  status: ('A' for Active; 'I' for Inactive)
REMARK    1  A    between atoms: C_1  and  C_2
REMARK    2  A    between atoms: C_5  and  C_6
REMARK    3  A    between atoms: C_11  and  C_12
REMARK    4  A    between atoms: C_17  and  C_18
REMARK    5  A    between atoms: C_20  and  N_21
REMARK                            x       y       z     vdW  Elec       q    Type
REMARK                         _______ _______ _______ _____ _____    ______ ____
ROOT
ATOM      1  C   UNL     1      -4.482  12.337  20.860  0.00  0.00    +0.000 A 
ATOM      2  N   UNL     1      -5.781  12.161  21.315  0.00  0.00    +0.000 N 
ATOM      3  N   UNL     1      -5.989  12.591  22.576  0.00  0.00    +0.000 NA
ATOM      4  C   UNL     1      -4.791  13.041  22.924  0.00  0.00    +0.000 A 
ATOM      5  C   UNL     1      -3.820  12.897  21.936  0.00  0.00    +0.000 A 
ATOM      6  C   UNL     1      -2.419  13.339  22.177  0.00  0.00    +0.000 C 
ATOM      7  C   UNL     1      -2.323  14.137  23.468  0.00  0.00    +0.000 C 
ATOM      8  C   UNL     1      -3.352  14.240  24.348  0.00  0.00    +0.000 C 
ATOM      9  O   UNL     1      -4.592  13.615  24.127  0.00  0.00    +0.000 OA
ATOM     10  H   UNL     1      -6.571  11.796  20.796  0.00  0.00    +0.000 HD
ENDROOT
BRANCH   1  15
ATOM     11  C   UNL     1      -2.872  10.853  15.511  0.00  0.00    +0.000 C 
ATOM     12  C   UNL     1      -3.280  11.275  16.889  0.00  0.00    +0.000 A 
ATOM     13  C   UNL     1      -4.628  11.351  17.226  0.00  0.00    +0.000 A 
ATOM     14  C   UNL     1      -5.001  11.725  18.514  0.00  0.00    +0.000 A 
ATOM     15  C   UNL     1      -4.049  12.017  19.501  0.00  0.00    +0.000 A 
ATOM     16  C   UNL     1      -2.698  11.967  19.147  0.00  0.00    +0.000 A 
ATOM     17  C   UNL     1      -2.318  11.600  17.851  0.00  0.00    +0.000 A 
ENDBRANCH   1  15
BRANCH   6  18
ATOM     18  C   UNL     1      -1.468  12.156  22.183  0.00  0.00    +0.000 A 
ATOM     19  C   UNL     1      -1.534  11.053  23.105  0.00  0.00    +0.000 A 
ATOM     20  C   UNL     1      -0.560  10.110  22.875  0.00  0.00    +0.000 A 
ATOM     21  S   UNL     1       0.449  10.535  21.567  0.00  0.00    +0.000 S 
ATOM     22  C   UNL     1      -0.417  11.984  21.299  0.00  0.00    +0.000 A 
ENDBRANCH   6  18
BRANCH   8  23
ATOM     23  N   UNL     1      -3.313  14.974  25.501  0.00  0.00    +0.000 N 
ATOM     24  H   UNL     1      -2.525  14.908  26.134  0.00  0.00    +0.000 HD
ATOM     25  H   UNL     1      -4.198  15.318  25.861  0.00  0.00    +0.000 HD
ENDBRANCH   8  23
BRANCH   7  26
ATOM     26  C   UNL     1      -1.108  14.850  23.681  0.00  0.00    +0.000 C 
ATOM     27  N   UNL     1      -0.119  15.429  23.832  0.00  0.00    +0.000 NA
ENDBRANCH   7  26
TORSDOF 4
ENDMDL
MODEL 4
REMARK VINA RESULT:      -6.1      1.355      1.853
REMARK  Name = 
REMARK  5 active torsions:
REMARK  status: ('A' for Active; 'I' for Inactive)
REMARK    1  A    between atoms: C_1  and  C_2
REMARK    2  A    between atoms: C_5  and  C_6
REMARK    3  A    between atoms: C_11  and  C_12
REMARK    4  A    between atoms: C_17  and  C_18
REMARK    5  A    between atoms: C_20  and  N_21
REMARK                            x       y       z     vdW  Elec       q    Type
REMARK                         _______ _______ _______ _____ _____    ______ ____
ROOT
ATOM      1  C   UNL     1       9.631  12.690  20.539  0.00  0.00    +0.000 A 
ATOM      2  N   UNL     1      10.349  11.597  20.075  0.00  0.00    +0.000 N 
ATOM      3  N   UNL     1      10.906  11.776  18.860  0.00  0.00    +0.000 NA
ATOM      4  C   UNL     1      10.523  13.007  18.550  0.00  0.00    +0.000 A 
ATOM      5  C   UNL     1       9.725  13.616  19.517  0.00  0.00    +0.000 A 
ATOM      6  C   UNL     1       9.200  14.993  19.312  0.00  0.00    +0.000 C 
ATOM      7  C   UNL     1       9.852  15.640  18.099  0.00  0.00    +0.000 C 
ATOM      8  C   UNL     1      10.646  14.955  17.237  0.00  0.00    +0.000 C 
ATOM      9  O   UNL     1      10.930  13.589  17.404  0.00  0.00    +0.000 OA
ATOM     10  H   UNL     1      10.527  10.726  20.562  0.00  0.00    +0.000 HD
ENDROOT
BRANCH   1  15
ATOM     11  C   UNL     1       6.958  12.893  25.659  0.00  0.00    +0.000 C 
ATOM     12  C   UNL     1       7.685  12.837  24.352  0.00  0.00    +0.000 A 
ATOM     13  C   UNL     1       7.642  11.682  23.577  0.00  0.00    +0.000 A 
ATOM     14  C   UNL     1       8.304  11.643  22.353  0.00  0.00    +0.000 A 
ATOM     15  C   UNL     1       9.009  12.751  21.861  0.00  0.00    +0.000 A 
ATOM     16  C   UNL     1       9.073  13.896  22.658  0.00  0.00    +0.000 A 
ATOM     17  C   UNL     1       8.416  13.939  23.893  0.00  0.00    +0.000 A 
ENDBRANCH   1  15
BRANCH   6  18
ATOM     18  C   UNL     1       7.686  14.987  19.193  0.00  0.00    +0.000 A 
ATOM     19  C   UNL     1       6.778  15.334  20.254  0.00  0.00    +0.000 A 
ATOM     20  C   UNL     1       5.460  15.259  19.869  0.00  0.00    +0.000 A 
ATOM     21  S   UNL     1       5.292  14.765  18.245  0.00  0.00    +0.000 S 
ATOM     22  C   UNL     1       6.986  14.652  18.048  0.00  0.00    +0.000 A 
ENDBRANCH   6  18
BRANCH   8  23
ATOM     23  N   UNL     1      11.273  15.511  16.157  0.00  0.00    +0.000 N 
ATOM     24  H   UNL     1      10.761  15.722  15.308  0.00  0.00    +0.000 HD
ATOM     25  H   UNL     1      12.282  15.405  16.102  0.00  0.00    +0.000 HD
ENDBRANCH   8  23
BRANCH   7  26
ATOM     26  C   UNL     1       9.650  17.043  17.948  0.00  0.00    +0.000 C 
ATOM     27  N   UNL     1       9.475  18.181  17.844  0.00  0.00    +0.000 NA
ENDBRANCH   7  26
TORSDOF 4
ENDMDL
MODEL 5
REMARK VINA RESULT:      -6.0      9.436     10.896
REMARK  Name = 
REMARK  5 active torsions:
REMARK  status: ('A' for Active; 'I' for Inactive)
REMARK    1  A    between atoms: C_1  and  C_2
REMARK    2  A    between atoms: C_5  and  C_6
REMARK    3  A    between atoms: C_11  and  C_12
REMARK    4  A    between atoms: C_17  and  C_18
REMARK    5  A    between atoms: C_20  and  N_21
REMARK                            x       y       z     vdW  Elec       q    Type
REMARK                         _______ _______ _______ _____ _____    ______ ____
ROOT
ATOM      1  C   UNL     1      -0.883  12.366  21.619  0.00  0.00    +0.000 A 
ATOM      2  N   UNL     1      -1.030  12.009  22.952  0.00  0.00    +0.000 N 
ATOM      3  N   UNL     1      -0.579  10.773  23.247  0.00  0.00    +0.000 NA
ATOM      4  C   UNL     1      -0.145  10.340  22.071  0.00  0.00    +0.000 A 
ATOM      5  C   UNL     1      -0.319  11.250  21.030  0.00  0.00    +0.000 A 
ATOM      6  C   UNL     1       0.101  10.907  19.644  0.00  0.00    +0.000 C 
ATOM      7  C   UNL     1       0.916   9.623  19.632  0.00  0.00    +0.000 C 
ATOM      8  C   UNL     1       1.049   8.826  20.723  0.00  0.00    +0.000 C 
ATOM      9  O   UNL     1       0.443   9.133  21.954  0.00  0.00    +0.000 OA
ATOM     10  H   UNL     1      -1.389  12.583  23.706  0.00  0.00    +0.000 HD
ENDROOT
BRANCH   1  15
ATOM     11  C   UNL     1      -2.071  17.669  19.653  0.00  0.00    +0.000 C 
ATOM     12  C   UNL     1      -1.787  16.280  20.135  0.00  0.00    +0.000 A 
ATOM     13  C   UNL     1      -0.559  15.684  19.862  0.00  0.00    +0.000 A 
ATOM     14  C   UNL     1      -0.293  14.400  20.330  0.00  0.00    +0.000 A 
ATOM     15  C   UNL     1      -1.230  13.683  21.089  0.00  0.00    +0.000 A 
ATOM     16  C   UNL     1      -2.471  14.277  21.332  0.00  0.00    +0.000 A 
ATOM     17  C   UNL     1      -2.747  15.565  20.858  0.00  0.00    +0.000 A 
ENDBRANCH   1  15
BRANCH   6  18
ATOM     18  C   UNL     1      -1.098  10.814  18.718  0.00  0.00    +0.000 A 
ATOM     19  C   UNL     1      -1.557  11.874  17.860  0.00  0.00    +0.000 A 
ATOM     20  C   UNL     1      -2.656  11.515  17.114  0.00  0.00    +0.000 A 
ATOM     21  S   UNL     1      -3.157   9.916  17.438  0.00  0.00    +0.000 S 
ATOM     22  C   UNL     1      -1.901   9.696  18.577  0.00  0.00    +0.000 A 
ENDBRANCH   6  18
BRANCH   8  23
ATOM     23  N   UNL     1       1.798   7.683  20.759  0.00  0.00    +0.000 N 
ATOM     24  H   UNL     1       2.810   7.722  20.725  0.00  0.00    +0.000 HD
ATOM     25  H   UNL     1       1.336   6.818  20.495  0.00  0.00    +0.000 HD
ENDBRANCH   8  23
BRANCH   7  26
ATOM     26  C   UNL     1       1.610   9.327  18.423  0.00  0.00    +0.000 C 
ATOM     27  N   UNL     1       2.183   9.107  17.444  0.00  0.00    +0.000 NA
ENDBRANCH   7  26
TORSDOF 4
ENDMDL
MODEL 6
REMARK VINA RESULT:      -6.0      9.416     10.979
REMARK  Name = 
REMARK  5 active torsions:
REMARK  status: ('A' for Active; 'I' for Inactive)
REMARK    1  A    between atoms: C_1  and  C_2
REMARK    2  A    between atoms: C_5  and  C_6
REMARK    3  A    between atoms: C_11  and  C_12
REMARK    4  A    between atoms: C_17  and  C_18
REMARK    5  A    between atoms: C_20  and  N_21
REMARK                            x       y       z     vdW  Elec       q    Type
REMARK                         _______ _______ _______ _____ _____    ______ ____
ROOT
ATOM      1  C   UNL     1      -0.978  12.108  21.811  0.00  0.00    +0.000 A 
ATOM      2  N   UNL     1      -1.150  11.648  23.109  0.00  0.00    +0.000 N 
ATOM      3  N   UNL     1      -0.680  10.402  23.322  0.00  0.00    +0.000 NA
ATOM      4  C   UNL     1      -0.209  10.069  22.128  0.00  0.00    +0.000 A 
ATOM      5  C   UNL     1      -0.376  11.051  21.155  0.00  0.00    +0.000 A 
ATOM      6  C   UNL     1       0.085  10.824  19.758  0.00  0.00    +0.000 C 
ATOM      7  C   UNL     1       0.927   9.560  19.671  0.00  0.00    +0.000 C 
ATOM      8  C   UNL     1       1.050   8.686  20.701  0.00  0.00    +0.000 C 
ATOM      9  O   UNL     1       0.407   8.886  21.936  0.00  0.00    +0.000 OA
ATOM     10  H   UNL     1      -1.540  12.156  23.895  0.00  0.00    +0.000 HD
ENDROOT
BRANCH   1  15
ATOM     11  C   UNL     1      -2.574  17.337  19.935  0.00  0.00    +0.000 C 
ATOM     12  C   UNL     1      -2.141  15.999  20.450  0.00  0.00    +0.000 A 
ATOM     13  C   UNL     1      -3.044  15.185  21.127  0.00  0.00    +0.000 A 
ATOM     14  C   UNL     1      -2.641  13.934  21.586  0.00  0.00    +0.000 A 
ATOM     15  C   UNL     1      -1.340  13.456  21.374  0.00  0.00    +0.000 A 
ATOM     16  C   UNL     1      -0.430  14.291  20.721  0.00  0.00    +0.000 A 
ATOM     17  C   UNL     1      -0.828  15.553  20.263  0.00  0.00    +0.000 A 
ENDBRANCH   1  15
BRANCH   6  18
ATOM     18  C   UNL     1      -1.088  10.779  18.797  0.00  0.00    +0.000 A 
ATOM     19  C   UNL     1      -1.539  11.888  17.998  0.00  0.00    +0.000 A 
ATOM     20  C   UNL     1      -2.613  11.566  17.202  0.00  0.00    +0.000 A 
ATOM     21  S   UNL     1      -3.101   9.944  17.406  0.00  0.00    +0.000 S 
ATOM     22  C   UNL     1      -1.873   9.663  18.561  0.00  0.00    +0.000 A 
ENDBRANCH   6  18
BRANCH   8  23
ATOM     23  N   UNL     1       1.823   7.557  20.670  0.00  0.00    +0.000 N 
ATOM     24  H   UNL     1       1.462   6.669  20.998  0.00  0.00    +0.000 HD
ATOM     25  H   UNL     1       2.829   7.686  20.625  0.00  0.00    +0.000 HD
ENDBRANCH   8  23
BRANCH   7  26
ATOM     26  C   UNL     1       1.658   9.371  18.462  0.00  0.00    +0.000 C 
ATOM     27  N   UNL     1       2.234   9.201  17.475  0.00  0.00    +0.000 NA
ENDBRANCH   7  26
TORSDOF 4
ENDMDL
MODEL 7
REMARK VINA RESULT:      -5.9      8.870     10.868
REMARK  Name = 
REMARK  5 active torsions:
REMARK  status: ('A' for Active; 'I' for Inactive)
REMARK    1  A    between atoms: C_1  and  C_2
REMARK    2  A    between atoms: C_5  and  C_6
REMARK    3  A    between atoms: C_11  and  C_12
REMARK    4  A    between atoms: C_17  and  C_18
REMARK    5  A    between atoms: C_20  and  N_21
REMARK                            x       y       z     vdW  Elec       q    Type
REMARK                         _______ _______ _______ _____ _____    ______ ____
ROOT
ATOM      1  C   UNL     1       1.539  11.337  18.574  0.00  0.00    +0.000 A 
ATOM      2  N   UNL     1       2.541  12.173  18.100  0.00  0.00    +0.000 N 
ATOM      3  N   UNL     1       2.213  13.481  18.092  0.00  0.00    +0.000 NA
ATOM      4  C   UNL     1       0.974  13.467  18.565  0.00  0.00    +0.000 A 
ATOM      5  C   UNL     1       0.492  12.193  18.858  0.00  0.00    +0.000 A 
ATOM      6  C   UNL     1      -0.889  12.006  19.383  0.00  0.00    +0.000 C 
ATOM      7  C   UNL     1      -1.508  13.345  19.752  0.00  0.00    +0.000 C 
ATOM      8  C   UNL     1      -0.928  14.533  19.446  0.00  0.00    +0.000 C 
ATOM      9  O   UNL     1       0.298  14.615  18.763  0.00  0.00    +0.000 OA
ATOM     10  H   UNL     1       3.477  11.910  17.812  0.00  0.00    +0.000 HD
ENDROOT
BRANCH   1  15
ATOM     11  C   UNL     1       2.337   5.677  19.427  0.00  0.00    +0.000 C 
ATOM     12  C   UNL     1       2.098   7.135  19.184  0.00  0.00    +0.000 A 
ATOM     13  C   UNL     1       1.591   7.939  20.201  0.00  0.00    +0.000 A 
ATOM     14  C   UNL     1       1.390   9.298  19.976  0.00  0.00    +0.000 A 
ATOM     15  C   UNL     1       1.700   9.895  18.745  0.00  0.00    +0.000 A 
ATOM     16  C   UNL     1       2.180   9.076  17.720  0.00  0.00    +0.000 A 
ATOM     17  C   UNL     1       2.377   7.707  17.938  0.00  0.00    +0.000 A 
ENDBRANCH   1  15
BRANCH   6  18
ATOM     18  C   UNL     1      -1.751  11.249  18.389  0.00  0.00    +0.000 A 
ATOM     19  C   UNL     1      -2.331   9.953  18.625  0.00  0.00    +0.000 A 
ATOM     20  C   UNL     1      -3.081   9.506  17.563  0.00  0.00    +0.000 A 
ATOM     21  S   UNL     1      -3.092  10.620  16.270  0.00  0.00    +0.000 S 
ATOM     22  C   UNL     1      -2.093  11.709  17.130  0.00  0.00    +0.000 A 
ENDBRANCH   6  18
BRANCH   8  23
ATOM     23  N   UNL     1      -1.439  15.755  19.789  0.00  0.00    +0.000 N 
ATOM     24  H   UNL     1      -2.356  16.044  19.470  0.00  0.00    +0.000 HD
ATOM     25  H   UNL     1      -0.778  16.468  20.080  0.00  0.00    +0.000 HD
ENDBRANCH   8  23
BRANCH   7  26
ATOM     26  C   UNL     1      -2.710  13.295  20.517  0.00  0.00    +0.000 C 
ATOM     27  N   UNL     1      -3.689  13.235  21.128  0.00  0.00    +0.000 NA
ENDBRANCH   7  26
TORSDOF 4
ENDMDL
MODEL 8
REMARK VINA RESULT:      -5.9      9.254     11.689
REMARK  Name = 
REMARK  5 active torsions:
REMARK  status: ('A' for Active; 'I' for Inactive)
REMARK    1  A    between atoms: C_1  and  C_2
REMARK    2  A    between atoms: C_5  and  C_6
REMARK    3  A    between atoms: C_11  and  C_12
REMARK    4  A    between atoms: C_17  and  C_18
REMARK    5  A    between atoms: C_20  and  N_21
REMARK                            x       y       z     vdW  Elec       q    Type
REMARK                         _______ _______ _______ _____ _____    ______ ____
ROOT
ATOM      1  C   UNL     1       4.792   3.426  16.392  0.00  0.00    +0.000 A 
ATOM      2  N   UNL     1       4.505   2.147  16.849  0.00  0.00    +0.000 N 
ATOM      3  N   UNL     1       3.778   2.115  17.984  0.00  0.00    +0.000 NA
ATOM      4  C   UNL     1       3.611   3.403  18.251  0.00  0.00    +0.000 A 
ATOM      5  C   UNL     1       4.220   4.258  17.336  0.00  0.00    +0.000 A 
ATOM      6  C   UNL     1       4.139   5.735  17.504  0.00  0.00    +0.000 C 
ATOM      7  C   UNL     1       3.143   6.096  18.596  0.00  0.00    +0.000 C 
ATOM      8  C   UNL     1       2.579   5.170  19.413  0.00  0.00    +0.000 C 
ATOM      9  O   UNL     1       2.872   3.799  19.307  0.00  0.00    +0.000 OA
ATOM     10  H   UNL     1       4.741   1.268  16.404  0.00  0.00    +0.000 HD
ENDROOT
BRANCH   1  15
ATOM     11  C   UNL     1       7.560   4.752  11.494  0.00  0.00    +0.000 C 
ATOM     12  C   UNL     1       6.855   4.371  12.759  0.00  0.00    +0.000 A 
ATOM     13  C   UNL     1       7.380   4.748  13.992  0.00  0.00    +0.000 A 
ATOM     14  C   UNL     1       6.709   4.408  15.164  0.00  0.00    +0.000 A 
ATOM     15  C   UNL     1       5.498   3.701  15.142  0.00  0.00    +0.000 A 
ATOM     16  C   UNL     1       4.993   3.301  13.902  0.00  0.00    +0.000 A 
ATOM     17  C   UNL     1       5.667   3.633  12.721  0.00  0.00    +0.000 A 
ENDBRANCH   1  15
BRANCH   6  18
ATOM     18  C   UNL     1       5.508   6.328  17.782  0.00  0.00    +0.000 A 
ATOM     19  C   UNL     1       6.455   5.801  18.728  0.00  0.00    +0.000 A 
ATOM     20  C   UNL     1       7.624   6.524  18.768  0.00  0.00    +0.000 A 
ATOM     21  S   UNL     1       7.600   7.843  17.686  0.00  0.00    +0.000 S 
ATOM     22  C   UNL     1       6.023   7.450  17.157  0.00  0.00    +0.000 A 
ENDBRANCH   6  18
BRANCH   8  23
ATOM     23  N   UNL     1       1.657   5.453  20.382  0.00  0.00    +0.000 N 
ATOM     24  H   UNL     1       0.669   5.297  20.223  0.00  0.00    +0.000 HD
ATOM     25  H   UNL     1       1.936   6.104  21.110  0.00  0.00    +0.000 HD
ENDBRANCH   8  23
BRANCH   7  26
ATOM     26  C   UNL     1       2.763   7.467  18.675  0.00  0.00    +0.000 C 
ATOM     27  N   UNL     1       2.435   8.574  18.728  0.00  0.00    +0.000 NA
ENDBRANCH   7  26
TORSDOF 4
ENDMDL
MODEL 9
REMARK VINA RESULT:      -5.9     12.433     14.957
REMARK  Name = 
REMARK  5 active torsions:
REMARK  status: ('A' for Active; 'I' for Inactive)
REMARK    1  A    between atoms: C_1  and  C_2
REMARK    2  A    between atoms: C_5  and  C_6
REMARK    3  A    between atoms: C_11  and  C_12
REMARK    4  A    between atoms: C_17  and  C_18
REMARK    5  A    between atoms: C_20  and  N_21
REMARK                            x       y       z     vdW  Elec       q    Type
REMARK                         _______ _______ _______ _____ _____    ______ ____
ROOT
ATOM      1  C   UNL     1      -2.918  12.483  19.728  0.00  0.00    +0.000 A 
ATOM      2  N   UNL     1      -1.751  13.108  20.145  0.00  0.00    +0.000 N 
ATOM      3  N   UNL     1      -1.847  13.715  21.345  0.00  0.00    +0.000 NA
ATOM      4  C   UNL     1      -3.104  13.471  21.687  0.00  0.00    +0.000 A 
ATOM      5  C   UNL     1      -3.822  12.745  20.739  0.00  0.00    +0.000 A 
ATOM      6  C   UNL     1      -5.253  12.404  20.967  0.00  0.00    +0.000 C 
ATOM      7  C   UNL     1      -5.660  12.730  22.396  0.00  0.00    +0.000 C 
ATOM      8  C   UNL     1      -4.861  13.417  23.251  0.00  0.00    +0.000 C 
ATOM      9  O   UNL     1      -3.586  13.878  22.879  0.00  0.00    +0.000 OA
ATOM     10  H   UNL     1      -0.854  13.115  19.672  0.00  0.00    +0.000 HD
ENDROOT
BRANCH   1  15
ATOM     11  C   UNL     1      -3.127   9.484  14.791  0.00  0.00    +0.000 C 
ATOM     12  C   UNL     1      -3.101  10.238  16.085  0.00  0.00    +0.000 A 
ATOM     13  C   UNL     1      -2.045  10.062  16.974  0.00  0.00    +0.000 A 
ATOM     14  C   UNL     1      -2.016  10.780  18.167  0.00  0.00    +0.000 A 
ATOM     15  C   UNL     1      -3.023  11.699  18.498  0.00  0.00    +0.000 A 
ATOM     16  C   UNL     1      -4.094  11.848  17.614  0.00  0.00    +0.000 A 
ATOM     17  C   UNL     1      -4.133  11.122  16.418  0.00  0.00    +0.000 A 
ENDBRANCH   1  15
BRANCH   6  18
ATOM     18  C   UNL     1      -6.147  13.104  19.960  0.00  0.00    +0.000 A 
ATOM     19  C   UNL     1      -7.181  12.461  19.193  0.00  0.00    +0.000 A 
ATOM     20  C   UNL     1      -7.850  13.334  18.367  0.00  0.00    +0.000 A 
ATOM     21  S   UNL     1      -7.245  14.924  18.489  0.00  0.00    +0.000 S 
ATOM     22  C   UNL     1      -6.085  14.452  19.653  0.00  0.00    +0.000 A 
ENDBRANCH   6  18
BRANCH   8  23
ATOM     23  N   UNL     1      -5.181  13.699  24.550  0.00  0.00    +0.000 N 
ATOM     24  H   UNL     1      -6.035  13.347  24.965  0.00  0.00    +0.000 HD
ATOM     25  H   UNL     1      -4.733  14.507  24.972  0.00  0.00    +0.000 HD
ENDBRANCH   8  23
BRANCH   7  26
ATOM     26  C   UNL     1      -6.913  12.205  22.830  0.00  0.00    +0.000 C 
ATOM     27  N   UNL     1      -7.916  11.765  23.197  0.00  0.00    +0.000 NA
ENDBRANCH   7  26
TORSDOF 4
ENDMDL
