MODEL 1
REMARK VINA RESULT:      -8.7      0.000      0.000
REMARK  Name = 
REMARK  3 active torsions:
REMARK  status: ('A' for Active; 'I' for Inactive)
REMARK    1  A    between atoms: C_1  and  C_2
REMARK    2  A    between atoms: N_9  and  C_10
REMARK    3  A    between atoms: C_10  and  C_11
REMARK                            x       y       z     vdW  Elec       q    Type
REMARK                         _______ _______ _______ _____ _____    ______ ____
ROOT
ATOM      1  C   UNL     1      -0.090  11.470  19.966  0.00  0.00    +0.000 C 
ATOM      2  C   UNL     1       0.807  10.443  19.340  0.00  0.00    +0.000 A 
ATOM      3  C   UNL     1       1.506  10.732  18.171  0.00  0.00    +0.000 A 
ATOM      4  C   UNL     1       2.354   9.779  17.613  0.00  0.00    +0.000 A 
ATOM      5  C   UNL     1       2.527   8.518  18.209  0.00  0.00    +0.000 A 
ATOM      6  S   UNL     1       3.670   7.441  17.429  0.00  0.00    +0.000 S 
ATOM      7  C   UNL     1       3.521   5.916  18.338  0.00  0.00    +0.000 A 
ATOM      8  C   UNL     1       4.208   4.801  17.811  0.00  0.00    +0.000 A 
ATOM      9  N   UNL     1       4.807   4.901  16.551  0.00  0.00    +0.000 N 
ATOM     10  N   UNL     1       4.242   3.617  18.442  0.00  0.00    +0.000 NA
ATOM     11  C   UNL     1       3.591   3.467  19.602  0.00  0.00    +0.000 A 
ATOM     12  C   UNL     1       3.712   2.225  20.215  0.00  0.00    +0.000 A 
ATOM     13  C   UNL     1       3.055   1.910  21.403  0.00  0.00    +0.000 A 
ATOM     14  C   UNL     1       2.249   2.863  21.994  0.00  0.00    +0.000 A 
ATOM     15  C   UNL     1       2.130   4.123  21.402  0.00  0.00    +0.000 A 
ATOM     16  C   UNL     1       2.808   4.480  20.196  0.00  0.00    +0.000 A 
ATOM     17  C   UNL     1       2.784   5.752  19.520  0.00  0.00    +0.000 A 
ATOM     18  C   UNL     1       1.967   6.899  20.055  0.00  0.00    +0.000 A 
ATOM     19  O   UNL     1       1.355   6.792  21.115  0.00  0.00    +0.000 OA
ATOM     20  C   UNL     1       1.828   8.209  19.366  0.00  0.00    +0.000 A 
ATOM     21  C   UNL     1       0.965   9.177  19.925  0.00  0.00    +0.000 A 
ATOM     22  H   UNL     1       5.436   5.695  16.493  0.00  0.00    +0.000 HD
ENDROOT
BRANCH   9  23
ATOM     23  C   UNL     1       5.287   3.710  15.876  0.00  0.00    +0.000 C 
BRANCH  23  24
ATOM     24  C   UNL     1       6.048   4.128  14.629  0.00  0.00    +0.000 A 
ATOM     25  C   UNL     1       7.094   5.060  14.695  0.00  0.00    +0.000 A 
ATOM     26  C   UNL     1       7.804   5.416  13.542  0.00  0.00    +0.000 A 
ATOM     27  C   UNL     1       7.483   4.843  12.312  0.00  0.00    +0.000 A 
ATOM     28  C   UNL     1       6.456   3.910  12.234  0.00  0.00    +0.000 A 
ATOM     29  C   UNL     1       5.745   3.549  13.382  0.00  0.00    +0.000 A 
ENDBRANCH  23  24
ENDBRANCH   9  23
TORSDOF 2
ENDMDL
MODEL 2
REMARK VINA RESULT:      -8.3      4.475      8.322
REMARK  Name = 
REMARK  3 active torsions:
REMARK  status: ('A' for Active; 'I' for Inactive)
REMARK    1  A    between atoms: C_1  and  C_2
REMARK    2  A    between atoms: N_9  and  C_10
REMARK    3  A    between atoms: C_10  and  C_11
REMARK                            x       y       z     vdW  Elec       q    Type
REMARK                         _______ _______ _______ _____ _____    ______ ____
ROOT
ATOM      1  C   UNL     1      -4.126  15.500  24.165  0.00  0.00    +0.000 C 
ATOM      2  C   UNL     1      -3.221  14.560  23.425  0.00  0.00    +0.000 A 
ATOM      3  C   UNL     1      -1.998  14.181  23.970  0.00  0.00    +0.000 A 
ATOM      4  C   UNL     1      -1.177  13.288  23.285  0.00  0.00    +0.000 A 
ATOM      5  C   UNL     1      -1.558  12.752  22.045  0.00  0.00    +0.000 A 
ATOM      6  S   UNL     1      -0.453  11.596  21.325  0.00  0.00    +0.000 S 
ATOM      7  C   UNL     1      -1.161  11.252  19.726  0.00  0.00    +0.000 A 
ATOM      8  C   UNL     1      -0.378  10.475  18.846  0.00  0.00    +0.000 A 
ATOM      9  N   UNL     1       0.943  10.173  19.194  0.00  0.00    +0.000 N 
ATOM     10  N   UNL     1      -0.829  10.080  17.646  0.00  0.00    +0.000 NA
ATOM     11  C   UNL     1      -2.054  10.442  17.247  0.00  0.00    +0.000 A 
ATOM     12  C   UNL     1      -2.465   9.956  16.011  0.00  0.00    +0.000 A 
ATOM     13  C   UNL     1      -3.696  10.286  15.449  0.00  0.00    +0.000 A 
ATOM     14  C   UNL     1      -4.541  11.131  16.140  0.00  0.00    +0.000 A 
ATOM     15  C   UNL     1      -4.154  11.616  17.392  0.00  0.00    +0.000 A 
ATOM     16  C   UNL     1      -2.907  11.278  18.001  0.00  0.00    +0.000 A 
ATOM     17  C   UNL     1      -2.422  11.690  19.294  0.00  0.00    +0.000 A 
ATOM     18  C   UNL     1      -3.241  12.595  20.176  0.00  0.00    +0.000 A 
ATOM     19  O   UNL     1      -4.367  12.950  19.837  0.00  0.00    +0.000 OA
ATOM     20  C   UNL     1      -2.768  13.129  21.481  0.00  0.00    +0.000 A 
ATOM     21  C   UNL     1      -3.595  14.038  22.177  0.00  0.00    +0.000 A 
ATOM     22  H   UNL     1       1.003   9.739  20.109  0.00  0.00    +0.000 HD
ENDROOT
BRANCH   9  23
ATOM     23  C   UNL     1       1.845   9.609  18.208  0.00  0.00    +0.000 C 
BRANCH  23  24
ATOM     24  C   UNL     1       2.207   8.195  18.628  0.00  0.00    +0.000 A 
ATOM     25  C   UNL     1       2.958   7.358  17.789  0.00  0.00    +0.000 A 
ATOM     26  C   UNL     1       3.308   6.066  18.201  0.00  0.00    +0.000 A 
ATOM     27  C   UNL     1       2.918   5.597  19.454  0.00  0.00    +0.000 A 
ATOM     28  C   UNL     1       2.184   6.419  20.300  0.00  0.00    +0.000 A 
ATOM     29  C   UNL     1       1.833   7.711  19.896  0.00  0.00    +0.000 A 
ENDBRANCH  23  24
ENDBRANCH   9  23
TORSDOF 2
ENDMDL
MODEL 3
REMARK VINA RESULT:      -8.0      3.722      8.236
REMARK  Name = 
REMARK  3 active torsions:
REMARK  status: ('A' for Active; 'I' for Inactive)
REMARK    1  A    between atoms: C_1  and  C_2
REMARK    2  A    between atoms: N_9  and  C_10
REMARK    3  A    between atoms: C_10  and  C_11
REMARK                            x       y       z     vdW  Elec       q    Type
REMARK                         _______ _______ _______ _____ _____    ______ ____
ROOT
ATOM      1  C   UNL     1       3.666   3.735  19.188  0.00  0.00    +0.000 C 
ATOM      2  C   UNL     1       3.360   5.171  18.879  0.00  0.00    +0.000 A 
ATOM      3  C   UNL     1       3.858   5.767  17.725  0.00  0.00    +0.000 A 
ATOM      4  C   UNL     1       3.547   7.094  17.435  0.00  0.00    +0.000 A 
ATOM      5  C   UNL     1       2.730   7.853  18.289  0.00  0.00    +0.000 A 
ATOM      6  S   UNL     1       2.374   9.490  17.769  0.00  0.00    +0.000 S 
ATOM      7  C   UNL     1       1.469  10.194  19.134  0.00  0.00    +0.000 A 
ATOM      8  C   UNL     1       1.202  11.578  19.063  0.00  0.00    +0.000 A 
ATOM      9  N   UNL     1       1.793  12.336  18.048  0.00  0.00    +0.000 N 
ATOM     10  N   UNL     1       0.462  12.211  19.986  0.00  0.00    +0.000 NA
ATOM     11  C   UNL     1      -0.032  11.526  21.024  0.00  0.00    +0.000 A 
ATOM     12  C   UNL     1      -0.826  12.244  21.911  0.00  0.00    +0.000 A 
ATOM     13  C   UNL     1      -1.370  11.672  23.059  0.00  0.00    +0.000 A 
ATOM     14  C   UNL     1      -1.110  10.344  23.333  0.00  0.00    +0.000 A 
ATOM     15  C   UNL     1      -0.329   9.601  22.444  0.00  0.00    +0.000 A 
ATOM     16  C   UNL     1       0.224  10.155  21.249  0.00  0.00    +0.000 A 
ATOM     17  C   UNL     1       1.010   9.478  20.249  0.00  0.00    +0.000 A 
ATOM     18  C   UNL     1       1.359   8.020  20.396  0.00  0.00    +0.000 A 
ATOM     19  O   UNL     1       0.927   7.363  21.340  0.00  0.00    +0.000 OA
ATOM     20  C   UNL     1       2.236   7.279  19.451  0.00  0.00    +0.000 A 
ATOM     21  C   UNL     1       2.558   5.935  19.742  0.00  0.00    +0.000 A 
ATOM     22  H   UNL     1       1.606  11.948  17.129  0.00  0.00    +0.000 HD
ENDROOT
BRANCH   9  23
ATOM     23  C   UNL     1       1.751  13.785  18.103  0.00  0.00    +0.000 C 
BRANCH  23  24
ATOM     24  C   UNL     1       3.091  14.295  18.606  0.00  0.00    +0.000 A 
ATOM     25  C   UNL     1       4.086  14.725  17.715  0.00  0.00    +0.000 A 
ATOM     26  C   UNL     1       5.306  15.217  18.194  0.00  0.00    +0.000 A 
ATOM     27  C   UNL     1       5.545  15.291  19.565  0.00  0.00    +0.000 A 
ATOM     28  C   UNL     1       4.565  14.879  20.459  0.00  0.00    +0.000 A 
ATOM     29  C   UNL     1       3.344  14.388  19.987  0.00  0.00    +0.000 A 
ENDBRANCH  23  24
ENDBRANCH   9  23
TORSDOF 2
ENDMDL
MODEL 4
REMARK VINA RESULT:      -7.5      4.343      8.619
REMARK  Name = 
REMARK  3 active torsions:
REMARK  status: ('A' for Active; 'I' for Inactive)
REMARK    1  A    between atoms: C_1  and  C_2
REMARK    2  A    between atoms: N_9  and  C_10
REMARK    3  A    between atoms: C_10  and  C_11
REMARK                            x       y       z     vdW  Elec       q    Type
REMARK                         _______ _______ _______ _____ _____    ______ ____
ROOT
ATOM      1  C   UNL     1       2.076   4.164  20.665  0.00  0.00    +0.000 C 
ATOM      2  C   UNL     1       2.086   5.563  20.125  0.00  0.00    +0.000 A 
ATOM      3  C   UNL     1       2.797   5.871  18.969  0.00  0.00    +0.000 A 
ATOM      4  C   UNL     1       2.778   7.168  18.463  0.00  0.00    +0.000 A 
ATOM      5  C   UNL     1       2.048   8.187  19.097  0.00  0.00    +0.000 A 
ATOM      6  S   UNL     1       2.067   9.757  18.316  0.00  0.00    +0.000 S 
ATOM      7  C   UNL     1       1.190  10.818  19.448  0.00  0.00    +0.000 A 
ATOM      8  C   UNL     1       1.205  12.198  19.155  0.00  0.00    +0.000 A 
ATOM      9  N   UNL     1       2.025  12.668  18.125  0.00  0.00    +0.000 N 
ATOM     10  N   UNL     1       0.518  13.092  19.883  0.00  0.00    +0.000 NA
ATOM     11  C   UNL     1      -0.195  12.679  20.937  0.00  0.00    +0.000 A 
ATOM     12  C   UNL     1      -0.915  13.658  21.612  0.00  0.00    +0.000 A 
ATOM     13  C   UNL     1      -1.666  13.383  22.752  0.00  0.00    +0.000 A 
ATOM     14  C   UNL     1      -1.696  12.090  23.237  0.00  0.00    +0.000 A 
ATOM     15  C   UNL     1      -0.994  11.088  22.562  0.00  0.00    +0.000 A 
ATOM     16  C   UNL     1      -0.233  11.338  21.379  0.00  0.00    +0.000 A 
ATOM     17  C   UNL     1       0.498  10.381  20.587  0.00  0.00    +0.000 A 
ATOM     18  C   UNL     1       0.541   8.927  20.976  0.00  0.00    +0.000 A 
ATOM     19  O   UNL     1      -0.098   8.516  21.941  0.00  0.00    +0.000 OA
ATOM     20  C   UNL     1       1.343   7.901  20.257  0.00  0.00    +0.000 A 
ATOM     21  C   UNL     1       1.370   6.586  20.768  0.00  0.00    +0.000 A 
ATOM     22  H   UNL     1       1.855  12.179  17.252  0.00  0.00    +0.000 HD
ENDROOT
BRANCH   9  23
ATOM     23  C   UNL     1       2.261  14.092  17.973  0.00  0.00    +0.000 C 
BRANCH  23  24
ATOM     24  C   UNL     1       3.608  14.433  18.586  0.00  0.00    +0.000 A 
ATOM     25  C   UNL     1       4.755  14.574  17.790  0.00  0.00    +0.000 A 
ATOM     26  C   UNL     1       5.984  14.915  18.367  0.00  0.00    +0.000 A 
ATOM     27  C   UNL     1       6.083  15.125  19.741  0.00  0.00    +0.000 A 
ATOM     28  C   UNL     1       4.954  15.000  20.540  0.00  0.00    +0.000 A 
ATOM     29  C   UNL     1       3.723  14.662  19.971  0.00  0.00    +0.000 A 
ENDBRANCH  23  24
ENDBRANCH   9  23
TORSDOF 2
ENDMDL
MODEL 5
REMARK VINA RESULT:      -7.2      4.990      8.836
REMARK  Name = 
REMARK  3 active torsions:
REMARK  status: ('A' for Active; 'I' for Inactive)
REMARK    1  A    between atoms: C_1  and  C_2
REMARK    2  A    between atoms: N_9  and  C_10
REMARK    3  A    between atoms: C_10  and  C_11
REMARK                            x       y       z     vdW  Elec       q    Type
REMARK                         _______ _______ _______ _____ _____    ______ ____
ROOT
ATOM      1  C   UNL     1      -6.341  15.420  22.789  0.00  0.00    +0.000 C 
ATOM      2  C   UNL     1      -5.179  14.589  22.334  0.00  0.00    +0.000 A 
ATOM      3  C   UNL     1      -4.065  14.423  23.151  0.00  0.00    +0.000 A 
ATOM      4  C   UNL     1      -3.002  13.628  22.727  0.00  0.00    +0.000 A 
ATOM      5  C   UNL     1      -3.028  12.980  21.482  0.00  0.00    +0.000 A 
ATOM      6  S   UNL     1      -1.648  11.966  21.105  0.00  0.00    +0.000 S 
ATOM      7  C   UNL     1      -1.937  11.442  19.426  0.00  0.00    +0.000 A 
ATOM      8  C   UNL     1      -0.883  10.747  18.795  0.00  0.00    +0.000 A 
ATOM      9  N   UNL     1       0.358  10.662  19.434  0.00  0.00    +0.000 N 
ATOM     10  N   UNL     1      -1.003  10.231  17.562  0.00  0.00    +0.000 NA
ATOM     11  C   UNL     1      -2.149  10.387  16.889  0.00  0.00    +0.000 A 
ATOM     12  C   UNL     1      -2.211   9.784  15.637  0.00  0.00    +0.000 A 
ATOM     13  C   UNL     1      -3.322   9.900  14.805  0.00  0.00    +0.000 A 
ATOM     14  C   UNL     1      -4.404  10.644  15.233  0.00  0.00    +0.000 A 
ATOM     15  C   UNL     1      -4.368  11.242  16.496  0.00  0.00    +0.000 A 
ATOM     16  C   UNL     1      -3.250  11.123  17.378  0.00  0.00    +0.000 A 
ATOM     17  C   UNL     1      -3.119  11.666  18.706  0.00  0.00    +0.000 A 
ATOM     18  C   UNL     1      -4.225  12.483  19.321  0.00  0.00    +0.000 A 
ATOM     19  O   UNL     1      -5.287  12.650  18.727  0.00  0.00    +0.000 OA
ATOM     20  C   UNL     1      -4.125  13.145  20.649  0.00  0.00    +0.000 A 
ATOM     21  C   UNL     1      -5.197  13.955  21.081  0.00  0.00    +0.000 A 
ATOM     22  H   UNL     1       0.274  10.288  20.374  0.00  0.00    +0.000 HD
ENDROOT
BRANCH   9  23
ATOM     23  C   UNL     1       1.521  10.190  18.707  0.00  0.00    +0.000 C 
BRANCH  23  24
ATOM     24  C   UNL     1       1.790   8.746  19.099  0.00  0.00    +0.000 A 
ATOM     25  C   UNL     1       1.501   8.278  20.390  0.00  0.00    +0.000 A 
ATOM     26  C   UNL     1       1.730   6.939  20.728  0.00  0.00    +0.000 A 
ATOM     27  C   UNL     1       2.244   6.052  19.784  0.00  0.00    +0.000 A 
ATOM     28  C   UNL     1       2.524   6.499  18.499  0.00  0.00    +0.000 A 
ATOM     29  C   UNL     1       2.296   7.834  18.154  0.00  0.00    +0.000 A 
ENDBRANCH  23  24
ENDBRANCH   9  23
TORSDOF 2
ENDMDL
MODEL 6
REMARK VINA RESULT:      -7.1      4.538      8.764
REMARK  Name = 
REMARK  3 active torsions:
REMARK  status: ('A' for Active; 'I' for Inactive)
REMARK    1  A    between atoms: C_1  and  C_2
REMARK    2  A    between atoms: N_9  and  C_10
REMARK    3  A    between atoms: C_10  and  C_11
REMARK                            x       y       z     vdW  Elec       q    Type
REMARK                         _______ _______ _______ _____ _____    ______ ____
ROOT
ATOM      1  C   UNL     1      -3.323  14.886  25.009  0.00  0.00    +0.000 C 
ATOM      2  C   UNL     1      -2.654  14.031  23.974  0.00  0.00    +0.000 A 
ATOM      3  C   UNL     1      -3.005  12.692  23.829  0.00  0.00    +0.000 A 
ATOM      4  C   UNL     1      -2.394  11.914  22.848  0.00  0.00    +0.000 A 
ATOM      5  C   UNL     1      -1.423  12.454  21.989  0.00  0.00    +0.000 A 
ATOM      6  S   UNL     1      -0.783  11.374  20.765  0.00  0.00    +0.000 S 
ATOM      7  C   UNL     1       0.506  12.322  19.979  0.00  0.00    +0.000 A 
ATOM      8  C   UNL     1       1.322  11.630  19.058  0.00  0.00    +0.000 A 
ATOM      9  N   UNL     1       1.196  10.243  18.943  0.00  0.00    +0.000 N 
ATOM     10  N   UNL     1       2.274  12.247  18.341  0.00  0.00    +0.000 NA
ATOM     11  C   UNL     1       2.481  13.559  18.507  0.00  0.00    +0.000 A 
ATOM     12  C   UNL     1       3.454  14.133  17.695  0.00  0.00    +0.000 A 
ATOM     13  C   UNL     1       3.808  15.477  17.788  0.00  0.00    +0.000 A 
ATOM     14  C   UNL     1       3.175  16.272  18.723  0.00  0.00    +0.000 A 
ATOM     15  C   UNL     1       2.182  15.718  19.535  0.00  0.00    +0.000 A 
ATOM     16  C   UNL     1       1.784  14.348  19.448  0.00  0.00    +0.000 A 
ATOM     17  C   UNL     1       0.756  13.683  20.206  0.00  0.00    +0.000 A 
ATOM     18  C   UNL     1      -0.038  14.424  21.250  0.00  0.00    +0.000 A 
ATOM     19  O   UNL     1       0.132  15.627  21.430  0.00  0.00    +0.000 OA
ATOM     20  C   UNL     1      -1.052  13.783  22.129  0.00  0.00    +0.000 A 
ATOM     21  C   UNL     1      -1.671  14.566  23.127  0.00  0.00    +0.000 A 
ATOM     22  H   UNL     1       0.238   9.963  18.762  0.00  0.00    +0.000 HD
ENDROOT
BRANCH   9  23
ATOM     23  C   UNL     1       2.188   9.480  18.209  0.00  0.00    +0.000 C 
BRANCH  23  24
ATOM     24  C   UNL     1       2.189   8.051  18.728  0.00  0.00    +0.000 A 
ATOM     25  C   UNL     1       2.607   6.985  17.918  0.00  0.00    +0.000 A 
ATOM     26  C   UNL     1       2.628   5.678  18.418  0.00  0.00    +0.000 A 
ATOM     27  C   UNL     1       2.238   5.419  19.731  0.00  0.00    +0.000 A 
ATOM     28  C   UNL     1       1.833   6.467  20.548  0.00  0.00    +0.000 A 
ATOM     29  C   UNL     1       1.811   7.775  20.055  0.00  0.00    +0.000 A 
ENDBRANCH  23  24
ENDBRANCH   9  23
TORSDOF 2
ENDMDL
MODEL 7
REMARK VINA RESULT:      -7.1      4.724      8.839
REMARK  Name = 
REMARK  3 active torsions:
REMARK  status: ('A' for Active; 'I' for Inactive)
REMARK    1  A    between atoms: C_1  and  C_2
REMARK    2  A    between atoms: N_9  and  C_10
REMARK    3  A    between atoms: C_10  and  C_11
REMARK                            x       y       z     vdW  Elec       q    Type
REMARK                         _______ _______ _______ _____ _____    ______ ____
ROOT
ATOM      1  C   UNL     1      -2.937  15.046  25.431  0.00  0.00    +0.000 C 
ATOM      2  C   UNL     1      -2.415  14.259  24.267  0.00  0.00    +0.000 A 
ATOM      3  C   UNL     1      -3.035  13.075  23.878  0.00  0.00    +0.000 A 
ATOM      4  C   UNL     1      -2.556  12.366  22.779  0.00  0.00    +0.000 A 
ATOM      5  C   UNL     1      -1.451  12.822  22.042  0.00  0.00    +0.000 A 
ATOM      6  S   UNL     1      -0.995  11.858  20.650  0.00  0.00    +0.000 S 
ATOM      7  C   UNL     1       0.503  12.624  20.062  0.00  0.00    +0.000 A 
ATOM      8  C   UNL     1       1.198  11.942  19.040  0.00  0.00    +0.000 A 
ATOM      9  N   UNL     1       0.786  10.657  18.675  0.00  0.00    +0.000 N 
ATOM     10  N   UNL     1       2.294  12.451  18.457  0.00  0.00    +0.000 NA
ATOM     11  C   UNL     1       2.768  13.635  18.860  0.00  0.00    +0.000 A 
ATOM     12  C   UNL     1       3.880  14.115  18.176  0.00  0.00    +0.000 A 
ATOM     13  C   UNL     1       4.508  15.312  18.514  0.00  0.00    +0.000 A 
ATOM     14  C   UNL     1       4.013  16.051  19.571  0.00  0.00    +0.000 A 
ATOM     15  C   UNL     1       2.885  15.595  20.259  0.00  0.00    +0.000 A 
ATOM     16  C   UNL     1       2.210  14.382  19.920  0.00  0.00    +0.000 A 
ATOM     17  C   UNL     1       1.027  13.836  20.535  0.00  0.00    +0.000 A 
ATOM     18  C   UNL     1       0.358  14.539  21.687  0.00  0.00    +0.000 A 
ATOM     19  O   UNL     1       0.771  15.626  22.084  0.00  0.00    +0.000 OA
ATOM     20  C   UNL     1      -0.812  13.992  22.424  0.00  0.00    +0.000 A 
ATOM     21  C   UNL     1      -1.298  14.705  23.541  0.00  0.00    +0.000 A 
ATOM     22  H   UNL     1      -0.200  10.629  18.435  0.00  0.00    +0.000 HD
ENDROOT
BRANCH   9  23
ATOM     23  C   UNL     1       1.627   9.835  17.825  0.00  0.00    +0.000 C 
BRANCH  23  24
ATOM     24  C   UNL     1       1.969   8.554  18.566  0.00  0.00    +0.000 A 
ATOM     25  C   UNL     1       1.531   8.337  19.881  0.00  0.00    +0.000 A 
ATOM     26  C   UNL     1       1.831   7.140  20.543  0.00  0.00    +0.000 A 
ATOM     27  C   UNL     1       2.565   6.145  19.899  0.00  0.00    +0.000 A 
ATOM     28  C   UNL     1       2.995   6.341  18.593  0.00  0.00    +0.000 A 
ATOM     29  C   UNL     1       2.697   7.534  17.926  0.00  0.00    +0.000 A 
ENDBRANCH  23  24
ENDBRANCH   9  23
TORSDOF 2
ENDMDL
MODEL 8
REMARK VINA RESULT:      -7.0      7.011     13.315
REMARK  Name = 
REMARK  3 active torsions:
REMARK  status: ('A' for Active; 'I' for Inactive)
REMARK    1  A    between atoms: C_1  and  C_2
REMARK    2  A    between atoms: N_9  and  C_10
REMARK    3  A    between atoms: C_10  and  C_11
REMARK                            x       y       z     vdW  Elec       q    Type
REMARK                         _______ _______ _______ _____ _____    ______ ____
ROOT
ATOM      1  C   UNL     1       1.473   9.116  17.779  0.00  0.00    +0.000 C 
ATOM      2  C   UNL     1       0.608   9.929  18.695  0.00  0.00    +0.000 A 
ATOM      3  C   UNL     1       1.069  10.309  19.952  0.00  0.00    +0.000 A 
ATOM      4  C   UNL     1       0.265  11.085  20.784  0.00  0.00    +0.000 A 
ATOM      5  C   UNL     1      -1.014  11.501  20.381  0.00  0.00    +0.000 A 
ATOM      6  S   UNL     1      -1.889  12.521  21.507  0.00  0.00    +0.000 S 
ATOM      7  C   UNL     1      -3.494  12.722  20.756  0.00  0.00    +0.000 A 
ATOM      8  C   UNL     1      -4.478  13.363  21.540  0.00  0.00    +0.000 A 
ATOM      9  N   UNL     1      -4.207  13.641  22.883  0.00  0.00    +0.000 N 
ATOM     10  N   UNL     1      -5.700  13.646  21.062  0.00  0.00    +0.000 NA
ATOM     11  C   UNL     1      -6.017  13.299  19.810  0.00  0.00    +0.000 A 
ATOM     12  C   UNL     1      -7.286  13.667  19.375  0.00  0.00    +0.000 A 
ATOM     13  C   UNL     1      -7.770  13.334  18.112  0.00  0.00    +0.000 A 
ATOM     14  C   UNL     1      -6.965  12.607  17.257  0.00  0.00    +0.000 A 
ATOM     15  C   UNL     1      -5.680  12.244  17.669  0.00  0.00    +0.000 A 
ATOM     16  C   UNL     1      -5.150  12.589  18.951  0.00  0.00    +0.000 A 
ATOM     17  C   UNL     1      -3.836  12.298  19.464  0.00  0.00    +0.000 A 
ATOM     18  C   UNL     1      -2.835  11.530  18.641  0.00  0.00    +0.000 A 
ATOM     19  O   UNL     1      -3.098  11.192  17.489  0.00  0.00    +0.000 OA
ATOM     20  C   UNL     1      -1.495  11.120  19.137  0.00  0.00    +0.000 A 
ATOM     21  C   UNL     1      -0.678  10.330  18.299  0.00  0.00    +0.000 A 
ATOM     22  H   UNL     1      -3.347  14.168  22.994  0.00  0.00    +0.000 HD
ENDROOT
BRANCH   9  23
ATOM     23  C   UNL     1      -5.276  14.053  23.771  0.00  0.00    +0.000 C 
BRANCH  23  24
ATOM     24  C   UNL     1      -5.081  15.518  24.125  0.00  0.00    +0.000 A 
ATOM     25  C   UNL     1      -6.078  16.468  23.858  0.00  0.00    +0.000 A 
ATOM     26  C   UNL     1      -5.896  17.810  24.213  0.00  0.00    +0.000 A 
ATOM     27  C   UNL     1      -4.721  18.219  24.842  0.00  0.00    +0.000 A 
ATOM     28  C   UNL     1      -3.729  17.287  25.122  0.00  0.00    +0.000 A 
ATOM     29  C   UNL     1      -3.907  15.945  24.772  0.00  0.00    +0.000 A 
ENDBRANCH  23  24
ENDBRANCH   9  23
TORSDOF 2
ENDMDL
MODEL 9
REMARK VINA RESULT:      -7.0      8.944      9.800
REMARK  Name = 
REMARK  3 active torsions:
REMARK  status: ('A' for Active; 'I' for Inactive)
REMARK    1  A    between atoms: C_1  and  C_2
REMARK    2  A    between atoms: N_9  and  C_10
REMARK    3  A    between atoms: C_10  and  C_11
REMARK                            x       y       z     vdW  Elec       q    Type
REMARK                         _______ _______ _______ _____ _____    ______ ____
ROOT
ATOM      1  C   UNL     1       0.529  15.571  18.797  0.00  0.00    +0.000 C 
ATOM      2  C   UNL     1       2.011  15.666  19.007  0.00  0.00    +0.000 A 
ATOM      3  C   UNL     1       2.790  16.481  18.192  0.00  0.00    +0.000 A 
ATOM      4  C   UNL     1       4.162  16.580  18.413  0.00  0.00    +0.000 A 
ATOM      5  C   UNL     1       4.786  15.871  19.451  0.00  0.00    +0.000 A 
ATOM      6  S   UNL     1       6.508  16.137  19.648  0.00  0.00    +0.000 S 
ATOM      7  C   UNL     1       6.985  14.987  20.924  0.00  0.00    +0.000 A 
ATOM      8  C   UNL     1       8.369  14.856  21.167  0.00  0.00    +0.000 A 
ATOM      9  N   UNL     1       9.275  15.483  20.306  0.00  0.00    +0.000 N 
ATOM     10  N   UNL     1       8.852  14.085  22.153  0.00  0.00    +0.000 NA
ATOM     11  C   UNL     1       8.007  13.395  22.928  0.00  0.00    +0.000 A 
ATOM     12  C   UNL     1       8.583  12.656  23.956  0.00  0.00    +0.000 A 
ATOM     13  C   UNL     1       7.832  11.854  24.813  0.00  0.00    +0.000 A 
ATOM     14  C   UNL     1       6.464  11.786  24.637  0.00  0.00    +0.000 A 
ATOM     15  C   UNL     1       5.865  12.536  23.622  0.00  0.00    +0.000 A 
ATOM     16  C   UNL     1       6.608  13.381  22.741  0.00  0.00    +0.000 A 
ATOM     17  C   UNL     1       6.094  14.220  21.688  0.00  0.00    +0.000 A 
ATOM     18  C   UNL     1       4.618  14.269  21.389  0.00  0.00    +0.000 A 
ATOM     19  O   UNL     1       3.817  13.644  22.078  0.00  0.00    +0.000 OA
ATOM     20  C   UNL     1       4.027  15.043  20.265  0.00  0.00    +0.000 A 
ATOM     21  C   UNL     1       2.638  14.943  20.034  0.00  0.00    +0.000 A 
ATOM     22  H   UNL     1       9.081  16.474  20.209  0.00  0.00    +0.000 HD
ENDROOT
BRANCH   9  23
ATOM     23  C   UNL     1      10.687  15.157  20.373  0.00  0.00    +0.000 C 
BRANCH  23  24
ATOM     24  C   UNL     1      10.950  13.940  19.501  0.00  0.00    +0.000 A 
ATOM     25  C   UNL     1      11.478  12.759  20.043  0.00  0.00    +0.000 A 
ATOM     26  C   UNL     1      11.690  11.637  19.233  0.00  0.00    +0.000 A 
ATOM     27  C   UNL     1      11.374  11.678  17.876  0.00  0.00    +0.000 A 
ATOM     28  C   UNL     1      10.840  12.838  17.328  0.00  0.00    +0.000 A 
ATOM     29  C   UNL     1      10.624  13.961  18.132  0.00  0.00    +0.000 A 
ENDBRANCH  23  24
ENDBRANCH   9  23
TORSDOF 2
ENDMDL
