MODEL 1
REMARK VINA RESULT:      -7.8      0.000      0.000
REMARK  Name = 
REMARK  11 active torsions:
REMARK  status: ('A' for Active; 'I' for Inactive)
REMARK    1  A    between atoms: C_1  and  O_2
REMARK    2  A    between atoms: O_2  and  C_3
REMARK    3  A    between atoms: C_3  and  C_4
REMARK    4  A    between atoms: C_4  and  C_5
REMARK    5  A    between atoms: C_5  and  N_6
REMARK    6  A    between atoms: C_7  and  C_9
REMARK    7  A    between atoms: C_9  and  C_10
REMARK    8  A    between atoms: C_10  and  N_11
REMARK    9  A    between atoms: N_20  and  C_21
REMARK   10  A    between atoms: C_21  and  C_22
REMARK   11  A    between atoms: C_26  and  N_27
REMARK                            x       y       z     vdW  Elec       q    Type
REMARK                         _______ _______ _______ _____ _____    ______ ____
ROOT
ATOM      1  N   UNL     1       5.422   5.099  18.709  0.00  0.00    +0.000 N 
ATOM      2  C   UNL     1       4.945   3.850  19.082  0.00  0.00    +0.000 A 
ATOM      3  O   UNL     1       5.659   2.928  19.472  0.00  0.00    +0.000 OA
ATOM      4  C   UNL     1       3.495   3.632  18.975  0.00  0.00    +0.000 A 
ATOM      5  C   UNL     1       2.964   2.374  19.318  0.00  0.00    +0.000 A 
ATOM      6  C   UNL     1       1.602   2.129  19.182  0.00  0.00    +0.000 A 
ATOM      7  C   UNL     1       0.775   3.132  18.695  0.00  0.00    +0.000 A 
ATOM      8  C   UNL     1       1.311   4.380  18.350  0.00  0.00    +0.000 A 
ATOM      9  C   UNL     1       2.679   4.654  18.493  0.00  0.00    +0.000 A 
ATOM     10  N   UNL     1       3.259   5.916  18.163  0.00  0.00    +0.000 N 
ATOM     11  C   UNL     1       4.625   6.154  18.286  0.00  0.00    +0.000 A 
ATOM     12  O   UNL     1       5.114   7.256  18.021  0.00  0.00    +0.000 OA
ENDROOT
BRANCH   1  13
ATOM     13  C   UNL     1       6.875   5.287  18.645  0.00  0.00    +0.000 C 
BRANCH  13  14
ATOM     14  C   UNL     1       7.570   4.477  17.549  0.00  0.00    +0.000 C 
BRANCH  14  16
ATOM     15  N   UNL     1       6.272   3.976  15.568  0.00  0.00    +0.000 N 
ATOM     16  C   UNL     1       7.067   4.916  16.189  0.00  0.00    +0.000 C 
ATOM     17  O   UNL     1       7.338   6.003  15.692  0.00  0.00    +0.000 OA
ATOM     18  H   UNL     1       6.111   3.084  16.017  0.00  0.00    +0.000 HD
BRANCH  15  19
ATOM     19  C   UNL     1       5.666   4.227  14.274  0.00  0.00    +0.000 C 
BRANCH  19  20
ATOM     20  C   UNL     1       6.571   3.813  13.114  0.00  0.00    +0.000 C 
BRANCH  20  21
ATOM     21  C   UNL     1       5.783   3.080  12.031  0.00  0.00    +0.000 C 
BRANCH  21  23
ATOM     22  C   UNL     1       3.709   3.125  10.896  0.00  0.00    +0.000 C 
ATOM     23  O   UNL     1       4.441   3.559  12.032  0.00  0.00    +0.000 OA
ENDBRANCH  21  23
ENDBRANCH  20  21
ENDBRANCH  19  20
ENDBRANCH  15  19
ENDBRANCH  14  16
ENDBRANCH  13  14
ENDBRANCH   1  13
BRANCH  10  24
ATOM     24  C   UNL     1       2.433   7.032  17.679  0.00  0.00    +0.000 C 
BRANCH  24  25
ATOM     25  C   UNL     1       1.946   7.930  18.798  0.00  0.00    +0.000 A 
ATOM     26  C   UNL     1       1.856   7.446  20.114  0.00  0.00    +0.000 A 
ATOM     27  C   UNL     1       1.315   8.231  21.135  0.00  0.00    +0.000 A 
ATOM     28  C   UNL     1       0.854   9.517  20.860  0.00  0.00    +0.000 A 
ATOM     29  C   UNL     1       0.976  10.024  19.562  0.00  0.00    +0.000 A 
ATOM     30  C   UNL     1       1.540   9.247  18.539  0.00  0.00    +0.000 A 
BRANCH  29  31
ATOM     31  N   UNL     1       0.482  11.371  19.255  0.00  0.00    +0.000 N 
ATOM     32  O   UNL     1       0.915  11.927  18.235  0.00  0.00    +0.000 OA
ATOM     33  O   UNL     1      -0.333  11.878  20.039  0.00  0.00    +0.000 OA
ENDBRANCH  29  31
ENDBRANCH  24  25
ENDBRANCH  10  24
TORSDOF 10
ENDMDL
MODEL 2
REMARK VINA RESULT:      -7.5      2.465      4.282
REMARK  Name = 
REMARK  11 active torsions:
REMARK  status: ('A' for Active; 'I' for Inactive)
REMARK    1  A    between atoms: C_1  and  O_2
REMARK    2  A    between atoms: O_2  and  C_3
REMARK    3  A    between atoms: C_3  and  C_4
REMARK    4  A    between atoms: C_4  and  C_5
REMARK    5  A    between atoms: C_5  and  N_6
REMARK    6  A    between atoms: C_7  and  C_9
REMARK    7  A    between atoms: C_9  and  C_10
REMARK    8  A    between atoms: C_10  and  N_11
REMARK    9  A    between atoms: N_20  and  C_21
REMARK   10  A    between atoms: C_21  and  C_22
REMARK   11  A    between atoms: C_26  and  N_27
REMARK                            x       y       z     vdW  Elec       q    Type
REMARK                         _______ _______ _______ _____ _____    ______ ____
ROOT
ATOM      1  N   UNL     1       4.291   5.042  17.130  0.00  0.00    +0.000 N 
ATOM      2  C   UNL     1       3.617   3.829  17.090  0.00  0.00    +0.000 A 
ATOM      3  O   UNL     1       3.813   2.959  16.245  0.00  0.00    +0.000 OA
ATOM      4  C   UNL     1       2.596   3.602  18.124  0.00  0.00    +0.000 A 
ATOM      5  C   UNL     1       1.868   2.397  18.113  0.00  0.00    +0.000 A 
ATOM      6  C   UNL     1       0.865   2.177  19.052  0.00  0.00    +0.000 A 
ATOM      7  C   UNL     1       0.583   3.162  19.990  0.00  0.00    +0.000 A 
ATOM      8  C   UNL     1       1.309   4.360  19.991  0.00  0.00    +0.000 A 
ATOM      9  C   UNL     1       2.333   4.597  19.064  0.00  0.00    +0.000 A 
ATOM     10  N   UNL     1       3.101   5.801  19.041  0.00  0.00    +0.000 N 
ATOM     11  C   UNL     1       4.093   6.024  18.091  0.00  0.00    +0.000 A 
ATOM     12  O   UNL     1       4.769   7.057  18.095  0.00  0.00    +0.000 OA
ENDROOT
BRANCH   1  13
ATOM     13  C   UNL     1       5.190   5.363  16.017  0.00  0.00    +0.000 C 
BRANCH  13  14
ATOM     14  C   UNL     1       6.569   4.709  16.109  0.00  0.00    +0.000 C 
BRANCH  14  16
ATOM     15  N   UNL     1       7.489   6.696  17.142  0.00  0.00    +0.000 N 
ATOM     16  C   UNL     1       7.356   5.328  17.247  0.00  0.00    +0.000 C 
ATOM     17  O   UNL     1       7.825   4.674  18.172  0.00  0.00    +0.000 OA
ATOM     18  H   UNL     1       7.107   7.174  16.337  0.00  0.00    +0.000 HD
BRANCH  15  19
ATOM     19  C   UNL     1       8.180   7.473  18.154  0.00  0.00    +0.000 C 
BRANCH  19  20
ATOM     20  C   UNL     1       8.098   8.977  17.894  0.00  0.00    +0.000 C 
BRANCH  20  21
ATOM     21  C   UNL     1       8.972   9.756  18.874  0.00  0.00    +0.000 C 
BRANCH  21  23
ATOM     22  C   UNL     1      10.247  11.487  17.892  0.00  0.00    +0.000 C 
ATOM     23  O   UNL     1       9.007  11.123  18.477  0.00  0.00    +0.000 OA
ENDBRANCH  21  23
ENDBRANCH  20  21
ENDBRANCH  19  20
ENDBRANCH  15  19
ENDBRANCH  14  16
ENDBRANCH  13  14
ENDBRANCH   1  13
BRANCH  10  24
ATOM     24  C   UNL     1       2.879   6.865  20.030  0.00  0.00    +0.000 C 
BRANCH  24  25
ATOM     25  C   UNL     1       1.988   7.975  19.509  0.00  0.00    +0.000 A 
ATOM     26  C   UNL     1       1.867   8.204  18.128  0.00  0.00    +0.000 A 
ATOM     27  C   UNL     1       1.129   9.284  17.638  0.00  0.00    +0.000 A 
ATOM     28  C   UNL     1       0.496  10.156  18.520  0.00  0.00    +0.000 A 
ATOM     29  C   UNL     1       0.575   9.915  19.896  0.00  0.00    +0.000 A 
ATOM     30  C   UNL     1       1.296   8.818  20.391  0.00  0.00    +0.000 A 
BRANCH  29  31
ATOM     31  N   UNL     1      -0.075  10.834  20.838  0.00  0.00    +0.000 N 
ATOM     32  O   UNL     1      -1.227  11.209  20.577  0.00  0.00    +0.000 OA
ATOM     33  O   UNL     1       0.572  11.189  21.833  0.00  0.00    +0.000 OA
ENDBRANCH  29  31
ENDBRANCH  24  25
ENDBRANCH  10  24
TORSDOF 10
ENDMDL
MODEL 3
REMARK VINA RESULT:      -7.3      2.951      4.922
REMARK  Name = 
REMARK  11 active torsions:
REMARK  status: ('A' for Active; 'I' for Inactive)
REMARK    1  A    between atoms: C_1  and  O_2
REMARK    2  A    between atoms: O_2  and  C_3
REMARK    3  A    between atoms: C_3  and  C_4
REMARK    4  A    between atoms: C_4  and  C_5
REMARK    5  A    between atoms: C_5  and  N_6
REMARK    6  A    between atoms: C_7  and  C_9
REMARK    7  A    between atoms: C_9  and  C_10
REMARK    8  A    between atoms: C_10  and  N_11
REMARK    9  A    between atoms: N_20  and  C_21
REMARK   10  A    between atoms: C_21  and  C_22
REMARK   11  A    between atoms: C_26  and  N_27
REMARK                            x       y       z     vdW  Elec       q    Type
REMARK                         _______ _______ _______ _____ _____    ______ ____
ROOT
ATOM      1  N   UNL     1       5.162   5.357  18.314  0.00  0.00    +0.000 N 
ATOM      2  C   UNL     1       4.948   4.259  19.135  0.00  0.00    +0.000 A 
ATOM      3  O   UNL     1       5.823   3.459  19.459  0.00  0.00    +0.000 OA
ATOM      4  C   UNL     1       3.576   4.048  19.620  0.00  0.00    +0.000 A 
ATOM      5  C   UNL     1       3.301   2.935  20.437  0.00  0.00    +0.000 A 
ATOM      6  C   UNL     1       2.002   2.688  20.871  0.00  0.00    +0.000 A 
ATOM      7  C   UNL     1       0.981   3.544  20.480  0.00  0.00    +0.000 A 
ATOM      8  C   UNL     1       1.261   4.647  19.664  0.00  0.00    +0.000 A 
ATOM      9  C   UNL     1       2.564   4.923  19.227  0.00  0.00    +0.000 A 
ATOM     10  N   UNL     1       2.889   6.043  18.403  0.00  0.00    +0.000 N 
ATOM     11  C   UNL     1       4.187   6.278  17.958  0.00  0.00    +0.000 A 
ATOM     12  O   UNL     1       4.463   7.263  17.266  0.00  0.00    +0.000 OA
ENDROOT
BRANCH   1  13
ATOM     13  C   UNL     1       6.478   5.494  17.683  0.00  0.00    +0.000 C 
BRANCH  13  14
ATOM     14  C   UNL     1       7.526   6.194  18.549  0.00  0.00    +0.000 C 
BRANCH  14  16
ATOM     15  N   UNL     1       8.479   8.398  18.861  0.00  0.00    +0.000 N 
ATOM     16  C   UNL     1       7.842   7.559  17.972  0.00  0.00    +0.000 C 
ATOM     17  O   UNL     1       7.560   7.883  16.823  0.00  0.00    +0.000 OA
ATOM     18  H   UNL     1       8.654   8.083  19.806  0.00  0.00    +0.000 HD
BRANCH  15  19
ATOM     19  C   UNL     1       8.896   9.735  18.482  0.00  0.00    +0.000 C 
BRANCH  19  20
ATOM     20  C   UNL     1       9.560  10.490  19.632  0.00  0.00    +0.000 C 
BRANCH  20  21
ATOM     21  C   UNL     1       9.800  11.953  19.267  0.00  0.00    +0.000 C 
BRANCH  21  23
ATOM     22  C   UNL     1       9.171  12.460  21.489  0.00  0.00    +0.000 C 
ATOM     23  O   UNL     1       9.008  12.778  20.116  0.00  0.00    +0.000 OA
ENDBRANCH  21  23
ENDBRANCH  20  21
ENDBRANCH  19  20
ENDBRANCH  15  19
ENDBRANCH  14  16
ENDBRANCH  13  14
ENDBRANCH   1  13
BRANCH  10  24
ATOM     24  C   UNL     1       1.861   7.008  17.987  0.00  0.00    +0.000 C 
BRANCH  24  25
ATOM     25  C   UNL     1       1.640   8.107  19.008  0.00  0.00    +0.000 A 
ATOM     26  C   UNL     1       1.663   7.819  20.383  0.00  0.00    +0.000 A 
ATOM     27  C   UNL     1       1.363   8.801  21.330  0.00  0.00    +0.000 A 
ATOM     28  C   UNL     1       1.034  10.091  20.920  0.00  0.00    +0.000 A 
ATOM     29  C   UNL     1       1.048  10.400  19.556  0.00  0.00    +0.000 A 
ATOM     30  C   UNL     1       1.371   9.422  18.603  0.00  0.00    +0.000 A 
BRANCH  29  31
ATOM     31  N   UNL     1       0.689  11.751  19.109  0.00  0.00    +0.000 N 
ATOM     32  O   UNL     1       1.589  12.462  18.640  0.00  0.00    +0.000 OA
ATOM     33  O   UNL     1      -0.491  12.105  19.237  0.00  0.00    +0.000 OA
ENDBRANCH  29  31
ENDBRANCH  24  25
ENDBRANCH  10  24
TORSDOF 10
ENDMDL
MODEL 4
REMARK VINA RESULT:      -7.3      3.086      4.872
REMARK  Name = 
REMARK  11 active torsions:
REMARK  status: ('A' for Active; 'I' for Inactive)
REMARK    1  A    between atoms: C_1  and  O_2
REMARK    2  A    between atoms: O_2  and  C_3
REMARK    3  A    between atoms: C_3  and  C_4
REMARK    4  A    between atoms: C_4  and  C_5
REMARK    5  A    between atoms: C_5  and  N_6
REMARK    6  A    between atoms: C_7  and  C_9
REMARK    7  A    between atoms: C_9  and  C_10
REMARK    8  A    between atoms: C_10  and  N_11
REMARK    9  A    between atoms: N_20  and  C_21
REMARK   10  A    between atoms: C_21  and  C_22
REMARK   11  A    between atoms: C_26  and  N_27
REMARK                            x       y       z     vdW  Elec       q    Type
REMARK                         _______ _______ _______ _____ _____    ______ ____
ROOT
ATOM      1  N   UNL     1       5.142   5.629  18.220  0.00  0.00    +0.000 N 
ATOM      2  C   UNL     1       4.990   4.485  18.991  0.00  0.00    +0.000 A 
ATOM      3  O   UNL     1       5.896   3.691  19.232  0.00  0.00    +0.000 OA
ATOM      4  C   UNL     1       3.647   4.218  19.526  0.00  0.00    +0.000 A 
ATOM      5  C   UNL     1       3.434   3.058  20.295  0.00  0.00    +0.000 A 
ATOM      6  C   UNL     1       2.163   2.758  20.773  0.00  0.00    +0.000 A 
ATOM      7  C   UNL     1       1.106   3.608  20.475  0.00  0.00    +0.000 A 
ATOM      8  C   UNL     1       1.324   4.758  19.705  0.00  0.00    +0.000 A 
ATOM      9  C   UNL     1       2.599   5.087  19.225  0.00  0.00    +0.000 A 
ATOM     10  N   UNL     1       2.862   6.255  18.447  0.00  0.00    +0.000 N 
ATOM     11  C   UNL     1       4.132   6.544  17.957  0.00  0.00    +0.000 A 
ATOM     12  O   UNL     1       4.354   7.569  17.306  0.00  0.00    +0.000 OA
ENDROOT
BRANCH   1  13
ATOM     13  C   UNL     1       6.425   5.830  17.537  0.00  0.00    +0.000 C 
BRANCH  13  14
ATOM     14  C   UNL     1       7.541   6.367  18.434  0.00  0.00    +0.000 C 
BRANCH  14  16
ATOM     15  N   UNL     1       8.675   8.443  18.949  0.00  0.00    +0.000 N 
ATOM     16  C   UNL     1       7.889   7.784  18.027  0.00  0.00    +0.000 C 
ATOM     17  O   UNL     1       7.512   8.294  16.978  0.00  0.00    +0.000 OA
ATOM     18  H   UNL     1       8.926   7.980  19.812  0.00  0.00    +0.000 HD
BRANCH  15  19
ATOM     19  C   UNL     1       9.142   9.798  18.722  0.00  0.00    +0.000 C 
BRANCH  19  20
ATOM     20  C   UNL     1       9.292  10.591  20.019  0.00  0.00    +0.000 C 
BRANCH  20  21
ATOM     21  C   UNL     1      10.278  11.745  19.851  0.00  0.00    +0.000 C 
BRANCH  21  23
ATOM     22  C   UNL     1      11.711  12.198  18.026  0.00  0.00    +0.000 C 
ATOM     23  O   UNL     1      11.384  11.299  19.074  0.00  0.00    +0.000 OA
ENDBRANCH  21  23
ENDBRANCH  20  21
ENDBRANCH  19  20
ENDBRANCH  15  19
ENDBRANCH  14  16
ENDBRANCH  13  14
ENDBRANCH   1  13
BRANCH  10  24
ATOM     24  C   UNL     1       1.794   7.215  18.129  0.00  0.00    +0.000 C 
BRANCH  24  25
ATOM     25  C   UNL     1       1.568   8.228  19.234  0.00  0.00    +0.000 A 
ATOM     26  C   UNL     1       1.643   7.841  20.583  0.00  0.00    +0.000 A 
ATOM     27  C   UNL     1       1.338   8.740  21.608  0.00  0.00    +0.000 A 
ATOM     28  C   UNL     1       0.954  10.044  21.304  0.00  0.00    +0.000 A 
ATOM     29  C   UNL     1       0.916  10.452  19.967  0.00  0.00    +0.000 A 
ATOM     30  C   UNL     1       1.243   9.559  18.935  0.00  0.00    +0.000 A 
BRANCH  29  31
ATOM     31  N   UNL     1       0.499  11.818  19.631  0.00  0.00    +0.000 N 
ATOM     32  O   UNL     1       0.015  12.016  18.507  0.00  0.00    +0.000 OA
ATOM     33  O   UNL     1       0.665  12.697  20.489  0.00  0.00    +0.000 OA
ENDBRANCH  29  31
ENDBRANCH  24  25
ENDBRANCH  10  24
TORSDOF 10
ENDMDL
MODEL 5
REMARK VINA RESULT:      -7.2      1.483      1.956
REMARK  Name = 
REMARK  11 active torsions:
REMARK  status: ('A' for Active; 'I' for Inactive)
REMARK    1  A    between atoms: C_1  and  O_2
REMARK    2  A    between atoms: O_2  and  C_3
REMARK    3  A    between atoms: C_3  and  C_4
REMARK    4  A    between atoms: C_4  and  C_5
REMARK    5  A    between atoms: C_5  and  N_6
REMARK    6  A    between atoms: C_7  and  C_9
REMARK    7  A    between atoms: C_9  and  C_10
REMARK    8  A    between atoms: C_10  and  N_11
REMARK    9  A    between atoms: N_20  and  C_21
REMARK   10  A    between atoms: C_21  and  C_22
REMARK   11  A    between atoms: C_26  and  N_27
REMARK                            x       y       z     vdW  Elec       q    Type
REMARK                         _______ _______ _______ _____ _____    ______ ____
ROOT
ATOM      1  N   UNL     1       4.994   4.460  18.026  0.00  0.00    +0.000 N 
ATOM      2  C   UNL     1       4.259   3.338  17.672  0.00  0.00    +0.000 A 
ATOM      3  O   UNL     1       4.636   2.495  16.861  0.00  0.00    +0.000 OA
ATOM      4  C   UNL     1       2.942   3.178  18.304  0.00  0.00    +0.000 A 
ATOM      5  C   UNL     1       2.147   2.068  17.961  0.00  0.00    +0.000 A 
ATOM      6  C   UNL     1       0.877   1.919  18.510  0.00  0.00    +0.000 A 
ATOM      7  C   UNL     1       0.400   2.880  19.390  0.00  0.00    +0.000 A 
ATOM      8  C   UNL     1       1.195   3.985  19.724  0.00  0.00    +0.000 A 
ATOM      9  C   UNL     1       2.482   4.148  19.194  0.00  0.00    +0.000 A 
ATOM     10  N   UNL     1       3.324   5.254  19.519  0.00  0.00    +0.000 N 
ATOM     11  C   UNL     1       4.587   5.408  18.956  0.00  0.00    +0.000 A 
ATOM     12  O   UNL     1       5.319   6.355  19.262  0.00  0.00    +0.000 OA
ENDROOT
BRANCH   1  13
ATOM     13  C   UNL     1       6.231   4.731  17.288  0.00  0.00    +0.000 C 
BRANCH  13  14
ATOM     14  C   UNL     1       6.066   5.687  16.106  0.00  0.00    +0.000 C 
BRANCH  14  16
ATOM     15  N   UNL     1       5.806   4.138  14.264  0.00  0.00    +0.000 N 
ATOM     16  C   UNL     1       6.644   5.061  14.853  0.00  0.00    +0.000 C 
ATOM     17  O   UNL     1       7.748   5.350  14.406  0.00  0.00    +0.000 OA
ATOM     18  H   UNL     1       4.920   3.918  14.700  0.00  0.00    +0.000 HD
BRANCH  15  19
ATOM     19  C   UNL     1       6.168   3.456  13.035  0.00  0.00    +0.000 C 
BRANCH  19  20
ATOM     20  C   UNL     1       5.052   3.496  11.992  0.00  0.00    +0.000 C 
BRANCH  20  21
ATOM     21  C   UNL     1       4.965   2.179  11.225  0.00  0.00    +0.000 C 
BRANCH  21  23
ATOM     22  C   UNL     1       6.150   0.133  11.238  0.00  0.00    +0.000 C 
ATOM     23  O   UNL     1       6.242   1.549  11.240  0.00  0.00    +0.000 OA
ENDBRANCH  21  23
ENDBRANCH  20  21
ENDBRANCH  19  20
ENDBRANCH  15  19
ENDBRANCH  14  16
ENDBRANCH  13  14
ENDBRANCH   1  13
BRANCH  10  24
ATOM     24  C   UNL     1       2.894   6.286  20.474  0.00  0.00    +0.000 C 
BRANCH  24  25
ATOM     25  C   UNL     1       2.163   7.434  19.808  0.00  0.00    +0.000 A 
ATOM     26  C   UNL     1       2.309   7.670  18.430  0.00  0.00    +0.000 A 
ATOM     27  C   UNL     1       1.722   8.783  17.823  0.00  0.00    +0.000 A 
ATOM     28  C   UNL     1       0.975   9.681  18.582  0.00  0.00    +0.000 A 
ATOM     29  C   UNL     1       0.788   9.434  19.947  0.00  0.00    +0.000 A 
ATOM     30  C   UNL     1       1.358   8.306  20.555  0.00  0.00    +0.000 A 
BRANCH  29  31
ATOM     31  N   UNL     1       0.017  10.380  20.761  0.00  0.00    +0.000 N 
ATOM     32  O   UNL     1      -0.204  11.504  20.288  0.00  0.00    +0.000 OA
ATOM     33  O   UNL     1      -0.360  10.002  21.880  0.00  0.00    +0.000 OA
ENDBRANCH  29  31
ENDBRANCH  24  25
ENDBRANCH  10  24
TORSDOF 10
ENDMDL
MODEL 6
REMARK VINA RESULT:      -7.2      3.137      5.904
REMARK  Name = 
REMARK  11 active torsions:
REMARK  status: ('A' for Active; 'I' for Inactive)
REMARK    1  A    between atoms: C_1  and  O_2
REMARK    2  A    between atoms: O_2  and  C_3
REMARK    3  A    between atoms: C_3  and  C_4
REMARK    4  A    between atoms: C_4  and  C_5
REMARK    5  A    between atoms: C_5  and  N_6
REMARK    6  A    between atoms: C_7  and  C_9
REMARK    7  A    between atoms: C_9  and  C_10
REMARK    8  A    between atoms: C_10  and  N_11
REMARK    9  A    between atoms: N_20  and  C_21
REMARK   10  A    between atoms: C_21  and  C_22
REMARK   11  A    between atoms: C_26  and  N_27
REMARK                            x       y       z     vdW  Elec       q    Type
REMARK                         _______ _______ _______ _____ _____    ______ ____
ROOT
ATOM      1  N   UNL     1       1.854   8.313  19.276  0.00  0.00    +0.000 N 
ATOM      2  C   UNL     1       1.642   8.108  20.632  0.00  0.00    +0.000 A 
ATOM      3  O   UNL     1       2.134   7.184  21.275  0.00  0.00    +0.000 OA
ATOM      4  C   UNL     1       0.752   9.057  21.317  0.00  0.00    +0.000 A 
ATOM      5  C   UNL     1       0.486   8.879  22.688  0.00  0.00    +0.000 A 
ATOM      6  C   UNL     1      -0.388   9.736  23.349  0.00  0.00    +0.000 A 
ATOM      7  C   UNL     1      -1.002  10.760  22.640  0.00  0.00    +0.000 A 
ATOM      8  C   UNL     1      -0.736  10.928  21.275  0.00  0.00    +0.000 A 
ATOM      9  C   UNL     1       0.152  10.086  20.592  0.00  0.00    +0.000 A 
ATOM     10  N   UNL     1       0.456  10.233  19.205  0.00  0.00    +0.000 N 
ATOM     11  C   UNL     1       1.319   9.365  18.544  0.00  0.00    +0.000 A 
ATOM     12  O   UNL     1       1.595   9.515  17.349  0.00  0.00    +0.000 OA
ENDROOT
BRANCH   1  13
ATOM     13  C   UNL     1       2.597   7.288  18.536  0.00  0.00    +0.000 C 
BRANCH  13  14
ATOM     14  C   UNL     1       1.778   6.047  18.179  0.00  0.00    +0.000 C 
BRANCH  14  16
ATOM     15  N   UNL     1       3.904   5.143  17.456  0.00  0.00    +0.000 N 
ATOM     16  C   UNL     1       2.694   4.848  18.048  0.00  0.00    +0.000 C 
ATOM     17  O   UNL     1       2.389   3.725  18.433  0.00  0.00    +0.000 OA
ATOM     18  H   UNL     1       4.084   6.083  17.129  0.00  0.00    +0.000 HD
BRANCH  15  19
ATOM     19  C   UNL     1       4.930   4.132  17.275  0.00  0.00    +0.000 C 
BRANCH  19  20
ATOM     20  C   UNL     1       6.342   4.705  17.383  0.00  0.00    +0.000 C 
BRANCH  20  21
ATOM     21  C   UNL     1       6.813   5.273  16.046  0.00  0.00    +0.000 C 
BRANCH  21  23
ATOM     22  C   UNL     1       7.256   7.102  17.476  0.00  0.00    +0.000 C 
ATOM     23  O   UNL     1       7.624   6.418  16.289  0.00  0.00    +0.000 OA
ENDBRANCH  21  23
ENDBRANCH  20  21
ENDBRANCH  19  20
ENDBRANCH  15  19
ENDBRANCH  14  16
ENDBRANCH  13  14
ENDBRANCH   1  13
BRANCH  10  24
ATOM     24  C   UNL     1      -0.130  11.320  18.407  0.00  0.00    +0.000 C 
BRANCH  24  25
ATOM     25  C   UNL     1      -1.555  11.030  17.977  0.00  0.00    +0.000 A 
ATOM     26  C   UNL     1      -1.819  10.079  16.978  0.00  0.00    +0.000 A 
ATOM     27  C   UNL     1      -3.116   9.874  16.502  0.00  0.00    +0.000 A 
ATOM     28  C   UNL     1      -4.176  10.617  17.018  0.00  0.00    +0.000 A 
ATOM     29  C   UNL     1      -3.931  11.538  18.043  0.00  0.00    +0.000 A 
ATOM     30  C   UNL     1      -2.633  11.730  18.539  0.00  0.00    +0.000 A 
BRANCH  29  31
ATOM     31  N   UNL     1      -5.035  12.337  18.586  0.00  0.00    +0.000 N 
ATOM     32  O   UNL     1      -6.033  12.506  17.870  0.00  0.00    +0.000 OA
ATOM     33  O   UNL     1      -4.901  12.806  19.725  0.00  0.00    +0.000 OA
ENDBRANCH  29  31
ENDBRANCH  24  25
ENDBRANCH  10  24
TORSDOF 10
ENDMDL
MODEL 7
REMARK VINA RESULT:      -7.2      2.511      4.188
REMARK  Name = 
REMARK  11 active torsions:
REMARK  status: ('A' for Active; 'I' for Inactive)
REMARK    1  A    between atoms: C_1  and  O_2
REMARK    2  A    between atoms: O_2  and  C_3
REMARK    3  A    between atoms: C_3  and  C_4
REMARK    4  A    between atoms: C_4  and  C_5
REMARK    5  A    between atoms: C_5  and  N_6
REMARK    6  A    between atoms: C_7  and  C_9
REMARK    7  A    between atoms: C_9  and  C_10
REMARK    8  A    between atoms: C_10  and  N_11
REMARK    9  A    between atoms: N_20  and  C_21
REMARK   10  A    between atoms: C_21  and  C_22
REMARK   11  A    between atoms: C_26  and  N_27
REMARK                            x       y       z     vdW  Elec       q    Type
REMARK                         _______ _______ _______ _____ _____    ______ ____
ROOT
ATOM      1  N   UNL     1       5.158   4.924  19.165  0.00  0.00    +0.000 N 
ATOM      2  C   UNL     1       4.657   3.660  19.445  0.00  0.00    +0.000 A 
ATOM      3  O   UNL     1       5.336   2.729  19.870  0.00  0.00    +0.000 OA
ATOM      4  C   UNL     1       3.226   3.441  19.189  0.00  0.00    +0.000 A 
ATOM      5  C   UNL     1       2.674   2.169  19.433  0.00  0.00    +0.000 A 
ATOM      6  C   UNL     1       1.334   1.922  19.156  0.00  0.00    +0.000 A 
ATOM      7  C   UNL     1       0.551   2.939  18.625  0.00  0.00    +0.000 A 
ATOM      8  C   UNL     1       1.108   4.201  18.379  0.00  0.00    +0.000 A 
ATOM      9  C   UNL     1       2.453   4.476  18.665  0.00  0.00    +0.000 A 
ATOM     10  N   UNL     1       3.053   5.751  18.438  0.00  0.00    +0.000 N 
ATOM     11  C   UNL     1       4.398   5.990  18.703  0.00  0.00    +0.000 A 
ATOM     12  O   UNL     1       4.903   7.103  18.527  0.00  0.00    +0.000 OA
ENDROOT
BRANCH   1  13
ATOM     13  C   UNL     1       6.609   5.121  19.250  0.00  0.00    +0.000 C 
BRANCH  13  14
ATOM     14  C   UNL     1       7.356   4.899  17.934  0.00  0.00    +0.000 C 
BRANCH  14  16
ATOM     15  N   UNL     1       7.759   7.280  18.104  0.00  0.00    +0.000 N 
ATOM     16  C   UNL     1       7.571   6.226  17.236  0.00  0.00    +0.000 C 
ATOM     17  O   UNL     1       7.580   6.348  16.016  0.00  0.00    +0.000 OA
ATOM     18  H   UNL     1       7.707   7.120  19.102  0.00  0.00    +0.000 HD
BRANCH  15  19
ATOM     19  C   UNL     1       8.015   8.625  17.625  0.00  0.00    +0.000 C 
BRANCH  19  20
ATOM     20  C   UNL     1       8.795   9.468  18.633  0.00  0.00    +0.000 C 
BRANCH  20  21
ATOM     21  C   UNL     1       8.916  10.917  18.167  0.00  0.00    +0.000 C 
BRANCH  21  23
ATOM     22  C   UNL     1      10.771  12.375  18.315  0.00  0.00    +0.000 C 
ATOM     23  O   UNL     1      10.262  11.166  17.775  0.00  0.00    +0.000 OA
ENDBRANCH  21  23
ENDBRANCH  20  21
ENDBRANCH  19  20
ENDBRANCH  15  19
ENDBRANCH  14  16
ENDBRANCH  13  14
ENDBRANCH   1  13
BRANCH  10  24
ATOM     24  C   UNL     1       2.270   6.880  17.915  0.00  0.00    +0.000 C 
BRANCH  24  25
ATOM     25  C   UNL     1       1.827   7.840  19.000  0.00  0.00    +0.000 A 
ATOM     26  C   UNL     1       1.790   7.431  20.344  0.00  0.00    +0.000 A 
ATOM     27  C   UNL     1       1.290   8.272  21.340  0.00  0.00    +0.000 A 
ATOM     28  C   UNL     1       0.817   9.541  21.012  0.00  0.00    +0.000 A 
ATOM     29  C   UNL     1       0.886   9.975  19.684  0.00  0.00    +0.000 A 
ATOM     30  C   UNL     1       1.409   9.141  18.684  0.00  0.00    +0.000 A 
BRANCH  29  31
ATOM     31  N   UNL     1       0.378  11.303  19.322  0.00  0.00    +0.000 N 
ATOM     32  O   UNL     1       0.517  12.219  20.145  0.00  0.00    +0.000 OA
ATOM     33  O   UNL     1      -0.171  11.428  18.218  0.00  0.00    +0.000 OA
ENDBRANCH  29  31
ENDBRANCH  24  25
ENDBRANCH  10  24
TORSDOF 10
ENDMDL
MODEL 8
REMARK VINA RESULT:      -7.2      3.178      6.356
REMARK  Name = 
REMARK  11 active torsions:
REMARK  status: ('A' for Active; 'I' for Inactive)
REMARK    1  A    between atoms: C_1  and  O_2
REMARK    2  A    between atoms: O_2  and  C_3
REMARK    3  A    between atoms: C_3  and  C_4
REMARK    4  A    between atoms: C_4  and  C_5
REMARK    5  A    between atoms: C_5  and  N_6
REMARK    6  A    between atoms: C_7  and  C_9
REMARK    7  A    between atoms: C_9  and  C_10
REMARK    8  A    between atoms: C_10  and  N_11
REMARK    9  A    between atoms: N_20  and  C_21
REMARK   10  A    between atoms: C_21  and  C_22
REMARK   11  A    between atoms: C_26  and  N_27
REMARK                            x       y       z     vdW  Elec       q    Type
REMARK                         _______ _______ _______ _____ _____    ______ ____
ROOT
ATOM      1  N   UNL     1       1.786   8.622  18.922  0.00  0.00    +0.000 N 
ATOM      2  C   UNL     1       1.433   8.154  20.180  0.00  0.00    +0.000 A 
ATOM      3  O   UNL     1       1.636   7.006  20.570  0.00  0.00    +0.000 OA
ATOM      4  C   UNL     1       0.756   9.102  21.077  0.00  0.00    +0.000 A 
ATOM      5  C   UNL     1       0.356   8.668  22.356  0.00  0.00    +0.000 A 
ATOM      6  C   UNL     1      -0.326   9.532  23.206  0.00  0.00    +0.000 A 
ATOM      7  C   UNL     1      -0.617  10.820  22.776  0.00  0.00    +0.000 A 
ATOM      8  C   UNL     1      -0.221  11.243  21.501  0.00  0.00    +0.000 A 
ATOM      9  C   UNL     1       0.481  10.394  20.633  0.00  0.00    +0.000 A 
ATOM     10  N   UNL     1       0.911  10.793  19.332  0.00  0.00    +0.000 N 
ATOM     11  C   UNL     1       1.580   9.921  18.478  0.00  0.00    +0.000 A 
ATOM     12  O   UNL     1       1.970  10.283  17.363  0.00  0.00    +0.000 OA
ENDROOT
BRANCH   1  13
ATOM     13  C   UNL     1       2.306   7.655  17.951  0.00  0.00    +0.000 C 
BRANCH  13  14
ATOM     14  C   UNL     1       3.821   7.455  18.007  0.00  0.00    +0.000 C 
BRANCH  14  16
ATOM     15  N   UNL     1       3.886   5.291  19.089  0.00  0.00    +0.000 N 
ATOM     16  C   UNL     1       4.149   5.978  17.923  0.00  0.00    +0.000 C 
ATOM     17  O   UNL     1       4.600   5.447  16.915  0.00  0.00    +0.000 OA
ATOM     18  H   UNL     1       3.545   5.792  19.898  0.00  0.00    +0.000 HD
BRANCH  15  19
ATOM     19  C   UNL     1       4.101   3.859  19.194  0.00  0.00    +0.000 C 
BRANCH  19  20
ATOM     20  C   UNL     1       2.854   3.052  18.838  0.00  0.00    +0.000 C 
BRANCH  20  21
ATOM     21  C   UNL     1       1.595   3.695  19.415  0.00  0.00    +0.000 C 
BRANCH  21  23
ATOM     22  C   UNL     1       1.544   2.775  21.592  0.00  0.00    +0.000 C 
ATOM     23  O   UNL     1       0.966   2.771  20.296  0.00  0.00    +0.000 OA
ENDBRANCH  21  23
ENDBRANCH  20  21
ENDBRANCH  19  20
ENDBRANCH  15  19
ENDBRANCH  14  16
ENDBRANCH  13  14
ENDBRANCH   1  13
BRANCH  10  24
ATOM     24  C   UNL     1       0.668  12.154  18.832  0.00  0.00    +0.000 C 
BRANCH  24  25
ATOM     25  C   UNL     1       1.816  13.100  19.124  0.00  0.00    +0.000 A 
ATOM     26  C   UNL     1       2.507  13.729  18.075  0.00  0.00    +0.000 A 
ATOM     27  C   UNL     1       3.629  14.523  18.325  0.00  0.00    +0.000 A 
ATOM     28  C   UNL     1       4.081  14.705  19.630  0.00  0.00    +0.000 A 
ATOM     29  C   UNL     1       3.376  14.118  20.686  0.00  0.00    +0.000 A 
ATOM     30  C   UNL     1       2.236  13.338  20.441  0.00  0.00    +0.000 A 
BRANCH  29  31
ATOM     31  N   UNL     1       3.849  14.290  22.064  0.00  0.00    +0.000 N 
ATOM     32  O   UNL     1       3.220  15.065  22.799  0.00  0.00    +0.000 OA
ATOM     33  O   UNL     1       4.857  13.657  22.410  0.00  0.00    +0.000 OA
ENDBRANCH  29  31
ENDBRANCH  24  25
ENDBRANCH  10  24
TORSDOF 10
ENDMDL
MODEL 9
REMARK VINA RESULT:      -7.1      1.465      1.731
REMARK  Name = 
REMARK  11 active torsions:
REMARK  status: ('A' for Active; 'I' for Inactive)
REMARK    1  A    between atoms: C_1  and  O_2
REMARK    2  A    between atoms: O_2  and  C_3
REMARK    3  A    between atoms: C_3  and  C_4
REMARK    4  A    between atoms: C_4  and  C_5
REMARK    5  A    between atoms: C_5  and  N_6
REMARK    6  A    between atoms: C_7  and  C_9
REMARK    7  A    between atoms: C_9  and  C_10
REMARK    8  A    between atoms: C_10  and  N_11
REMARK    9  A    between atoms: N_20  and  C_21
REMARK   10  A    between atoms: C_21  and  C_22
REMARK   11  A    between atoms: C_26  and  N_27
REMARK                            x       y       z     vdW  Elec       q    Type
REMARK                         _______ _______ _______ _____ _____    ______ ____
ROOT
ATOM      1  N   UNL     1       5.243   5.295  18.848  0.00  0.00    +0.000 N 
ATOM      2  C   UNL     1       4.784   4.085  19.349  0.00  0.00    +0.000 A 
ATOM      3  O   UNL     1       5.492   3.269  19.934  0.00  0.00    +0.000 OA
ATOM      4  C   UNL     1       3.363   3.773  19.137  0.00  0.00    +0.000 A 
ATOM      5  C   UNL     1       2.854   2.547  19.605  0.00  0.00    +0.000 A 
ATOM      6  C   UNL     1       1.524   2.208  19.377  0.00  0.00    +0.000 A 
ATOM      7  C   UNL     1       0.710   3.086  18.673  0.00  0.00    +0.000 A 
ATOM      8  C   UNL     1       1.225   4.302  18.206  0.00  0.00    +0.000 A 
ATOM      9  C   UNL     1       2.557   4.671  18.438  0.00  0.00    +0.000 A 
ATOM     10  N   UNL     1       3.114   5.905  17.987  0.00  0.00    +0.000 N 
ATOM     11  C   UNL     1       4.449   6.235  18.204  0.00  0.00    +0.000 A 
ATOM     12  O   UNL     1       4.915   7.316  17.832  0.00  0.00    +0.000 OA
ENDROOT
BRANCH   1  13
ATOM     13  C   UNL     1       6.685   5.555  18.897  0.00  0.00    +0.000 C 
BRANCH  13  14
ATOM     14  C   UNL     1       7.508   4.736  17.901  0.00  0.00    +0.000 C 
BRANCH  14  16
ATOM     15  N   UNL     1       6.844   4.423  15.595  0.00  0.00    +0.000 N 
ATOM     16  C   UNL     1       7.358   5.317  16.510  0.00  0.00    +0.000 C 
ATOM     17  O   UNL     1       7.661   6.470  16.227  0.00  0.00    +0.000 OA
ATOM     18  H   UNL     1       6.644   3.474  15.882  0.00  0.00    +0.000 HD
BRANCH  15  19
ATOM     19  C   UNL     1       6.593   4.803  14.217  0.00  0.00    +0.000 C 
BRANCH  19  20
ATOM     20  C   UNL     1       6.334   3.598  13.314  0.00  0.00    +0.000 C 
BRANCH  20  21
ATOM     21  C   UNL     1       4.893   3.584  12.809  0.00  0.00    +0.000 C 
BRANCH  21  23
ATOM     22  C   UNL     1       3.585   3.185  10.881  0.00  0.00    +0.000 C 
ATOM     23  O   UNL     1       4.895   3.307  11.412  0.00  0.00    +0.000 OA
ENDBRANCH  21  23
ENDBRANCH  20  21
ENDBRANCH  19  20
ENDBRANCH  15  19
ENDBRANCH  14  16
ENDBRANCH  13  14
ENDBRANCH   1  13
BRANCH  10  24
ATOM     24  C   UNL     1       2.295   6.895  17.271  0.00  0.00    +0.000 C 
BRANCH  24  25
ATOM     25  C   UNL     1       1.891   8.065  18.146  0.00  0.00    +0.000 A 
ATOM     26  C   UNL     1       1.951   9.379  17.652  0.00  0.00    +0.000 A 
ATOM     27  C   UNL     1       1.677  10.472  18.478  0.00  0.00    +0.000 A 
ATOM     28  C   UNL     1       1.336  10.272  19.813  0.00  0.00    +0.000 A 
ATOM     29  C   UNL     1       1.232   8.966  20.305  0.00  0.00    +0.000 A 
ATOM     30  C   UNL     1       1.485   7.865  19.473  0.00  0.00    +0.000 A 
BRANCH  29  31
ATOM     31  N   UNL     1       0.888   8.741  21.713  0.00  0.00    +0.000 N 
ATOM     32  O   UNL     1      -0.156   8.121  21.961  0.00  0.00    +0.000 OA
ATOM     33  O   UNL     1       1.657   9.194  22.573  0.00  0.00    +0.000 OA
ENDBRANCH  29  31
ENDBRANCH  24  25
ENDBRANCH  10  24
TORSDOF 10
ENDMDL
