MODEL 1
REMARK VINA RESULT:      -9.3      0.000      0.000
REMARK  Name = 
REMARK  4 active torsions:
REMARK  status: ('A' for Active; 'I' for Inactive)
REMARK    1  A    between atoms: C_2  and  C_5
REMARK    2  A    between atoms: C_7  and  C_8
REMARK    3  A    between atoms: N_20  and  C_21
REMARK    4  A    between atoms: C_26  and  C_27
REMARK                            x       y       z     vdW  Elec       q    Type
REMARK                         _______ _______ _______ _____ _____    ______ ____
ROOT
ATOM      1  C   UNL     1       4.166   6.476  16.962  0.00  0.00    +0.000 A 
ATOM      2  C   UNL     1       3.667   5.450  17.791  0.00  0.00    +0.000 A 
ATOM      3  C   UNL     1       2.788   5.691  18.867  0.00  0.00    +0.000 A 
ATOM      4  C   UNL     1       2.472   7.047  19.039  0.00  0.00    +0.000 A 
ATOM      5  N   UNL     1       1.753   7.688  20.002  0.00  0.00    +0.000 N 
ATOM      6  C   UNL     1       1.585   8.991  19.650  0.00  0.00    +0.000 A 
ATOM      7  N   UNL     1       0.705   9.702  20.377  0.00  0.00    +0.000 N 
ATOM      8  C   UNL     1       0.117  10.930  19.798  0.00  0.00    +0.000 C 
ATOM      9  C   UNL     1      -1.233  11.230  20.514  0.00  0.00    +0.000 C 
ATOM     10  N   UNL     1      -0.971  11.316  21.968  0.00  0.00    +0.000 N 
ATOM     11  C   UNL     1      -0.447  10.058  22.521  0.00  0.00    +0.000 C 
ATOM     12  C   UNL     1       0.907   9.778  21.838  0.00  0.00    +0.000 C 
ATOM     13  N   UNL     1       2.269   9.273  18.569  0.00  0.00    +0.000 NA
ATOM     14  C   UNL     1       2.868   8.086  18.205  0.00  0.00    +0.000 A 
ATOM     15  C   UNL     1       3.748   7.805  17.158  0.00  0.00    +0.000 A 
ATOM     16  H   UNL     1       1.308   7.257  20.794  0.00  0.00    +0.000 HD
ENDROOT
BRANCH   3  17
ATOM     17  C   UNL     1       2.240   4.637  19.744  0.00  0.00    +0.000 A 
ATOM     18  C   UNL     1       1.213   3.785  19.307  0.00  0.00    +0.000 A 
ATOM     19  C   UNL     1       0.686   2.789  20.133  0.00  0.00    +0.000 A 
ATOM     20  C   UNL     1       1.194   2.602  21.416  0.00  0.00    +0.000 A 
ATOM     21  C   UNL     1       2.214   3.425  21.877  0.00  0.00    +0.000 A 
ATOM     22  C   UNL     1       2.711   4.444  21.059  0.00  0.00    +0.000 A 
ENDBRANCH   3  17
BRANCH  10  23
ATOM     23  C   UNL     1      -1.719  12.164  22.744  0.00  0.00    +0.000 A 
ATOM     24  N   UNL     1      -2.825  11.641  23.331  0.00  0.00    +0.000 NA
ATOM     25  C   UNL     1      -3.632  12.443  24.058  0.00  0.00    +0.000 A 
ATOM     26  C   UNL     1      -3.400  13.786  24.253  0.00  0.00    +0.000 A 
ATOM     27  C   UNL     1      -2.279  14.328  23.651  0.00  0.00    +0.000 A 
ATOM     28  C   UNL     1      -1.428  13.525  22.866  0.00  0.00    +0.000 A 
BRANCH  28  29
ATOM     29  C   UNL     1      -0.300  14.235  22.173  0.00  0.00    +0.000 C 
ATOM     30  F   UNL     1       0.863  13.556  22.010  0.00  0.00    +0.000 F 
ATOM     31  F   UNL     1      -0.642  14.633  20.910  0.00  0.00    +0.000 F 
ATOM     32  F   UNL     1       0.046  15.385  22.827  0.00  0.00    +0.000 F 
ENDBRANCH  28  29
ENDBRANCH  10  23
BRANCH   1  34
ATOM     33  F   UNL     1       6.453   6.348  16.238  0.00  0.00    +0.000 F 
ATOM     34  C   UNL     1       5.150   6.169  15.862  0.00  0.00    +0.000 C 
ATOM     35  F   UNL     1       4.975   6.951  14.765  0.00  0.00    +0.000 F 
ATOM     36  F   UNL     1       5.072   4.879  15.426  0.00  0.00    +0.000 F 
ENDBRANCH   1  34
TORSDOF 4
ENDMDL
MODEL 2
REMARK VINA RESULT:      -9.2      1.587      1.839
REMARK  Name = 
REMARK  4 active torsions:
REMARK  status: ('A' for Active; 'I' for Inactive)
REMARK    1  A    between atoms: C_2  and  C_5
REMARK    2  A    between atoms: C_7  and  C_8
REMARK    3  A    between atoms: N_20  and  C_21
REMARK    4  A    between atoms: C_26  and  C_27
REMARK                            x       y       z     vdW  Elec       q    Type
REMARK                         _______ _______ _______ _____ _____    ______ ____
ROOT
ATOM      1  C   UNL     1       4.917   5.595  16.739  0.00  0.00    +0.000 A 
ATOM      2  C   UNL     1       4.251   4.751  17.653  0.00  0.00    +0.000 A 
ATOM      3  C   UNL     1       3.222   5.201  18.504  0.00  0.00    +0.000 A 
ATOM      4  C   UNL     1       2.935   6.567  18.364  0.00  0.00    +0.000 A 
ATOM      5  N   UNL     1       2.097   7.386  19.058  0.00  0.00    +0.000 N 
ATOM      6  C   UNL     1       2.038   8.599  18.445  0.00  0.00    +0.000 A 
ATOM      7  N   UNL     1       1.082   9.443  18.870  0.00  0.00    +0.000 N 
ATOM      8  C   UNL     1       0.643  10.542  17.982  0.00  0.00    +0.000 C 
ATOM      9  C   UNL     1      -0.791  10.985  18.396  0.00  0.00    +0.000 C 
ATOM     10  N   UNL     1      -0.762  11.346  19.831  0.00  0.00    +0.000 N 
ATOM     11  C   UNL     1      -0.384  10.213  20.690  0.00  0.00    +0.000 C 
ATOM     12  C   UNL     1       1.051   9.796  20.304  0.00  0.00    +0.000 C 
ATOM     13  N   UNL     1       2.898   8.663  17.458  0.00  0.00    +0.000 NA
ATOM     14  C   UNL     1       3.500   7.424  17.427  0.00  0.00    +0.000 A 
ATOM     15  C   UNL     1       4.525   6.940  16.610  0.00  0.00    +0.000 A 
ATOM     16  H   UNL     1       1.515   7.119  19.833  0.00  0.00    +0.000 HD
ENDROOT
BRANCH   3  17
ATOM     17  C   UNL     1       2.499   4.339  19.462  0.00  0.00    +0.000 A 
ATOM     18  C   UNL     1       1.436   3.520  19.047  0.00  0.00    +0.000 A 
ATOM     19  C   UNL     1       0.744   2.707  19.949  0.00  0.00    +0.000 A 
ATOM     20  C   UNL     1       1.118   2.671  21.289  0.00  0.00    +0.000 A 
ATOM     21  C   UNL     1       2.170   3.465  21.730  0.00  0.00    +0.000 A 
ATOM     22  C   UNL     1       2.833   4.305  20.831  0.00  0.00    +0.000 A 
ENDBRANCH   3  17
BRANCH  10  23
ATOM     23  C   UNL     1      -1.591  12.333  20.300  0.00  0.00    +0.000 A 
ATOM     24  N   UNL     1      -2.925  12.087  20.249  0.00  0.00    +0.000 NA
ATOM     25  C   UNL     1      -3.791  13.045  20.642  0.00  0.00    +0.000 A 
ATOM     26  C   UNL     1      -3.402  14.282  21.107  0.00  0.00    +0.000 A 
ATOM     27  C   UNL     1      -2.046  14.543  21.154  0.00  0.00    +0.000 A 
ATOM     28  C   UNL     1      -1.114  13.574  20.730  0.00  0.00    +0.000 A 
BRANCH  28  29
ATOM     29  C   UNL     1       0.327  13.997  20.723  0.00  0.00    +0.000 C 
ATOM     30  F   UNL     1       1.212  13.221  21.396  0.00  0.00    +0.000 F 
ATOM     31  F   UNL     1       0.834  14.073  19.455  0.00  0.00    +0.000 F 
ATOM     32  F   UNL     1       0.483  15.252  21.243  0.00  0.00    +0.000 F 
ENDBRANCH  28  29
ENDBRANCH  10  23
BRANCH   1  34
ATOM     33  F   UNL     1       5.909   5.365  14.565  0.00  0.00    +0.000 F 
ATOM     34  C   UNL     1       6.051   5.075  15.894  0.00  0.00    +0.000 C 
ATOM     35  F   UNL     1       6.185   3.725  15.963  0.00  0.00    +0.000 F 
ATOM     36  F   UNL     1       7.260   5.596  16.252  0.00  0.00    +0.000 F 
ENDBRANCH   1  34
TORSDOF 4
ENDMDL
MODEL 3
REMARK VINA RESULT:      -9.1      1.594      2.075
REMARK  Name = 
REMARK  4 active torsions:
REMARK  status: ('A' for Active; 'I' for Inactive)
REMARK    1  A    between atoms: C_2  and  C_5
REMARK    2  A    between atoms: C_7  and  C_8
REMARK    3  A    between atoms: N_20  and  C_21
REMARK    4  A    between atoms: C_26  and  C_27
REMARK                            x       y       z     vdW  Elec       q    Type
REMARK                         _______ _______ _______ _____ _____    ______ ____
ROOT
ATOM      1  C   UNL     1       4.918   5.581  16.725  0.00  0.00    +0.000 A 
ATOM      2  C   UNL     1       4.252   4.738  17.639  0.00  0.00    +0.000 A 
ATOM      3  C   UNL     1       3.225   5.190  18.492  0.00  0.00    +0.000 A 
ATOM      4  C   UNL     1       2.941   6.556  18.353  0.00  0.00    +0.000 A 
ATOM      5  N   UNL     1       2.106   7.377  19.048  0.00  0.00    +0.000 N 
ATOM      6  C   UNL     1       2.049   8.591  18.436  0.00  0.00    +0.000 A 
ATOM      7  N   UNL     1       1.095   9.436  18.863  0.00  0.00    +0.000 N 
ATOM      8  C   UNL     1       0.657  10.537  17.976  0.00  0.00    +0.000 C 
ATOM      9  C   UNL     1      -0.775  10.982  18.392  0.00  0.00    +0.000 C 
ATOM     10  N   UNL     1      -0.743  11.343  19.828  0.00  0.00    +0.000 N 
ATOM     11  C   UNL     1      -0.366  10.209  20.685  0.00  0.00    +0.000 C 
ATOM     12  C   UNL     1       1.066   9.789  20.296  0.00  0.00    +0.000 C 
ATOM     13  N   UNL     1       2.907   8.653  17.447  0.00  0.00    +0.000 NA
ATOM     14  C   UNL     1       3.506   7.412  17.415  0.00  0.00    +0.000 A 
ATOM     15  C   UNL     1       4.529   6.927  16.597  0.00  0.00    +0.000 A 
ATOM     16  H   UNL     1       1.524   7.111  19.824  0.00  0.00    +0.000 HD
ENDROOT
BRANCH   3  17
ATOM     17  C   UNL     1       2.501   4.329  19.450  0.00  0.00    +0.000 A 
ATOM     18  C   UNL     1       2.850   4.298  20.810  0.00  0.00    +0.000 A 
ATOM     19  C   UNL     1       2.174   3.482  21.720  0.00  0.00    +0.000 A 
ATOM     20  C   UNL     1       1.109   2.691  21.296  0.00  0.00    +0.000 A 
ATOM     21  C   UNL     1       0.736   2.703  19.958  0.00  0.00    +0.000 A 
ATOM     22  C   UNL     1       1.440   3.493  19.045  0.00  0.00    +0.000 A 
ENDBRANCH   3  17
BRANCH  10  23
ATOM     23  C   UNL     1      -1.570  12.331  20.298  0.00  0.00    +0.000 A 
ATOM     24  N   UNL     1      -2.901  12.067  20.302  0.00  0.00    +0.000 NA
ATOM     25  C   UNL     1      -3.766  13.024  20.699  0.00  0.00    +0.000 A 
ATOM     26  C   UNL     1      -3.379  14.278  21.114  0.00  0.00    +0.000 A 
ATOM     27  C   UNL     1      -2.026  14.559  21.105  0.00  0.00    +0.000 A 
ATOM     28  C   UNL     1      -1.096  13.591  20.675  0.00  0.00    +0.000 A 
BRANCH  28  29
ATOM     29  C   UNL     1       0.337  14.034  20.605  0.00  0.00    +0.000 C 
ATOM     30  F   UNL     1       0.946  14.000  19.393  0.00  0.00    +0.000 F 
ATOM     31  F   UNL     1       0.498  15.323  21.032  0.00  0.00    +0.000 F 
ATOM     32  F   UNL     1       1.134  13.285  21.426  0.00  0.00    +0.000 F 
ENDBRANCH  28  29
ENDBRANCH  10  23
BRANCH   1  34
ATOM     33  F   UNL     1       5.895   5.329  14.546  0.00  0.00    +0.000 F 
ATOM     34  C   UNL     1       6.050   5.059  15.878  0.00  0.00    +0.000 C 
ATOM     35  F   UNL     1       6.196   3.711  15.964  0.00  0.00    +0.000 F 
ATOM     36  F   UNL     1       7.257   5.595  16.219  0.00  0.00    +0.000 F 
ENDBRANCH   1  34
TORSDOF 4
ENDMDL
MODEL 4
REMARK VINA RESULT:      -9.1      1.546      1.888
REMARK  Name = 
REMARK  4 active torsions:
REMARK  status: ('A' for Active; 'I' for Inactive)
REMARK    1  A    between atoms: C_2  and  C_5
REMARK    2  A    between atoms: C_7  and  C_8
REMARK    3  A    between atoms: N_20  and  C_21
REMARK    4  A    between atoms: C_26  and  C_27
REMARK                            x       y       z     vdW  Elec       q    Type
REMARK                         _______ _______ _______ _____ _____    ______ ____
ROOT
ATOM      1  C   UNL     1       5.043   5.781  16.892  0.00  0.00    +0.000 A 
ATOM      2  C   UNL     1       4.385   4.880  17.756  0.00  0.00    +0.000 A 
ATOM      3  C   UNL     1       3.291   5.252  18.564  0.00  0.00    +0.000 A 
ATOM      4  C   UNL     1       2.932   6.601  18.435  0.00  0.00    +0.000 A 
ATOM      5  N   UNL     1       2.015   7.356  19.103  0.00  0.00    +0.000 N 
ATOM      6  C   UNL     1       1.914   8.576  18.511  0.00  0.00    +0.000 A 
ATOM      7  N   UNL     1       0.891   9.353  18.904  0.00  0.00    +0.000 N 
ATOM      8  C   UNL     1       0.431  10.445  18.017  0.00  0.00    +0.000 C 
ATOM      9  C   UNL     1      -1.045  10.794  18.369  0.00  0.00    +0.000 C 
ATOM     10  N   UNL     1      -1.106  11.125  19.810  0.00  0.00    +0.000 N 
ATOM     11  C   UNL     1      -0.703   9.998  20.664  0.00  0.00    +0.000 C 
ATOM     12  C   UNL     1       0.770   9.674  20.341  0.00  0.00    +0.000 C 
ATOM     13  N   UNL     1       2.815   8.711  17.568  0.00  0.00    +0.000 NA
ATOM     14  C   UNL     1       3.489   7.509  17.543  0.00  0.00    +0.000 A 
ATOM     15  C   UNL     1       4.579   7.103  16.769  0.00  0.00    +0.000 A 
ATOM     16  H   UNL     1       1.413   7.038  19.843  0.00  0.00    +0.000 HD
ENDROOT
BRANCH   3  17
ATOM     17  C   UNL     1       2.576   4.328  19.469  0.00  0.00    +0.000 A 
ATOM     18  C   UNL     1       1.626   3.417  18.979  0.00  0.00    +0.000 A 
ATOM     19  C   UNL     1       0.942   2.546  19.830  0.00  0.00    +0.000 A 
ATOM     20  C   UNL     1       1.211   2.544  21.195  0.00  0.00    +0.000 A 
ATOM     21  C   UNL     1       2.149   3.430  21.711  0.00  0.00    +0.000 A 
ATOM     22  C   UNL     1       2.803   4.325  20.861  0.00  0.00    +0.000 A 
ENDBRANCH   3  17
BRANCH  10  23
ATOM     23  C   UNL     1      -2.013  12.052  20.256  0.00  0.00    +0.000 A 
ATOM     24  N   UNL     1      -3.188  12.132  19.582  0.00  0.00    +0.000 NA
ATOM     25  C   UNL     1      -4.096  13.066  19.940  0.00  0.00    +0.000 A 
ATOM     26  C   UNL     1      -3.906  13.960  20.969  0.00  0.00    +0.000 A 
ATOM     27  C   UNL     1      -2.707  13.891  21.655  0.00  0.00    +0.000 A 
ATOM     28  C   UNL     1      -1.729  12.944  21.294  0.00  0.00    +0.000 A 
BRANCH  28  29
ATOM     29  C   UNL     1      -0.424  13.023  22.033  0.00  0.00    +0.000 C 
ATOM     30  F   UNL     1       0.716  13.017  21.298  0.00  0.00    +0.000 F 
ATOM     31  F   UNL     1      -0.333  14.157  22.794  0.00  0.00    +0.000 F 
ATOM     32  F   UNL     1      -0.284  11.990  22.917  0.00  0.00    +0.000 F 
ENDBRANCH  28  29
ENDBRANCH  10  23
BRANCH   1  34
ATOM     33  F   UNL     1       6.594   4.042  16.311  0.00  0.00    +0.000 F 
ATOM     34  C   UNL     1       6.244   5.346  16.093  0.00  0.00    +0.000 C 
ATOM     35  F   UNL     1       7.356   6.075  16.374  0.00  0.00    +0.000 F 
ATOM     36  F   UNL     1       6.052   5.451  14.747  0.00  0.00    +0.000 F 
ENDBRANCH   1  34
TORSDOF 4
ENDMDL
MODEL 5
REMARK VINA RESULT:      -9.0      1.655      2.067
REMARK  Name = 
REMARK  4 active torsions:
REMARK  status: ('A' for Active; 'I' for Inactive)
REMARK    1  A    between atoms: C_2  and  C_5
REMARK    2  A    between atoms: C_7  and  C_8
REMARK    3  A    between atoms: N_20  and  C_21
REMARK    4  A    between atoms: C_26  and  C_27
REMARK                            x       y       z     vdW  Elec       q    Type
REMARK                         _______ _______ _______ _____ _____    ______ ____
ROOT
ATOM      1  C   UNL     1       4.998   5.290  16.689  0.00  0.00    +0.000 A 
ATOM      2  C   UNL     1       4.379   4.469  17.654  0.00  0.00    +0.000 A 
ATOM      3  C   UNL     1       3.402   4.943  18.553  0.00  0.00    +0.000 A 
ATOM      4  C   UNL     1       3.118   6.308  18.403  0.00  0.00    +0.000 A 
ATOM      5  N   UNL     1       2.326   7.147  19.128  0.00  0.00    +0.000 N 
ATOM      6  C   UNL     1       2.242   8.349  18.496  0.00  0.00    +0.000 A 
ATOM      7  N   UNL     1       1.317   9.208  18.958  0.00  0.00    +0.000 N 
ATOM      8  C   UNL     1       0.837  10.295  18.076  0.00  0.00    +0.000 C 
ATOM      9  C   UNL     1      -0.569  10.756  18.561  0.00  0.00    +0.000 C 
ATOM     10  N   UNL     1      -0.457  11.144  19.985  0.00  0.00    +0.000 N 
ATOM     11  C   UNL     1      -0.039  10.024  20.842  0.00  0.00    +0.000 C 
ATOM     12  C   UNL     1       1.368   9.588  20.385  0.00  0.00    +0.000 C 
ATOM     13  N   UNL     1       3.045   8.388  17.462  0.00  0.00    +0.000 NA
ATOM     14  C   UNL     1       3.635   7.143  17.420  0.00  0.00    +0.000 A 
ATOM     15  C   UNL     1       4.610   6.636  16.557  0.00  0.00    +0.000 A 
ATOM     16  H   UNL     1       1.786   6.899  19.939  0.00  0.00    +0.000 HD
ENDROOT
BRANCH   3  17
ATOM     17  C   UNL     1       2.728   4.104  19.565  0.00  0.00    +0.000 A 
ATOM     18  C   UNL     1       1.328   4.000  19.611  0.00  0.00    +0.000 A 
ATOM     19  C   UNL     1       0.684   3.213  20.570  0.00  0.00    +0.000 A 
ATOM     20  C   UNL     1       1.428   2.486  21.494  0.00  0.00    +0.000 A 
ATOM     21  C   UNL     1       2.815   2.563  21.472  0.00  0.00    +0.000 A 
ATOM     22  C   UNL     1       3.453   3.381  20.535  0.00  0.00    +0.000 A 
ENDBRANCH   3  17
BRANCH  10  23
ATOM     23  C   UNL     1      -1.252  12.146  20.481  0.00  0.00    +0.000 A 
ATOM     24  N   UNL     1      -2.272  11.772  21.294  0.00  0.00    +0.000 NA
ATOM     25  C   UNL     1      -3.122  12.710  21.765  0.00  0.00    +0.000 A 
ATOM     26  C   UNL     1      -3.018  14.051  21.471  0.00  0.00    +0.000 A 
ATOM     27  C   UNL     1      -1.986  14.438  20.636  0.00  0.00    +0.000 A 
ATOM     28  C   UNL     1      -1.094  13.483  20.109  0.00  0.00    +0.000 A 
BRANCH  28  29
ATOM     29  C   UNL     1      -0.076  13.996  19.131  0.00  0.00    +0.000 C 
ATOM     30  F   UNL     1       1.194  13.532  19.245  0.00  0.00    +0.000 F 
ATOM     31  F   UNL     1      -0.423  13.723  17.837  0.00  0.00    +0.000 F 
ATOM     32  F   UNL     1       0.035  15.357  19.190  0.00  0.00    +0.000 F 
ENDBRANCH  28  29
ENDBRANCH  10  23
BRANCH   1  34
ATOM     33  F   UNL     1       5.906   3.426  15.477  0.00  0.00    +0.000 F 
ATOM     34  C   UNL     1       6.080   4.746  15.792  0.00  0.00    +0.000 C 
ATOM     35  F   UNL     1       7.317   4.831  16.345  0.00  0.00    +0.000 F 
ATOM     36  F   UNL     1       6.153   5.398  14.595  0.00  0.00    +0.000 F 
ENDBRANCH   1  34
TORSDOF 4
ENDMDL
MODEL 6
REMARK VINA RESULT:      -8.8      0.703      1.226
REMARK  Name = 
REMARK  4 active torsions:
REMARK  status: ('A' for Active; 'I' for Inactive)
REMARK    1  A    between atoms: C_2  and  C_5
REMARK    2  A    between atoms: C_7  and  C_8
REMARK    3  A    between atoms: N_20  and  C_21
REMARK    4  A    between atoms: C_26  and  C_27
REMARK                            x       y       z     vdW  Elec       q    Type
REMARK                         _______ _______ _______ _____ _____    ______ ____
ROOT
ATOM      1  C   UNL     1       4.424   5.855  16.761  0.00  0.00    +0.000 A 
ATOM      2  C   UNL     1       3.921   4.887  17.655  0.00  0.00    +0.000 A 
ATOM      3  C   UNL     1       3.067   5.206  18.731  0.00  0.00    +0.000 A 
ATOM      4  C   UNL     1       2.780   6.575  18.832  0.00  0.00    +0.000 A 
ATOM      5  N   UNL     1       2.092   7.284  19.770  0.00  0.00    +0.000 N 
ATOM      6  C   UNL     1       1.942   8.568  19.349  0.00  0.00    +0.000 A 
ATOM      7  N   UNL     1       1.090   9.336  20.050  0.00  0.00    +0.000 N 
ATOM      8  C   UNL     1       0.515  10.542  19.413  0.00  0.00    +0.000 C 
ATOM      9  C   UNL     1      -0.815  10.909  20.135  0.00  0.00    +0.000 C 
ATOM     10  N   UNL     1      -0.524  11.071  21.577  0.00  0.00    +0.000 N 
ATOM     11  C   UNL     1      -0.015   9.835  22.190  0.00  0.00    +0.000 C 
ATOM     12  C   UNL     1       1.321   9.490  21.500  0.00  0.00    +0.000 C 
ATOM     13  N   UNL     1       2.612   8.776  18.242  0.00  0.00    +0.000 NA
ATOM     14  C   UNL     1       3.180   7.558  17.934  0.00  0.00    +0.000 A 
ATOM     15  C   UNL     1       4.036   7.201  16.889  0.00  0.00    +0.000 A 
ATOM     16  H   UNL     1       1.653   6.907  20.593  0.00  0.00    +0.000 HD
ENDROOT
BRANCH   3  17
ATOM     17  C   UNL     1       2.515   4.214  19.675  0.00  0.00    +0.000 A 
ATOM     18  C   UNL     1       3.315   3.633  20.673  0.00  0.00    +0.000 A 
ATOM     19  C   UNL     1       2.800   2.689  21.566  0.00  0.00    +0.000 A 
ATOM     20  C   UNL     1       1.459   2.321  21.500  0.00  0.00    +0.000 A 
ATOM     21  C   UNL     1       0.640   2.881  20.528  0.00  0.00    +0.000 A 
ATOM     22  C   UNL     1       1.169   3.796  19.614  0.00  0.00    +0.000 A 
ENDBRANCH   3  17
BRANCH  10  23
ATOM     23  C   UNL     1      -1.242  11.976  22.317  0.00  0.00    +0.000 A 
ATOM     24  N   UNL     1      -2.349  11.510  22.947  0.00  0.00    +0.000 NA
ATOM     25  C   UNL     1      -3.127  12.368  23.642  0.00  0.00    +0.000 A 
ATOM     26  C   UNL     1      -2.862  13.714  23.760  0.00  0.00    +0.000 A 
ATOM     27  C   UNL     1      -1.740  14.197  23.114  0.00  0.00    +0.000 A 
ATOM     28  C   UNL     1      -0.919  13.335  22.361  0.00  0.00    +0.000 A 
BRANCH  28  29
ATOM     29  C   UNL     1       0.213  13.981  21.614  0.00  0.00    +0.000 C 
ATOM     30  F   UNL     1       1.396  13.318  21.571  0.00  0.00    +0.000 F 
ATOM     31  F   UNL     1      -0.100  14.205  20.301  0.00  0.00    +0.000 F 
ATOM     32  F   UNL     1       0.511  15.213  22.124  0.00  0.00    +0.000 F 
ENDBRANCH  28  29
ENDBRANCH  10  23
BRANCH   1  34
ATOM     33  F   UNL     1       5.109   4.243  15.118  0.00  0.00    +0.000 F 
ATOM     34  C   UNL     1       5.381   5.468  15.663  0.00  0.00    +0.000 C 
ATOM     35  F   UNL     1       6.671   5.403  16.085  0.00  0.00    +0.000 F 
ATOM     36  F   UNL     1       5.368   6.342  14.616  0.00  0.00    +0.000 F 
ENDBRANCH   1  34
TORSDOF 4
ENDMDL
MODEL 7
REMARK VINA RESULT:      -8.8      1.632      2.142
REMARK  Name = 
REMARK  4 active torsions:
REMARK  status: ('A' for Active; 'I' for Inactive)
REMARK    1  A    between atoms: C_2  and  C_5
REMARK    2  A    between atoms: C_7  and  C_8
REMARK    3  A    between atoms: N_20  and  C_21
REMARK    4  A    between atoms: C_26  and  C_27
REMARK                            x       y       z     vdW  Elec       q    Type
REMARK                         _______ _______ _______ _____ _____    ______ ____
ROOT
ATOM      1  C   UNL     1       5.180   5.713  16.911  0.00  0.00    +0.000 A 
ATOM      2  C   UNL     1       4.570   4.810  17.806  0.00  0.00    +0.000 A 
ATOM      3  C   UNL     1       3.480   5.161  18.627  0.00  0.00    +0.000 A 
ATOM      4  C   UNL     1       3.071   6.495  18.476  0.00  0.00    +0.000 A 
ATOM      5  N   UNL     1       2.141   7.232  19.145  0.00  0.00    +0.000 N 
ATOM      6  C   UNL     1       1.987   8.434  18.528  0.00  0.00    +0.000 A 
ATOM      7  N   UNL     1       0.945   9.185  18.925  0.00  0.00    +0.000 N 
ATOM      8  C   UNL     1       0.431  10.240  18.023  0.00  0.00    +0.000 C 
ATOM      9  C   UNL     1      -1.049  10.546  18.395  0.00  0.00    +0.000 C 
ATOM     10  N   UNL     1      -1.095  10.907  19.830  0.00  0.00    +0.000 N 
ATOM     11  C   UNL     1      -0.638   9.814  20.700  0.00  0.00    +0.000 C 
ATOM     12  C   UNL     1       0.840   9.533  20.356  0.00  0.00    +0.000 C 
ATOM     13  N   UNL     1       2.865   8.580  17.566  0.00  0.00    +0.000 NA
ATOM     14  C   UNL     1       3.580   7.401  17.554  0.00  0.00    +0.000 A 
ATOM     15  C   UNL     1       4.669   7.016  16.768  0.00  0.00    +0.000 A 
ATOM     16  H   UNL     1       1.564   6.910  19.903  0.00  0.00    +0.000 HD
ENDROOT
BRANCH   3  17
ATOM     17  C   UNL     1       2.813   4.235  19.564  0.00  0.00    +0.000 A 
ATOM     18  C   UNL     1       3.555   3.413  20.429  0.00  0.00    +0.000 A 
ATOM     19  C   UNL     1       2.932   2.530  21.314  0.00  0.00    +0.000 A 
ATOM     20  C   UNL     1       1.542   2.465  21.376  0.00  0.00    +0.000 A 
ATOM     21  C   UNL     1       0.779   3.269  20.539  0.00  0.00    +0.000 A 
ATOM     22  C   UNL     1       1.409   4.123  19.629  0.00  0.00    +0.000 A 
ENDBRANCH   3  17
BRANCH  10  23
ATOM     23  C   UNL     1      -2.026  11.812  20.273  0.00  0.00    +0.000 A 
ATOM     24  N   UNL     1      -3.125  11.989  19.498  0.00  0.00    +0.000 NA
ATOM     25  C   UNL     1      -4.047  12.910  19.854  0.00  0.00    +0.000 A 
ATOM     26  C   UNL     1      -3.945  13.695  20.981  0.00  0.00    +0.000 A 
ATOM     27  C   UNL     1      -2.824  13.526  21.771  0.00  0.00    +0.000 A 
ATOM     28  C   UNL     1      -1.831  12.591  21.417  0.00  0.00    +0.000 A 
BRANCH  28  29
ATOM     29  C   UNL     1      -0.606  12.562  22.286  0.00  0.00    +0.000 C 
ATOM     30  F   UNL     1      -0.399  11.455  23.042  0.00  0.00    +0.000 F 
ATOM     31  F   UNL     1       0.544  12.698  21.558  0.00  0.00    +0.000 F 
ATOM     32  F   UNL     1      -0.594  13.606  23.169  0.00  0.00    +0.000 F 
ENDBRANCH  28  29
ENDBRANCH  10  23
BRANCH   1  34
ATOM     33  F   UNL     1       6.178   5.396  14.749  0.00  0.00    +0.000 F 
ATOM     34  C   UNL     1       6.382   5.302  16.099  0.00  0.00    +0.000 C 
ATOM     35  F   UNL     1       6.757   4.016  16.325  0.00  0.00    +0.000 F 
ATOM     36  F   UNL     1       7.481   6.069  16.354  0.00  0.00    +0.000 F 
ENDBRANCH   1  34
TORSDOF 4
ENDMDL
MODEL 8
REMARK VINA RESULT:      -8.8      0.825      1.241
REMARK  Name = 
REMARK  4 active torsions:
REMARK  status: ('A' for Active; 'I' for Inactive)
REMARK    1  A    between atoms: C_2  and  C_5
REMARK    2  A    between atoms: C_7  and  C_8
REMARK    3  A    between atoms: N_20  and  C_21
REMARK    4  A    between atoms: C_26  and  C_27
REMARK                            x       y       z     vdW  Elec       q    Type
REMARK                         _______ _______ _______ _____ _____    ______ ____
ROOT
ATOM      1  C   UNL     1       4.450   5.972  16.780  0.00  0.00    +0.000 A 
ATOM      2  C   UNL     1       3.883   5.048  17.682  0.00  0.00    +0.000 A 
ATOM      3  C   UNL     1       2.967   5.419  18.687  0.00  0.00    +0.000 A 
ATOM      4  C   UNL     1       2.685   6.792  18.710  0.00  0.00    +0.000 A 
ATOM      5  N   UNL     1       1.946   7.545  19.572  0.00  0.00    +0.000 N 
ATOM      6  C   UNL     1       1.834   8.811  19.086  0.00  0.00    +0.000 A 
ATOM      7  N   UNL     1       0.946   9.614  19.698  0.00  0.00    +0.000 N 
ATOM      8  C   UNL     1       0.422  10.794  18.975  0.00  0.00    +0.000 C 
ATOM      9  C   UNL     1      -0.947  11.200  19.595  0.00  0.00    +0.000 C 
ATOM     10  N   UNL     1      -0.745  11.423  21.044  0.00  0.00    +0.000 N 
ATOM     11  C   UNL     1      -0.286  10.213  21.742  0.00  0.00    +0.000 C 
ATOM     12  C   UNL     1       1.087   9.830  21.152  0.00  0.00    +0.000 C 
ATOM     13  N   UNL     1       2.573   8.966  18.015  0.00  0.00    +0.000 NA
ATOM     14  C   UNL     1       3.149   7.732  17.798  0.00  0.00    +0.000 A 
ATOM     15  C   UNL     1       4.065   7.325  16.824  0.00  0.00    +0.000 A 
ATOM     16  H   UNL     1       1.454   7.207  20.381  0.00  0.00    +0.000 HD
ENDROOT
BRANCH   3  17
ATOM     17  C   UNL     1       2.349   4.472  19.637  0.00  0.00    +0.000 A 
ATOM     18  C   UNL     1       1.291   3.633  19.248  0.00  0.00    +0.000 A 
ATOM     19  C   UNL     1       0.699   2.739  20.144  0.00  0.00    +0.000 A 
ATOM     20  C   UNL     1       1.168   2.642  21.451  0.00  0.00    +0.000 A 
ATOM     21  C   UNL     1       2.216   3.455  21.866  0.00  0.00    +0.000 A 
ATOM     22  C   UNL     1       2.780   4.373  20.977  0.00  0.00    +0.000 A 
ENDBRANCH   3  17
BRANCH  10  23
ATOM     23  C   UNL     1      -1.500  12.363  21.698  0.00  0.00    +0.000 A 
ATOM     24  N   UNL     1      -2.695  11.954  22.193  0.00  0.00    +0.000 NA
ATOM     25  C   UNL     1      -3.507  12.850  22.794  0.00  0.00    +0.000 A 
ATOM     26  C   UNL     1      -3.193  14.182  22.947  0.00  0.00    +0.000 A 
ATOM     27  C   UNL     1      -1.980  14.609  22.437  0.00  0.00    +0.000 A 
ATOM     28  C   UNL     1      -1.120  13.705  21.783  0.00  0.00    +0.000 A 
BRANCH  28  29
ATOM     29  C   UNL     1       0.122  14.294  21.176  0.00  0.00    +0.000 C 
ATOM     30  F   UNL     1       0.439  15.570  21.507  0.00  0.00    +0.000 F 
ATOM     31  F   UNL     1       1.240  13.572  21.493  0.00  0.00    +0.000 F 
ATOM     32  F   UNL     1       0.067  14.281  19.810  0.00  0.00    +0.000 F 
ENDBRANCH  28  29
ENDBRANCH  10  23
BRANCH   1  34
ATOM     33  F   UNL     1       5.410   6.244  14.595  0.00  0.00    +0.000 F 
ATOM     34  C   UNL     1       5.470   5.532  15.762  0.00  0.00    +0.000 C 
ATOM     35  F   UNL     1       5.329   4.229  15.403  0.00  0.00    +0.000 F 
ATOM     36  F   UNL     1       6.753   5.668  16.205  0.00  0.00    +0.000 F 
ENDBRANCH   1  34
TORSDOF 4
ENDMDL
MODEL 9
REMARK VINA RESULT:      -8.7      3.153      4.996
REMARK  Name = 
REMARK  4 active torsions:
REMARK  status: ('A' for Active; 'I' for Inactive)
REMARK    1  A    between atoms: C_2  and  C_5
REMARK    2  A    between atoms: C_7  and  C_8
REMARK    3  A    between atoms: N_20  and  C_21
REMARK    4  A    between atoms: C_26  and  C_27
REMARK                            x       y       z     vdW  Elec       q    Type
REMARK                         _______ _______ _______ _____ _____    ______ ____
ROOT
ATOM      1  C   UNL     1       2.283   3.953  20.612  0.00  0.00    +0.000 A 
ATOM      2  C   UNL     1       3.364   4.193  19.739  0.00  0.00    +0.000 A 
ATOM      3  C   UNL     1       3.622   5.455  19.166  0.00  0.00    +0.000 A 
ATOM      4  C   UNL     1       2.696   6.440  19.538  0.00  0.00    +0.000 A 
ATOM      5  N   UNL     1       2.542   7.731  19.130  0.00  0.00    +0.000 N 
ATOM      6  C   UNL     1       1.599   8.340  19.898  0.00  0.00    +0.000 A 
ATOM      7  N   UNL     1       1.494   9.674  19.778  0.00  0.00    +0.000 N 
ATOM      8  C   UNL     1       0.867  10.450  20.871  0.00  0.00    +0.000 C 
ATOM      9  C   UNL     1       1.370  11.922  20.799  0.00  0.00    +0.000 C 
ATOM     10  N   UNL     1       1.073  12.442  19.445  0.00  0.00    +0.000 N 
ATOM     11  C   UNL     1       1.763  11.687  18.389  0.00  0.00    +0.000 C 
ATOM     12  C   UNL     1       1.240  10.236  18.436  0.00  0.00    +0.000 C 
ATOM     13  N   UNL     1       1.028   7.478  20.703  0.00  0.00    +0.000 NA
ATOM     14  C   UNL     1       1.664   6.280  20.455  0.00  0.00    +0.000 A 
ATOM     15  C   UNL     1       1.435   5.010  20.990  0.00  0.00    +0.000 A 
ATOM     16  H   UNL     1       3.110   8.209  18.452  0.00  0.00    +0.000 HD
ENDROOT
BRANCH   3  17
ATOM     17  C   UNL     1       4.753   5.739  18.258  0.00  0.00    +0.000 A 
ATOM     18  C   UNL     1       4.543   6.025  16.899  0.00  0.00    +0.000 A 
ATOM     19  C   UNL     1       5.607   6.289  16.034  0.00  0.00    +0.000 A 
ATOM     20  C   UNL     1       6.914   6.300  16.514  0.00  0.00    +0.000 A 
ATOM     21  C   UNL     1       7.155   6.027  17.855  0.00  0.00    +0.000 A 
ATOM     22  C   UNL     1       6.090   5.727  18.708  0.00  0.00    +0.000 A 
ENDBRANCH   3  17
BRANCH  10  23
ATOM     23  C   UNL     1       0.779  13.771  19.277  0.00  0.00    +0.000 A 
ATOM     24  N   UNL     1       1.792  14.576  18.870  0.00  0.00    +0.000 NA
ATOM     25  C   UNL     1       1.575  15.903  18.745  0.00  0.00    +0.000 A 
ATOM     26  C   UNL     1       0.366  16.507  19.004  0.00  0.00    +0.000 A 
ATOM     27  C   UNL     1      -0.669  15.694  19.428  0.00  0.00    +0.000 A 
ATOM     28  C   UNL     1      -0.472  14.309  19.592  0.00  0.00    +0.000 A 
BRANCH  28  29
ATOM     29  C   UNL     1      -1.630  13.536  20.156  0.00  0.00    +0.000 C 
ATOM     30  F   UNL     1      -1.460  12.942  21.363  0.00  0.00    +0.000 F 
ATOM     31  F   UNL     1      -2.741  14.319  20.315  0.00  0.00    +0.000 F 
ATOM     32  F   UNL     1      -2.020  12.532  19.315  0.00  0.00    +0.000 F 
ENDBRANCH  28  29
ENDBRANCH  10  23
BRANCH   1  34
ATOM     33  F   UNL     1       0.898   2.503  21.933  0.00  0.00    +0.000 F 
ATOM     34  C   UNL     1       2.018   2.571  21.151  0.00  0.00    +0.000 C 
ATOM     35  F   UNL     1       3.033   2.101  21.922  0.00  0.00    +0.000 F 
ATOM     36  F   UNL     1       1.829   1.646  20.165  0.00  0.00    +0.000 F 
ENDBRANCH   1  34
TORSDOF 4
ENDMDL
