MODEL 1
REMARK VINA RESULT:      -7.0      0.000      0.000
REMARK  Name = 
REMARK  11 active torsions:
REMARK  status: ('A' for Active; 'I' for Inactive)
REMARK    1  A    between atoms: C_1  and  C_2
REMARK    2  A    between atoms: C_2  and  N_3
REMARK    3  A    between atoms: C_4  and  S_5
REMARK    4  A    between atoms: S_5  and  C_6
REMARK    5  A    between atoms: C_6  and  C_7
REMARK    6  A    between atoms: C_7  and  C_9
REMARK    7  A    between atoms: C_11  and  C_12
REMARK    8  A    between atoms: C_13  and  C_14
REMARK    9  A    between atoms: C_14  and  C_15
REMARK   10  A    between atoms: C_17  and  C_18
REMARK   11  A    between atoms: C_21  and  C_22
REMARK                            x       y       z     vdW  Elec       q    Type
REMARK                         _______ _______ _______ _____ _____    ______ ____
ROOT
ATOM      1  C   UNL     1       2.088   4.319  19.510  0.00  0.00    +0.000 C 
ENDROOT
BRANCH   1   2
ATOM      2  C   UNL     1       3.383   3.502  19.363  0.00  0.00    +0.000 C 
ATOM      3  O   UNL     1       3.410   2.306  19.660  0.00  0.00    +0.000 OA
BRANCH   2   4
ATOM      4  C   UNL     1       4.594   4.174  18.856  0.00  0.00    +0.000 A 
ATOM      5  N   UNL     1       5.635   4.656  19.613  0.00  0.00    +0.000 N 
ATOM      6  C   UNL     1       6.622   5.201  18.817  0.00  0.00    +0.000 A 
ATOM      7  C   UNL     1       7.874   5.716  19.441  0.00  0.00    +0.000 C 
ATOM      8  C   UNL     1       6.218   5.091  17.491  0.00  0.00    +0.000 A 
ATOM      9  C   UNL     1       4.927   4.440  17.524  0.00  0.00    +0.000 A 
ATOM     10  C   UNL     1       4.075   4.097  16.339  0.00  0.00    +0.000 C 
ATOM     11  H   UNL     1       5.696   4.599  20.621  0.00  0.00    +0.000 HD
BRANCH   8  12
ATOM     12  C   UNL     1       6.956   5.494  16.275  0.00  0.00    +0.000 C 
ATOM     13  C   UNL     1       7.021   4.605  15.059  0.00  0.00    +0.000 C 
ATOM     14  O   UNL     1       7.565   6.568  16.232  0.00  0.00    +0.000 OA
ENDBRANCH   8  12
ENDBRANCH   2   4
ENDBRANCH   1   2
BRANCH   1  15
ATOM     15  S   UNL     1       2.314   5.695  20.707  0.00  0.00    +0.000 S 
BRANCH  15  17
ATOM     16  N   UNL     1       1.404   8.214  20.088  0.00  0.00    +0.000 N 
ATOM     17  C   UNL     1       2.136   7.106  19.726  0.00  0.00    +0.000 A 
ATOM     18  N   UNL     1       2.655   7.283  18.537  0.00  0.00    +0.000 NA
ATOM     19  N   UNL     1       2.249   8.516  18.085  0.00  0.00    +0.000 NA
ATOM     20  C   UNL     1       1.495   9.083  19.015  0.00  0.00    +0.000 A 
BRANCH  20  21
ATOM     21  C   UNL     1       0.847  10.366  18.840  0.00  0.00    +0.000 A 
ATOM     22  C   UNL     1       1.357  11.649  18.949  0.00  0.00    +0.000 A 
ATOM     23  C   UNL     1       0.373  12.665  18.743  0.00  0.00    +0.000 A 
ATOM     24  C   UNL     1      -0.853  12.132  18.424  0.00  0.00    +0.000 A 
ATOM     25  S   UNL     1      -0.817  10.425  18.393  0.00  0.00    +0.000 S 
ENDBRANCH  20  21
BRANCH  16  27
ATOM     26  C   UNL     1       1.425   9.224  22.359  0.00  0.00    +0.000 C 
ATOM     27  C   UNL     1       0.665   8.419  21.317  0.00  0.00    +0.000 C 
ENDBRANCH  16  27
ENDBRANCH  15  17
ENDBRANCH   1  15
TORSDOF 7
ENDMDL
MODEL 2
REMARK VINA RESULT:      -7.0      1.391      2.051
REMARK  Name = 
REMARK  11 active torsions:
REMARK  status: ('A' for Active; 'I' for Inactive)
REMARK    1  A    between atoms: C_1  and  C_2
REMARK    2  A    between atoms: C_2  and  N_3
REMARK    3  A    between atoms: C_4  and  S_5
REMARK    4  A    between atoms: S_5  and  C_6
REMARK    5  A    between atoms: C_6  and  C_7
REMARK    6  A    between atoms: C_7  and  C_9
REMARK    7  A    between atoms: C_11  and  C_12
REMARK    8  A    between atoms: C_13  and  C_14
REMARK    9  A    between atoms: C_14  and  C_15
REMARK   10  A    between atoms: C_17  and  C_18
REMARK   11  A    between atoms: C_21  and  C_22
REMARK                            x       y       z     vdW  Elec       q    Type
REMARK                         _______ _______ _______ _____ _____    ______ ____
ROOT
ATOM      1  C   UNL     1       1.488   4.565  19.361  0.00  0.00    +0.000 C 
ENDROOT
BRANCH   1   2
ATOM      2  C   UNL     1       2.340   3.664  18.451  0.00  0.00    +0.000 C 
ATOM      3  O   UNL     1       1.964   2.529  18.158  0.00  0.00    +0.000 OA
BRANCH   2   4
ATOM      4  C   UNL     1       3.619   4.185  17.932  0.00  0.00    +0.000 A 
ATOM      5  N   UNL     1       3.789   4.954  16.805  0.00  0.00    +0.000 N 
ATOM      6  C   UNL     1       5.114   5.293  16.626  0.00  0.00    +0.000 A 
ATOM      7  C   UNL     1       5.502   6.187  15.498  0.00  0.00    +0.000 C 
ATOM      8  C   UNL     1       5.851   4.720  17.657  0.00  0.00    +0.000 A 
ATOM      9  C   UNL     1       4.894   4.015  18.482  0.00  0.00    +0.000 A 
ATOM     10  C   UNL     1       5.199   3.232  19.722  0.00  0.00    +0.000 C 
ATOM     11  H   UNL     1       3.043   5.262  16.195  0.00  0.00    +0.000 HD
BRANCH   8  12
ATOM     12  C   UNL     1       7.302   4.835  17.916  0.00  0.00    +0.000 C 
ATOM     13  C   UNL     1       7.843   5.747  18.988  0.00  0.00    +0.000 C 
ATOM     14  O   UNL     1       8.117   4.201  17.238  0.00  0.00    +0.000 OA
ENDBRANCH   8  12
ENDBRANCH   2   4
ENDBRANCH   1   2
BRANCH   1  15
ATOM     15  S   UNL     1       2.531   5.819  20.206  0.00  0.00    +0.000 S 
BRANCH  15  17
ATOM     16  N   UNL     1       1.399   8.295  19.821  0.00  0.00    +0.000 N 
ATOM     17  C   UNL     1       2.184   7.273  19.338  0.00  0.00    +0.000 A 
ATOM     18  N   UNL     1       2.607   7.565  18.134  0.00  0.00    +0.000 NA
ATOM     19  N   UNL     1       2.082   8.790  17.794  0.00  0.00    +0.000 NA
ATOM     20  C   UNL     1       1.353   9.235  18.807  0.00  0.00    +0.000 A 
BRANCH  20  21
ATOM     21  C   UNL     1       0.603  10.472  18.762  0.00  0.00    +0.000 A 
ATOM     22  C   UNL     1      -0.735  10.698  18.483  0.00  0.00    +0.000 A 
ATOM     23  C   UNL     1      -1.086  12.084  18.495  0.00  0.00    +0.000 A 
ATOM     24  C   UNL     1      -0.019  12.878  18.841  0.00  0.00    +0.000 A 
ATOM     25  S   UNL     1       1.392  11.961  19.128  0.00  0.00    +0.000 S 
ENDBRANCH  20  21
BRANCH  16  27
ATOM     26  C   UNL     1       1.507   9.142  22.155  0.00  0.00    +0.000 C 
ATOM     27  C   UNL     1       0.732   8.362  21.105  0.00  0.00    +0.000 C 
ENDBRANCH  16  27
ENDBRANCH  15  17
ENDBRANCH   1  15
TORSDOF 7
ENDMDL
MODEL 3
REMARK VINA RESULT:      -7.0      1.430      1.757
REMARK  Name = 
REMARK  11 active torsions:
REMARK  status: ('A' for Active; 'I' for Inactive)
REMARK    1  A    between atoms: C_1  and  C_2
REMARK    2  A    between atoms: C_2  and  N_3
REMARK    3  A    between atoms: C_4  and  S_5
REMARK    4  A    between atoms: S_5  and  C_6
REMARK    5  A    between atoms: C_6  and  C_7
REMARK    6  A    between atoms: C_7  and  C_9
REMARK    7  A    between atoms: C_11  and  C_12
REMARK    8  A    between atoms: C_13  and  C_14
REMARK    9  A    between atoms: C_14  and  C_15
REMARK   10  A    between atoms: C_17  and  C_18
REMARK   11  A    between atoms: C_21  and  C_22
REMARK                            x       y       z     vdW  Elec       q    Type
REMARK                         _______ _______ _______ _____ _____    ______ ____
ROOT
ATOM      1  C   UNL     1       2.201   5.144  18.517  0.00  0.00    +0.000 C 
ENDROOT
BRANCH   1   2
ATOM      2  C   UNL     1       3.469   4.298  18.314  0.00  0.00    +0.000 C 
ATOM      3  O   UNL     1       3.391   3.090  18.086  0.00  0.00    +0.000 OA
BRANCH   2   4
ATOM      4  C   UNL     1       4.784   4.960  18.394  0.00  0.00    +0.000 A 
ATOM      5  N   UNL     1       5.735   4.770  19.368  0.00  0.00    +0.000 N 
ATOM      6  C   UNL     1       6.862   5.526  19.122  0.00  0.00    +0.000 A 
ATOM      7  C   UNL     1       8.043   5.409  20.025  0.00  0.00    +0.000 C 
ATOM      8  C   UNL     1       6.650   6.254  17.956  0.00  0.00    +0.000 A 
ATOM      9  C   UNL     1       5.326   5.891  17.500  0.00  0.00    +0.000 A 
ATOM     10  C   UNL     1       4.635   6.412  16.277  0.00  0.00    +0.000 C 
ATOM     11  H   UNL     1       5.644   4.137  20.153  0.00  0.00    +0.000 HD
BRANCH   8  12
ATOM     12  C   UNL     1       7.583   7.171  17.270  0.00  0.00    +0.000 C 
ATOM     13  C   UNL     1       7.942   8.515  17.853  0.00  0.00    +0.000 C 
ATOM     14  O   UNL     1       8.078   6.870  16.179  0.00  0.00    +0.000 OA
ENDBRANCH   8  12
ENDBRANCH   2   4
ENDBRANCH   1   2
BRANCH   1  15
ATOM     15  S   UNL     1       2.420   6.334  19.899  0.00  0.00    +0.000 S 
BRANCH  15  17
ATOM     16  N   UNL     1       1.404   8.888  19.892  0.00  0.00    +0.000 N 
ATOM     17  C   UNL     1       1.969   7.846  19.194  0.00  0.00    +0.000 A 
ATOM     18  N   UNL     1       2.098   8.171  17.933  0.00  0.00    +0.000 NA
ATOM     19  N   UNL     1       1.592   9.440  17.776  0.00  0.00    +0.000 NA
ATOM     20  C   UNL     1       1.172   9.878  18.954  0.00  0.00    +0.000 A 
BRANCH  20  21
ATOM     21  C   UNL     1       0.523  11.158  19.140  0.00  0.00    +0.000 A 
ATOM     22  C   UNL     1      -0.800  11.526  18.960  0.00  0.00    +0.000 A 
ATOM     23  C   UNL     1      -1.038  12.914  19.209  0.00  0.00    +0.000 A 
ATOM     24  C   UNL     1       0.099  13.559  19.631  0.00  0.00    +0.000 A 
ATOM     25  S   UNL     1       1.440  12.505  19.705  0.00  0.00    +0.000 S 
ENDBRANCH  20  21
BRANCH  16  27
ATOM     26  C   UNL     1      -0.367   8.606  21.613  0.00  0.00    +0.000 C 
ATOM     27  C   UNL     1       1.085   8.932  21.305  0.00  0.00    +0.000 C 
ENDBRANCH  16  27
ENDBRANCH  15  17
ENDBRANCH   1  15
TORSDOF 7
ENDMDL
MODEL 4
REMARK VINA RESULT:      -7.0      3.540      5.185
REMARK  Name = 
REMARK  11 active torsions:
REMARK  status: ('A' for Active; 'I' for Inactive)
REMARK    1  A    between atoms: C_1  and  C_2
REMARK    2  A    between atoms: C_2  and  N_3
REMARK    3  A    between atoms: C_4  and  S_5
REMARK    4  A    between atoms: S_5  and  C_6
REMARK    5  A    between atoms: C_6  and  C_7
REMARK    6  A    between atoms: C_7  and  C_9
REMARK    7  A    between atoms: C_11  and  C_12
REMARK    8  A    between atoms: C_13  and  C_14
REMARK    9  A    between atoms: C_14  and  C_15
REMARK   10  A    between atoms: C_17  and  C_18
REMARK   11  A    between atoms: C_21  and  C_22
REMARK                            x       y       z     vdW  Elec       q    Type
REMARK                         _______ _______ _______ _____ _____    ______ ____
ROOT
ATOM      1  C   UNL     1       1.448   8.044  20.805  0.00  0.00    +0.000 C 
ENDROOT
BRANCH   1   2
ATOM      2  C   UNL     1       2.132   7.197  19.719  0.00  0.00    +0.000 C 
ATOM      3  O   UNL     1       2.480   7.704  18.651  0.00  0.00    +0.000 OA
BRANCH   2   4
ATOM      4  C   UNL     1       2.368   5.765  19.978  0.00  0.00    +0.000 A 
ATOM      5  N   UNL     1       1.628   4.953  20.805  0.00  0.00    +0.000 N 
ATOM      6  C   UNL     1       2.105   3.659  20.794  0.00  0.00    +0.000 A 
ATOM      7  C   UNL     1       1.396   2.603  21.571  0.00  0.00    +0.000 C 
ATOM      8  C   UNL     1       3.207   3.610  19.946  0.00  0.00    +0.000 A 
ATOM      9  C   UNL     1       3.369   4.953  19.433  0.00  0.00    +0.000 A 
ATOM     10  C   UNL     1       4.426   5.416  18.476  0.00  0.00    +0.000 C 
ATOM     11  H   UNL     1       0.817   5.248  21.334  0.00  0.00    +0.000 HD
BRANCH   8  12
ATOM     12  C   UNL     1       4.027   2.436  19.580  0.00  0.00    +0.000 C 
ATOM     13  C   UNL     1       3.643   1.529  18.438  0.00  0.00    +0.000 C 
ATOM     14  O   UNL     1       5.043   2.150  20.222  0.00  0.00    +0.000 OA
ENDBRANCH   8  12
ENDBRANCH   2   4
ENDBRANCH   1   2
BRANCH   1  15
ATOM     15  S   UNL     1       0.840   9.633  20.112  0.00  0.00    +0.000 S 
BRANCH  15  17
ATOM     16  N   UNL     1      -0.659  11.550  21.390  0.00  0.00    +0.000 N 
ATOM     17  C   UNL     1       0.065  10.383  21.463  0.00  0.00    +0.000 A 
ATOM     18  N   UNL     1       0.085   9.946  22.696  0.00  0.00    +0.000 NA
ATOM     19  N   UNL     1      -0.617  10.843  23.467  0.00  0.00    +0.000 NA
ATOM     20  C   UNL     1      -1.069  11.812  22.686  0.00  0.00    +0.000 A 
BRANCH  20  21
ATOM     21  C   UNL     1      -1.797  12.960  23.183  0.00  0.00    +0.000 A 
ATOM     22  C   UNL     1      -1.381  14.264  23.391  0.00  0.00    +0.000 A 
ATOM     23  C   UNL     1      -2.401  15.100  23.944  0.00  0.00    +0.000 A 
ATOM     24  C   UNL     1      -3.589  14.426  24.089  0.00  0.00    +0.000 A 
ATOM     25  S   UNL     1      -3.467  12.800  23.583  0.00  0.00    +0.000 S 
ENDBRANCH  20  21
BRANCH  16  27
ATOM     26  C   UNL     1      -2.232  12.034  19.527  0.00  0.00    +0.000 C 
ATOM     27  C   UNL     1      -0.915  12.357  20.214  0.00  0.00    +0.000 C 
ENDBRANCH  16  27
ENDBRANCH  15  17
ENDBRANCH   1  15
TORSDOF 7
ENDMDL
MODEL 5
REMARK VINA RESULT:      -6.8      0.973      1.127
REMARK  Name = 
REMARK  11 active torsions:
REMARK  status: ('A' for Active; 'I' for Inactive)
REMARK    1  A    between atoms: C_1  and  C_2
REMARK    2  A    between atoms: C_2  and  N_3
REMARK    3  A    between atoms: C_4  and  S_5
REMARK    4  A    between atoms: S_5  and  C_6
REMARK    5  A    between atoms: C_6  and  C_7
REMARK    6  A    between atoms: C_7  and  C_9
REMARK    7  A    between atoms: C_11  and  C_12
REMARK    8  A    between atoms: C_13  and  C_14
REMARK    9  A    between atoms: C_14  and  C_15
REMARK   10  A    between atoms: C_17  and  C_18
REMARK   11  A    between atoms: C_21  and  C_22
REMARK                            x       y       z     vdW  Elec       q    Type
REMARK                         _______ _______ _______ _____ _____    ______ ____
ROOT
ATOM      1  C   UNL     1       2.176   4.241  19.958  0.00  0.00    +0.000 C 
ENDROOT
BRANCH   1   2
ATOM      2  C   UNL     1       3.578   3.637  19.767  0.00  0.00    +0.000 C 
ATOM      3  O   UNL     1       3.890   2.582  20.320  0.00  0.00    +0.000 OA
BRANCH   2   4
ATOM      4  C   UNL     1       4.544   4.343  18.905  0.00  0.00    +0.000 A 
ATOM      5  N   UNL     1       5.661   5.027  19.323  0.00  0.00    +0.000 N 
ATOM      6  C   UNL     1       6.361   5.545  18.253  0.00  0.00    +0.000 A 
ATOM      7  C   UNL     1       7.646   6.262  18.487  0.00  0.00    +0.000 C 
ATOM      8  C   UNL     1       5.681   5.207  17.087  0.00  0.00    +0.000 A 
ATOM      9  C   UNL     1       4.526   4.446  17.510  0.00  0.00    +0.000 A 
ATOM     10  C   UNL     1       3.477   3.856  16.617  0.00  0.00    +0.000 C 
ATOM     11  H   UNL     1       5.958   5.121  20.286  0.00  0.00    +0.000 HD
BRANCH   8  12
ATOM     12  C   UNL     1       6.063   5.502  15.690  0.00  0.00    +0.000 C 
ATOM     13  C   UNL     1       7.021   4.620  14.930  0.00  0.00    +0.000 C 
ATOM     14  O   UNL     1       5.622   6.500  15.111  0.00  0.00    +0.000 OA
ENDBRANCH   8  12
ENDBRANCH   2   4
ENDBRANCH   1   2
BRANCH   1  15
ATOM     15  S   UNL     1       2.241   5.719  21.047  0.00  0.00    +0.000 S 
BRANCH  15  17
ATOM     16  N   UNL     1       1.505   8.257  20.292  0.00  0.00    +0.000 N 
ATOM     17  C   UNL     1       2.027   7.032  19.945  0.00  0.00    +0.000 A 
ATOM     18  N   UNL     1       2.318   7.017  18.669  0.00  0.00    +0.000 NA
ATOM     19  N   UNL     1       1.967   8.239  18.146  0.00  0.00    +0.000 NA
ATOM     20  C   UNL     1       1.476   8.992  19.119  0.00  0.00    +0.000 A 
BRANCH  20  21
ATOM     21  C   UNL     1       0.949  10.323  18.906  0.00  0.00    +0.000 A 
ATOM     22  C   UNL     1      -0.357  10.783  18.929  0.00  0.00    +0.000 A 
ATOM     23  C   UNL     1      -0.469  12.175  18.620  0.00  0.00    +0.000 A 
ATOM     24  C   UNL     1       0.761  12.756  18.426  0.00  0.00    +0.000 A 
ATOM     25  S   UNL     1       2.032  11.629  18.597  0.00  0.00    +0.000 S 
ENDBRANCH  20  21
BRANCH  16  27
ATOM     26  C   UNL     1      -0.442   8.481  21.821  0.00  0.00    +0.000 C 
ATOM     27  C   UNL     1       1.049   8.682  21.599  0.00  0.00    +0.000 C 
ENDBRANCH  16  27
ENDBRANCH  15  17
ENDBRANCH   1  15
TORSDOF 7
ENDMDL
MODEL 6
REMARK VINA RESULT:      -6.7      1.087      1.181
REMARK  Name = 
REMARK  11 active torsions:
REMARK  status: ('A' for Active; 'I' for Inactive)
REMARK    1  A    between atoms: C_1  and  C_2
REMARK    2  A    between atoms: C_2  and  N_3
REMARK    3  A    between atoms: C_4  and  S_5
REMARK    4  A    between atoms: S_5  and  C_6
REMARK    5  A    between atoms: C_6  and  C_7
REMARK    6  A    between atoms: C_7  and  C_9
REMARK    7  A    between atoms: C_11  and  C_12
REMARK    8  A    between atoms: C_13  and  C_14
REMARK    9  A    between atoms: C_14  and  C_15
REMARK   10  A    between atoms: C_17  and  C_18
REMARK   11  A    between atoms: C_21  and  C_22
REMARK                            x       y       z     vdW  Elec       q    Type
REMARK                         _______ _______ _______ _____ _____    ______ ____
ROOT
ATOM      1  C   UNL     1       1.991   4.156  19.996  0.00  0.00    +0.000 C 
ENDROOT
BRANCH   1   2
ATOM      2  C   UNL     1       3.335   3.410  19.943  0.00  0.00    +0.000 C 
ATOM      3  O   UNL     1       3.565   2.472  20.708  0.00  0.00    +0.000 OA
BRANCH   2   4
ATOM      4  C   UNL     1       4.345   3.836  18.957  0.00  0.00    +0.000 A 
ATOM      5  N   UNL     1       5.619   4.275  19.233  0.00  0.00    +0.000 N 
ATOM      6  C   UNL     1       6.309   4.565  18.074  0.00  0.00    +0.000 A 
ATOM      7  C   UNL     1       7.737   4.989  18.151  0.00  0.00    +0.000 C 
ATOM      8  C   UNL     1       5.465   4.326  16.995  0.00  0.00    +0.000 A 
ATOM      9  C   UNL     1       4.218   3.866  17.564  0.00  0.00    +0.000 A 
ATOM     10  C   UNL     1       2.985   3.479  16.805  0.00  0.00    +0.000 C 
ATOM     11  H   UNL     1       6.019   4.351  20.159  0.00  0.00    +0.000 HD
BRANCH   8  12
ATOM     12  C   UNL     1       5.767   4.453  15.554  0.00  0.00    +0.000 C 
ATOM     13  C   UNL     1       5.547   5.747  14.811  0.00  0.00    +0.000 C 
ATOM     14  O   UNL     1       6.187   3.487  14.908  0.00  0.00    +0.000 OA
ENDBRANCH   8  12
ENDBRANCH   2   4
ENDBRANCH   1   2
BRANCH   1  15
ATOM     15  S   UNL     1       2.104   5.636  21.078  0.00  0.00    +0.000 S 
BRANCH  15  17
ATOM     16  N   UNL     1       1.568   8.216  20.294  0.00  0.00    +0.000 N 
ATOM     17  C   UNL     1       1.997   6.951  19.962  0.00  0.00    +0.000 A 
ATOM     18  N   UNL     1       2.294   6.901  18.688  0.00  0.00    +0.000 NA
ATOM     19  N   UNL     1       2.040   8.141  18.152  0.00  0.00    +0.000 NA
ATOM     20  C   UNL     1       1.602   8.939  19.114  0.00  0.00    +0.000 A 
BRANCH  20  21
ATOM     21  C   UNL     1       1.179  10.304  18.884  0.00  0.00    +0.000 A 
ATOM     22  C   UNL     1       1.926  11.461  18.739  0.00  0.00    +0.000 A 
ATOM     23  C   UNL     1       1.124  12.632  18.569  0.00  0.00    +0.000 A 
ATOM     24  C   UNL     1      -0.216  12.331  18.531  0.00  0.00    +0.000 A 
ATOM     25  S   UNL     1      -0.501  10.658  18.717  0.00  0.00    +0.000 S 
ENDBRANCH  20  21
BRANCH  16  27
ATOM     26  C   UNL     1      -0.355   8.525  21.839  0.00  0.00    +0.000 C 
ATOM     27  C   UNL     1       1.137   8.687  21.594  0.00  0.00    +0.000 C 
ENDBRANCH  16  27
ENDBRANCH  15  17
ENDBRANCH   1  15
TORSDOF 7
ENDMDL
MODEL 7
REMARK VINA RESULT:      -6.6      1.052      1.861
REMARK  Name = 
REMARK  11 active torsions:
REMARK  status: ('A' for Active; 'I' for Inactive)
REMARK    1  A    between atoms: C_1  and  C_2
REMARK    2  A    between atoms: C_2  and  N_3
REMARK    3  A    between atoms: C_4  and  S_5
REMARK    4  A    between atoms: S_5  and  C_6
REMARK    5  A    between atoms: C_6  and  C_7
REMARK    6  A    between atoms: C_7  and  C_9
REMARK    7  A    between atoms: C_11  and  C_12
REMARK    8  A    between atoms: C_13  and  C_14
REMARK    9  A    between atoms: C_14  and  C_15
REMARK   10  A    between atoms: C_17  and  C_18
REMARK   11  A    between atoms: C_21  and  C_22
REMARK                            x       y       z     vdW  Elec       q    Type
REMARK                         _______ _______ _______ _____ _____    ______ ____
ROOT
ATOM      1  C   UNL     1       1.826   4.397  18.998  0.00  0.00    +0.000 C 
ENDROOT
BRANCH   1   2
ATOM      2  C   UNL     1       3.072   3.533  18.739  0.00  0.00    +0.000 C 
ATOM      3  O   UNL     1       3.218   2.451  19.309  0.00  0.00    +0.000 OA
BRANCH   2   4
ATOM      4  C   UNL     1       4.090   4.022  17.791  0.00  0.00    +0.000 A 
ATOM      5  N   UNL     1       4.126   3.781  16.438  0.00  0.00    +0.000 N 
ATOM      6  C   UNL     1       5.200   4.413  15.846  0.00  0.00    +0.000 A 
ATOM      7  C   UNL     1       5.380   4.337  14.368  0.00  0.00    +0.000 C 
ATOM      8  C   UNL     1       5.910   5.082  16.837  0.00  0.00    +0.000 A 
ATOM      9  C   UNL     1       5.199   4.827  18.071  0.00  0.00    +0.000 A 
ATOM     10  C   UNL     1       5.573   5.333  19.431  0.00  0.00    +0.000 C 
ATOM     11  H   UNL     1       3.443   3.238  15.926  0.00  0.00    +0.000 HD
BRANCH   8  12
ATOM     12  C   UNL     1       7.110   5.932  16.687  0.00  0.00    +0.000 C 
ATOM     13  C   UNL     1       7.639   6.762  17.829  0.00  0.00    +0.000 C 
ATOM     14  O   UNL     1       7.702   6.004  15.605  0.00  0.00    +0.000 OA
ENDBRANCH   8  12
ENDBRANCH   2   4
ENDBRANCH   1   2
BRANCH   1  15
ATOM     15  S   UNL     1       2.151   5.641  20.310  0.00  0.00    +0.000 S 
BRANCH  15  17
ATOM     16  N   UNL     1       1.378   8.247  19.899  0.00  0.00    +0.000 N 
ATOM     17  C   UNL     1       2.073   7.143  19.460  0.00  0.00    +0.000 A 
ATOM     18  N   UNL     1       2.642   7.403  18.310  0.00  0.00    +0.000 NA
ATOM     19  N   UNL     1       2.309   8.691  17.962  0.00  0.00    +0.000 NA
ATOM     20  C   UNL     1       1.547   9.205  18.916  0.00  0.00    +0.000 A 
BRANCH  20  21
ATOM     21  C   UNL     1       0.965  10.528  18.841  0.00  0.00    +0.000 A 
ATOM     22  C   UNL     1       1.552  11.775  18.978  0.00  0.00    +0.000 A 
ATOM     23  C   UNL     1       0.616  12.852  18.880  0.00  0.00    +0.000 A 
ATOM     24  C   UNL     1      -0.654  12.402  18.611  0.00  0.00    +0.000 A 
ATOM     25  S   UNL     1      -0.717  10.700  18.499  0.00  0.00    +0.000 S 
ENDBRANCH  20  21
BRANCH  16  27
ATOM     26  C   UNL     1       1.306   9.171  22.206  0.00  0.00    +0.000 C 
ATOM     27  C   UNL     1       0.605   8.373  21.118  0.00  0.00    +0.000 C 
ENDBRANCH  16  27
ENDBRANCH  15  17
ENDBRANCH   1  15
TORSDOF 7
ENDMDL
MODEL 8
REMARK VINA RESULT:      -6.6      3.852      5.453
REMARK  Name = 
REMARK  11 active torsions:
REMARK  status: ('A' for Active; 'I' for Inactive)
REMARK    1  A    between atoms: C_1  and  C_2
REMARK    2  A    between atoms: C_2  and  N_3
REMARK    3  A    between atoms: C_4  and  S_5
REMARK    4  A    between atoms: S_5  and  C_6
REMARK    5  A    between atoms: C_6  and  C_7
REMARK    6  A    between atoms: C_7  and  C_9
REMARK    7  A    between atoms: C_11  and  C_12
REMARK    8  A    between atoms: C_13  and  C_14
REMARK    9  A    between atoms: C_14  and  C_15
REMARK   10  A    between atoms: C_17  and  C_18
REMARK   11  A    between atoms: C_21  and  C_22
REMARK                            x       y       z     vdW  Elec       q    Type
REMARK                         _______ _______ _______ _____ _____    ______ ____
ROOT
ATOM      1  C   UNL     1       1.240   8.857  20.784  0.00  0.00    +0.000 C 
ENDROOT
BRANCH   1   2
ATOM      2  C   UNL     1       1.792   8.067  19.585  0.00  0.00    +0.000 C 
ATOM      3  O   UNL     1       1.838   8.576  18.464  0.00  0.00    +0.000 OA
BRANCH   2   4
ATOM      4  C   UNL     1       2.269   6.689  19.801  0.00  0.00    +0.000 A 
ATOM      5  N   UNL     1       1.850   5.826  20.785  0.00  0.00    +0.000 N 
ATOM      6  C   UNL     1       2.481   4.603  20.681  0.00  0.00    +0.000 A 
ATOM      7  C   UNL     1       2.112   3.500  21.613  0.00  0.00    +0.000 C 
ATOM      8  C   UNL     1       3.359   4.659  19.604  0.00  0.00    +0.000 A 
ATOM      9  C   UNL     1       3.221   5.989  19.051  0.00  0.00    +0.000 A 
ATOM     10  C   UNL     1       3.962   6.541  17.872  0.00  0.00    +0.000 C 
ATOM     11  H   UNL     1       1.148   6.037  21.483  0.00  0.00    +0.000 HD
BRANCH   8  12
ATOM     12  C   UNL     1       4.224   3.585  19.074  0.00  0.00    +0.000 C 
ATOM     13  C   UNL     1       3.684   2.514  18.159  0.00  0.00    +0.000 C 
ATOM     14  O   UNL     1       5.417   3.520  19.390  0.00  0.00    +0.000 OA
ENDBRANCH   8  12
ENDBRANCH   2   4
ENDBRANCH   1   2
BRANCH   1  15
ATOM     15  S   UNL     1       0.810  10.575  20.297  0.00  0.00    +0.000 S 
BRANCH  15  17
ATOM     16  N   UNL     1      -1.281  11.997  21.375  0.00  0.00    +0.000 N 
ATOM     17  C   UNL     1      -0.267  11.084  21.549  0.00  0.00    +0.000 A 
ATOM     18  N   UNL     1      -0.239  10.680  22.794  0.00  0.00    +0.000 NA
ATOM     19  N   UNL     1      -1.234  11.346  23.470  0.00  0.00    +0.000 NA
ATOM     20  C   UNL     1      -1.866  12.142  22.620  0.00  0.00    +0.000 A 
BRANCH  20  21
ATOM     21  C   UNL     1      -2.932  13.038  23.014  0.00  0.00    +0.000 A 
ATOM     22  C   UNL     1      -4.300  12.941  22.824  0.00  0.00    +0.000 A 
ATOM     23  C   UNL     1      -5.020  14.069  23.327  0.00  0.00    +0.000 A 
ATOM     24  C   UNL     1      -4.188  14.974  23.942  0.00  0.00    +0.000 A 
ATOM     25  S   UNL     1      -2.556  14.474  23.893  0.00  0.00    +0.000 S 
ENDBRANCH  20  21
BRANCH  16  27
ATOM     26  C   UNL     1      -2.763  12.015  19.380  0.00  0.00    +0.000 C 
ATOM     27  C   UNL     1      -1.643  12.690  20.155  0.00  0.00    +0.000 C 
ENDBRANCH  16  27
ENDBRANCH  15  17
ENDBRANCH   1  15
TORSDOF 7
ENDMDL
MODEL 9
REMARK VINA RESULT:      -6.5      2.191      3.055
REMARK  Name = 
REMARK  11 active torsions:
REMARK  status: ('A' for Active; 'I' for Inactive)
REMARK    1  A    between atoms: C_1  and  C_2
REMARK    2  A    between atoms: C_2  and  N_3
REMARK    3  A    between atoms: C_4  and  S_5
REMARK    4  A    between atoms: S_5  and  C_6
REMARK    5  A    between atoms: C_6  and  C_7
REMARK    6  A    between atoms: C_7  and  C_9
REMARK    7  A    between atoms: C_11  and  C_12
REMARK    8  A    between atoms: C_13  and  C_14
REMARK    9  A    between atoms: C_14  and  C_15
REMARK   10  A    between atoms: C_17  and  C_18
REMARK   11  A    between atoms: C_21  and  C_22
REMARK                            x       y       z     vdW  Elec       q    Type
REMARK                         _______ _______ _______ _____ _____    ______ ____
ROOT
ATOM      1  C   UNL     1       2.002   5.460  18.890  0.00  0.00    +0.000 C 
ENDROOT
BRANCH   1   2
ATOM      2  C   UNL     1       2.502   4.508  17.790  0.00  0.00    +0.000 C 
ATOM      3  O   UNL     1       1.730   3.722  17.238  0.00  0.00    +0.000 OA
BRANCH   2   4
ATOM      4  C   UNL     1       3.924   4.553  17.404  0.00  0.00    +0.000 A 
ATOM      5  N   UNL     1       4.426   4.456  16.128  0.00  0.00    +0.000 N 
ATOM      6  C   UNL     1       5.802   4.566  16.122  0.00  0.00    +0.000 A 
ATOM      7  C   UNL     1       6.538   4.559  14.825  0.00  0.00    +0.000 C 
ATOM      8  C   UNL     1       6.230   4.727  17.435  0.00  0.00    +0.000 A 
ATOM      9  C   UNL     1       5.031   4.715  18.245  0.00  0.00    +0.000 A 
ATOM     10  C   UNL     1       4.966   4.853  19.736  0.00  0.00    +0.000 C 
ATOM     11  H   UNL     1       3.868   4.348  15.291  0.00  0.00    +0.000 HD
BRANCH   8  12
ATOM     12  C   UNL     1       7.608   4.927  17.929  0.00  0.00    +0.000 C 
ATOM     13  C   UNL     1       8.023   6.202  18.619  0.00  0.00    +0.000 C 
ATOM     14  O   UNL     1       8.471   4.058  17.765  0.00  0.00    +0.000 OA
ENDBRANCH   8  12
ENDBRANCH   2   4
ENDBRANCH   1   2
BRANCH   1  15
ATOM     15  S   UNL     1       2.295   7.212  18.424  0.00  0.00    +0.000 S 
BRANCH  15  17
ATOM     16  N   UNL     1       1.097   9.320  19.720  0.00  0.00    +0.000 N 
ATOM     17  C   UNL     1       1.709   8.089  19.792  0.00  0.00    +0.000 A 
ATOM     18  N   UNL     1       1.787   7.702  21.040  0.00  0.00    +0.000 NA
ATOM     19  N   UNL     1       1.239   8.695  21.819  0.00  0.00    +0.000 NA
ATOM     20  C   UNL     1       0.821   9.673  21.029  0.00  0.00    +0.000 A 
BRANCH  20  21
ATOM     21  C   UNL     1       0.249  10.906  21.526  0.00  0.00    +0.000 A 
ATOM     22  C   UNL     1       0.488  12.218  21.152  0.00  0.00    +0.000 A 
ATOM     23  C   UNL     1      -0.253  13.167  21.923  0.00  0.00    +0.000 A 
ATOM     24  C   UNL     1      -1.085  12.552  22.828  0.00  0.00    +0.000 A 
ATOM     25  S   UNL     1      -0.956  10.851  22.758  0.00  0.00    +0.000 S 
ENDBRANCH  20  21
BRANCH  16  27
ATOM     26  C   UNL     1      -0.642  10.120  18.134  0.00  0.00    +0.000 C 
ATOM     27  C   UNL     1       0.826  10.100  18.530  0.00  0.00    +0.000 C 
ENDBRANCH  16  27
ENDBRANCH  15  17
ENDBRANCH   1  15
TORSDOF 7
ENDMDL
