MODEL 1
REMARK VINA RESULT:      -8.0      0.000      0.000
REMARK  Name = 
REMARK  3 active torsions:
REMARK  status: ('A' for Active; 'I' for Inactive)
REMARK    1  A    between atoms: C_1  and  C_2
REMARK    2  A    between atoms: C_2  and  C_3
REMARK    3  A    between atoms: C_8  and  C_9
REMARK                            x       y       z     vdW  Elec       q    Type
REMARK                         _______ _______ _______ _____ _____    ______ ____
ROOT
ATOM      1  C   UNL     1       4.937   1.369  20.422  0.00  0.00    +0.000 C 
ATOM      2  C   UNL     1       4.178   2.464  19.637  0.00  0.00    +0.000 C 
ATOM      3  C   UNL     1       3.547   1.752  18.426  0.00  0.00    +0.000 C 
ATOM      4  C   UNL     1       3.075   3.075  20.524  0.00  0.00    +0.000 C 
ATOM      5  C   UNL     1       2.667   4.493  20.188  0.00  0.00    +0.000 A 
ATOM      6  C   UNL     1       1.479   4.968  20.754  0.00  0.00    +0.000 A 
ATOM      7  C   UNL     1       1.090   6.297  20.589  0.00  0.00    +0.000 A 
ATOM      8  C   UNL     1       1.908   7.235  19.936  0.00  0.00    +0.000 A 
ATOM      9  C   UNL     1       3.095   6.744  19.359  0.00  0.00    +0.000 A 
ATOM     10  C   UNL     1       3.454   5.378  19.424  0.00  0.00    +0.000 A 
ATOM     11  C   UNL     1       4.558   4.811  18.525  0.00  0.00    +0.000 C 
ATOM     12  C   UNL     1       3.881   4.583  17.152  0.00  0.00    +0.000 C 
ATOM     13  S   UNL     1       5.280   4.291  16.072  0.00  0.00    +0.000 S 
ATOM     14  C   UNL     1       6.118   5.499  17.016  0.00  0.00    +0.000 C 
ATOM     15  N   UNL     1       7.097   6.121  16.313  0.00  0.00    +0.000 N 
ATOM     16  N   UNL     1       5.690   5.750  18.212  0.00  0.00    +0.000 NA
ATOM     17  C   UNL     1       5.179   3.578  19.251  0.00  0.00    +0.000 C 
ATOM     18  H   UNL     1       7.579   5.424  15.749  0.00  0.00    +0.000 HD
ATOM     19  H   UNL     1       6.646   6.671  15.583  0.00  0.00    +0.000 HD
ENDROOT
BRANCH   8  20
ATOM     20  C   UNL     1       1.494   8.658  19.839  0.00  0.00    +0.000 A 
ATOM     21  C   UNL     1       1.654   9.417  18.676  0.00  0.00    +0.000 A 
ATOM     22  N   UNL     1       1.262  10.709  18.518  0.00  0.00    +0.000 NA
ATOM     23  C   UNL     1       0.667  11.294  19.581  0.00  0.00    +0.000 A 
ATOM     24  C   UNL     1       0.456  10.647  20.792  0.00  0.00    +0.000 A 
ATOM     25 CL   UNL     1      -0.329  11.443  22.089  0.00  0.00    +0.000 Cl
ATOM     26  C   UNL     1       0.887   9.331  20.916  0.00  0.00    +0.000 A 
ENDBRANCH   8  20
TORSDOF 1
ENDMDL
MODEL 2
REMARK VINA RESULT:      -7.8      2.300      3.708
REMARK  Name = 
REMARK  3 active torsions:
REMARK  status: ('A' for Active; 'I' for Inactive)
REMARK    1  A    between atoms: C_1  and  C_2
REMARK    2  A    between atoms: C_2  and  C_3
REMARK    3  A    between atoms: C_8  and  C_9
REMARK                            x       y       z     vdW  Elec       q    Type
REMARK                         _______ _______ _______ _____ _____    ______ ____
ROOT
ATOM      1  C   UNL     1       5.894   3.801  14.904  0.00  0.00    +0.000 C 
ATOM      2  C   UNL     1       5.478   4.486  16.226  0.00  0.00    +0.000 C 
ATOM      3  C   UNL     1       6.662   4.291  17.191  0.00  0.00    +0.000 C 
ATOM      4  C   UNL     1       5.235   5.989  15.985  0.00  0.00    +0.000 C 
ATOM      5  C   UNL     1       4.277   6.666  16.940  0.00  0.00    +0.000 A 
ATOM      6  C   UNL     1       4.265   8.064  16.951  0.00  0.00    +0.000 A 
ATOM      7  C   UNL     1       3.334   8.765  17.717  0.00  0.00    +0.000 A 
ATOM      8  C   UNL     1       2.314   8.111  18.429  0.00  0.00    +0.000 A 
ATOM      9  C   UNL     1       2.342   6.702  18.421  0.00  0.00    +0.000 A 
ATOM     10  C   UNL     1       3.342   5.974  17.738  0.00  0.00    +0.000 A 
ATOM     11  C   UNL     1       3.549   4.480  18.007  0.00  0.00    +0.000 C 
ATOM     12  C   UNL     1       4.375   4.418  19.314  0.00  0.00    +0.000 C 
ATOM     13  S   UNL     1       4.256   2.688  19.767  0.00  0.00    +0.000 S 
ATOM     14  C   UNL     1       2.615   2.761  19.171  0.00  0.00    +0.000 C 
ATOM     15  N   UNL     1       1.808   1.845  19.761  0.00  0.00    +0.000 N 
ATOM     16  N   UNL     1       2.307   3.699  18.333  0.00  0.00    +0.000 NA
ATOM     17  C   UNL     1       4.161   3.844  16.721  0.00  0.00    +0.000 C 
ATOM     18  H   UNL     1       2.326   0.974  19.857  0.00  0.00    +0.000 HD
ATOM     19  H   UNL     1       1.709   2.110  20.741  0.00  0.00    +0.000 HD
ENDROOT
BRANCH   8  20
ATOM     20  C   UNL     1       1.296   8.892  19.177  0.00  0.00    +0.000 A 
ATOM     21  C   UNL     1       0.459   9.830  18.565  0.00  0.00    +0.000 A 
ATOM     22  N   UNL     1      -0.512  10.547  19.191  0.00  0.00    +0.000 NA
ATOM     23  C   UNL     1      -0.673  10.319  20.513  0.00  0.00    +0.000 A 
ATOM     24  C   UNL     1       0.098   9.416  21.234  0.00  0.00    +0.000 A 
ATOM     25 CL   UNL     1      -0.180   9.159  22.905  0.00  0.00    +0.000 Cl
ATOM     26  C   UNL     1       1.091   8.716  20.558  0.00  0.00    +0.000 A 
ENDBRANCH   8  20
TORSDOF 1
ENDMDL
MODEL 3
REMARK VINA RESULT:      -7.7      2.419      3.845
REMARK  Name = 
REMARK  3 active torsions:
REMARK  status: ('A' for Active; 'I' for Inactive)
REMARK    1  A    between atoms: C_1  and  C_2
REMARK    2  A    between atoms: C_2  and  C_3
REMARK    3  A    between atoms: C_8  and  C_9
REMARK                            x       y       z     vdW  Elec       q    Type
REMARK                         _______ _______ _______ _____ _____    ______ ____
ROOT
ATOM      1  C   UNL     1       5.932   3.798  14.860  0.00  0.00    +0.000 C 
ATOM      2  C   UNL     1       5.510   4.466  16.189  0.00  0.00    +0.000 C 
ATOM      3  C   UNL     1       6.694   4.269  17.153  0.00  0.00    +0.000 C 
ATOM      4  C   UNL     1       5.259   5.971  15.962  0.00  0.00    +0.000 C 
ATOM      5  C   UNL     1       4.295   6.632  16.923  0.00  0.00    +0.000 A 
ATOM      6  C   UNL     1       4.276   8.030  16.949  0.00  0.00    +0.000 A 
ATOM      7  C   UNL     1       3.339   8.718  17.720  0.00  0.00    +0.000 A 
ATOM      8  C   UNL     1       2.322   8.051  18.423  0.00  0.00    +0.000 A 
ATOM      9  C   UNL     1       2.358   6.643  18.401  0.00  0.00    +0.000 A 
ATOM     10  C   UNL     1       3.363   5.928  17.712  0.00  0.00    +0.000 A 
ATOM     11  C   UNL     1       3.578   4.432  17.967  0.00  0.00    +0.000 C 
ATOM     12  C   UNL     1       4.403   4.361  19.274  0.00  0.00    +0.000 C 
ATOM     13  S   UNL     1       4.293   2.626  19.709  0.00  0.00    +0.000 S 
ATOM     14  C   UNL     1       2.653   2.696  19.112  0.00  0.00    +0.000 C 
ATOM     15  N   UNL     1       1.850   1.769  19.691  0.00  0.00    +0.000 N 
ATOM     16  N   UNL     1       2.340   3.640  18.283  0.00  0.00    +0.000 NA
ATOM     17  C   UNL     1       4.196   3.812  16.675  0.00  0.00    +0.000 C 
ATOM     18  H   UNL     1       2.372   0.900  19.779  0.00  0.00    +0.000 HD
ATOM     19  H   UNL     1       1.748   2.024  20.673  0.00  0.00    +0.000 HD
ENDROOT
BRANCH   8  20
ATOM     20  C   UNL     1       1.299   8.818  19.178  0.00  0.00    +0.000 A 
ATOM     21  C   UNL     1       1.117   8.687  20.558  0.00  0.00    +0.000 A 
ATOM     22  N   UNL     1       0.223   9.387  21.305  0.00  0.00    +0.000 NA
ATOM     23  C   UNL     1      -0.543  10.285  20.647  0.00  0.00    +0.000 A 
ATOM     24  C   UNL     1      -0.459  10.505  19.278  0.00  0.00    +0.000 A 
ATOM     25 CL   UNL     1      -1.444  11.679  18.513  0.00  0.00    +0.000 Cl
ATOM     26  C   UNL     1       0.457   9.755  18.548  0.00  0.00    +0.000 A 
ENDBRANCH   8  20
TORSDOF 1
ENDMDL
MODEL 4
REMARK VINA RESULT:      -7.7      3.675      8.362
REMARK  Name = 
REMARK  3 active torsions:
REMARK  status: ('A' for Active; 'I' for Inactive)
REMARK    1  A    between atoms: C_1  and  C_2
REMARK    2  A    between atoms: C_2  and  C_3
REMARK    3  A    between atoms: C_8  and  C_9
REMARK                            x       y       z     vdW  Elec       q    Type
REMARK                         _______ _______ _______ _____ _____    ______ ____
ROOT
ATOM      1  C   UNL     1      -3.075  13.021  23.112  0.00  0.00    +0.000 C 
ATOM      2  C   UNL     1      -1.804  12.536  22.377  0.00  0.00    +0.000 C 
ATOM      3  C   UNL     1      -0.845  13.741  22.357  0.00  0.00    +0.000 C 
ATOM      4  C   UNL     1      -1.166  11.365  23.150  0.00  0.00    +0.000 C 
ATOM      5  C   UNL     1      -0.336  10.404  22.327  0.00  0.00    +0.000 A 
ATOM      6  C   UNL     1       0.498   9.522  23.022  0.00  0.00    +0.000 A 
ATOM      7  C   UNL     1       1.208   8.530  22.348  0.00  0.00    +0.000 A 
ATOM      8  C   UNL     1       1.049   8.308  20.969  0.00  0.00    +0.000 A 
ATOM      9  C   UNL     1       0.216   9.209  20.277  0.00  0.00    +0.000 A 
ATOM     10  C   UNL     1      -0.428  10.286  20.925  0.00  0.00    +0.000 A 
ATOM     11  C   UNL     1      -1.051  11.431  20.118  0.00  0.00    +0.000 C 
ATOM     12  C   UNL     1       0.136  12.348  19.739  0.00  0.00    +0.000 C 
ATOM     13  S   UNL     1      -0.586  13.429  18.506  0.00  0.00    +0.000 S 
ATOM     14  C   UNL     1      -1.477  12.028  17.963  0.00  0.00    +0.000 C 
ATOM     15  N   UNL     1      -1.820  12.107  16.653  0.00  0.00    +0.000 N 
ATOM     16  N   UNL     1      -1.640  11.045  18.790  0.00  0.00    +0.000 NA
ATOM     17  C   UNL     1      -2.208  12.040  20.969  0.00  0.00    +0.000 C 
ATOM     18  H   UNL     1      -2.111  13.062  16.454  0.00  0.00    +0.000 HD
ATOM     19  H   UNL     1      -0.960  12.057  16.108  0.00  0.00    +0.000 HD
ENDROOT
BRANCH   8  20
ATOM     20  C   UNL     1       1.768   7.196  20.296  0.00  0.00    +0.000 A 
ATOM     21  C   UNL     1       2.506   7.371  19.121  0.00  0.00    +0.000 A 
ATOM     22  N   UNL     1       3.212   6.401  18.482  0.00  0.00    +0.000 NA
ATOM     23  C   UNL     1       3.193   5.172  19.043  0.00  0.00    +0.000 A 
ATOM     24  C   UNL     1       2.495   4.871  20.205  0.00  0.00    +0.000 A 
ATOM     25 CL   UNL     1       2.538   3.295  20.874  0.00  0.00    +0.000 Cl
ATOM     26  C   UNL     1       1.773   5.889  20.818  0.00  0.00    +0.000 A 
ENDBRANCH   8  20
TORSDOF 1
ENDMDL
MODEL 5
REMARK VINA RESULT:      -7.6      1.211      1.418
REMARK  Name = 
REMARK  3 active torsions:
REMARK  status: ('A' for Active; 'I' for Inactive)
REMARK    1  A    between atoms: C_1  and  C_2
REMARK    2  A    between atoms: C_2  and  C_3
REMARK    3  A    between atoms: C_8  and  C_9
REMARK                            x       y       z     vdW  Elec       q    Type
REMARK                         _______ _______ _______ _____ _____    ______ ____
ROOT
ATOM      1  C   UNL     1       4.805   1.180  19.738  0.00  0.00    +0.000 C 
ATOM      2  C   UNL     1       4.074   2.422  19.178  0.00  0.00    +0.000 C 
ATOM      3  C   UNL     1       3.488   1.988  17.822  0.00  0.00    +0.000 C 
ATOM      4  C   UNL     1       2.939   2.839  20.135  0.00  0.00    +0.000 C 
ATOM      5  C   UNL     1       2.543   4.299  20.094  0.00  0.00    +0.000 A 
ATOM      6  C   UNL     1       1.336   4.651  20.706  0.00  0.00    +0.000 A 
ATOM      7  C   UNL     1       0.953   5.987  20.814  0.00  0.00    +0.000 A 
ATOM      8  C   UNL     1       1.793   7.037  20.404  0.00  0.00    +0.000 A 
ATOM      9  C   UNL     1       3.000   6.671  19.778  0.00  0.00    +0.000 A 
ATOM     10  C   UNL     1       3.357   5.320  19.564  0.00  0.00    +0.000 A 
ATOM     11  C   UNL     1       4.493   4.949  18.604  0.00  0.00    +0.000 C 
ATOM     12  C   UNL     1       3.865   5.023  17.191  0.00  0.00    +0.000 C 
ATOM     13  S   UNL     1       5.303   4.957  16.124  0.00  0.00    +0.000 S 
ATOM     14  C   UNL     1       6.105   5.931  17.332  0.00  0.00    +0.000 C 
ATOM     15  N   UNL     1       7.109   6.681  16.812  0.00  0.00    +0.000 N 
ATOM     16  N   UNL     1       5.634   5.925  18.538  0.00  0.00    +0.000 NA
ATOM     17  C   UNL     1       5.087   3.586  19.073  0.00  0.00    +0.000 C 
ATOM     18  H   UNL     1       7.611   6.116  16.129  0.00  0.00    +0.000 HD
ATOM     19  H   UNL     1       6.684   7.377  16.200  0.00  0.00    +0.000 HD
ENDROOT
BRANCH   8  20
ATOM     20  C   UNL     1       1.382   8.451  20.598  0.00  0.00    +0.000 A 
ATOM     21  C   UNL     1       1.225   9.029  21.861  0.00  0.00    +0.000 A 
ATOM     22  N   UNL     1       0.887  10.325  22.098  0.00  0.00    +0.000 NA
ATOM     23  C   UNL     1       0.694  11.107  21.013  0.00  0.00    +0.000 A 
ATOM     24  C   UNL     1       0.817  10.649  19.708  0.00  0.00    +0.000 A 
ATOM     25 CL   UNL     1       0.584  11.705  18.380  0.00  0.00    +0.000 Cl
ATOM     26  C   UNL     1       1.148   9.313  19.510  0.00  0.00    +0.000 A 
ENDBRANCH   8  20
TORSDOF 1
ENDMDL
MODEL 6
REMARK VINA RESULT:      -7.6      3.760      8.376
REMARK  Name = 
REMARK  3 active torsions:
REMARK  status: ('A' for Active; 'I' for Inactive)
REMARK    1  A    between atoms: C_1  and  C_2
REMARK    2  A    between atoms: C_2  and  C_3
REMARK    3  A    between atoms: C_8  and  C_9
REMARK                            x       y       z     vdW  Elec       q    Type
REMARK                         _______ _______ _______ _____ _____    ______ ____
ROOT
ATOM      1  C   UNL     1      -3.115  12.990  23.052  0.00  0.00    +0.000 C 
ATOM      2  C   UNL     1      -1.836  12.512  22.326  0.00  0.00    +0.000 C 
ATOM      3  C   UNL     1      -0.887  13.725  22.305  0.00  0.00    +0.000 C 
ATOM      4  C   UNL     1      -1.191  11.351  23.109  0.00  0.00    +0.000 C 
ATOM      5  C   UNL     1      -0.349  10.393  22.296  0.00  0.00    +0.000 A 
ATOM      6  C   UNL     1       0.490   9.522  22.999  0.00  0.00    +0.000 A 
ATOM      7  C   UNL     1       1.212   8.532  22.334  0.00  0.00    +0.000 A 
ATOM      8  C   UNL     1       1.062   8.302  20.956  0.00  0.00    +0.000 A 
ATOM      9  C   UNL     1       0.225   9.192  20.255  0.00  0.00    +0.000 A 
ATOM     10  C   UNL     1      -0.432  10.267  20.894  0.00  0.00    +0.000 A 
ATOM     11  C   UNL     1      -1.061  11.402  20.077  0.00  0.00    +0.000 C 
ATOM     12  C   UNL     1       0.120  12.328  19.700  0.00  0.00    +0.000 C 
ATOM     13  S   UNL     1      -0.605  13.396  18.458  0.00  0.00    +0.000 S 
ATOM     14  C   UNL     1      -1.482  11.984  17.917  0.00  0.00    +0.000 C 
ATOM     15  N   UNL     1      -1.818  12.053  16.605  0.00  0.00    +0.000 N 
ATOM     16  N   UNL     1      -1.640  11.004  18.748  0.00  0.00    +0.000 NA
ATOM     17  C   UNL     1      -2.228  12.005  20.919  0.00  0.00    +0.000 C 
ATOM     18  H   UNL     1      -2.116  13.004  16.399  0.00  0.00    +0.000 HD
ATOM     19  H   UNL     1      -0.955  12.008  16.065  0.00  0.00    +0.000 HD
ENDROOT
BRANCH   8  20
ATOM     20  C   UNL     1       1.794   7.193  20.293  0.00  0.00    +0.000 A 
ATOM     21  C   UNL     1       1.723   5.867  20.731  0.00  0.00    +0.000 A 
ATOM     22  N   UNL     1       2.341   4.808  20.143  0.00  0.00    +0.000 NA
ATOM     23  C   UNL     1       3.079   5.075  19.042  0.00  0.00    +0.000 A 
ATOM     24  C   UNL     1       3.230   6.349  18.512  0.00  0.00    +0.000 A 
ATOM     25 CL   UNL     1       4.160   6.609  17.098  0.00  0.00    +0.000 Cl
ATOM     26  C   UNL     1       2.594   7.406  19.154  0.00  0.00    +0.000 A 
ENDBRANCH   8  20
TORSDOF 1
ENDMDL
MODEL 7
REMARK VINA RESULT:      -7.4      2.756      3.994
REMARK  Name = 
REMARK  3 active torsions:
REMARK  status: ('A' for Active; 'I' for Inactive)
REMARK    1  A    between atoms: C_1  and  C_2
REMARK    2  A    between atoms: C_2  and  C_3
REMARK    3  A    between atoms: C_8  and  C_9
REMARK                            x       y       z     vdW  Elec       q    Type
REMARK                         _______ _______ _______ _____ _____    ______ ____
ROOT
ATOM      1  C   UNL     1       5.555   3.801  15.881  0.00  0.00    +0.000 C 
ATOM      2  C   UNL     1       4.959   4.618  17.050  0.00  0.00    +0.000 C 
ATOM      3  C   UNL     1       5.921   4.419  18.236  0.00  0.00    +0.000 C 
ATOM      4  C   UNL     1       4.893   6.110  16.668  0.00  0.00    +0.000 C 
ATOM      5  C   UNL     1       3.833   6.928  17.374  0.00  0.00    +0.000 A 
ATOM      6  C   UNL     1       3.938   8.320  17.291  0.00  0.00    +0.000 A 
ATOM      7  C   UNL     1       2.943   9.144  17.815  0.00  0.00    +0.000 A 
ATOM      8  C   UNL     1       1.757   8.623  18.358  0.00  0.00    +0.000 A 
ATOM      9  C   UNL     1       1.666   7.220  18.449  0.00  0.00    +0.000 A 
ATOM     10  C   UNL     1       2.711   6.371  18.021  0.00  0.00    +0.000 A 
ATOM     11  C   UNL     1       2.737   4.892  18.423  0.00  0.00    +0.000 C 
ATOM     12  C   UNL     1       3.297   4.878  19.866  0.00  0.00    +0.000 C 
ATOM     13  S   UNL     1       2.950   3.204  20.401  0.00  0.00    +0.000 S 
ATOM     14  C   UNL     1       1.461   3.344  19.497  0.00  0.00    +0.000 C 
ATOM     15  N   UNL     1       0.483   2.537  19.980  0.00  0.00    +0.000 N 
ATOM     16  N   UNL     1       1.395   4.229  18.556  0.00  0.00    +0.000 NA
ATOM     17  C   UNL     1       3.522   4.113  17.324  0.00  0.00    +0.000 C 
ATOM     18  H   UNL     1       0.899   1.642  20.231  0.00  0.00    +0.000 HD
ATOM     19  H   UNL     1       0.226   2.887  20.902  0.00  0.00    +0.000 HD
ENDROOT
BRANCH   8  20
ATOM     20  C   UNL     1       0.687   9.532  18.844  0.00  0.00    +0.000 A 
ATOM     21  C   UNL     1       0.633  10.007  20.157  0.00  0.00    +0.000 A 
ATOM     22  N   UNL     1      -0.299  10.867  20.647  0.00  0.00    +0.000 NA
ATOM     23  C   UNL     1      -1.244  11.292  19.779  0.00  0.00    +0.000 A 
ATOM     24  C   UNL     1      -1.300  10.889  18.451  0.00  0.00    +0.000 A 
ATOM     25 CL   UNL     1      -2.512  11.490  17.400  0.00  0.00    +0.000 Cl
ATOM     26  C   UNL     1      -0.336   9.996  17.996  0.00  0.00    +0.000 A 
ENDBRANCH   8  20
TORSDOF 1
ENDMDL
MODEL 8
REMARK VINA RESULT:      -7.3      2.537      3.756
REMARK  Name = 
REMARK  3 active torsions:
REMARK  status: ('A' for Active; 'I' for Inactive)
REMARK    1  A    between atoms: C_1  and  C_2
REMARK    2  A    between atoms: C_2  and  C_3
REMARK    3  A    between atoms: C_8  and  C_9
REMARK                            x       y       z     vdW  Elec       q    Type
REMARK                         _______ _______ _______ _____ _____    ______ ____
ROOT
ATOM      1  C   UNL     1       5.518   3.786  15.901  0.00  0.00    +0.000 C 
ATOM      2  C   UNL     1       4.944   4.610  17.076  0.00  0.00    +0.000 C 
ATOM      3  C   UNL     1       5.922   4.409  18.248  0.00  0.00    +0.000 C 
ATOM      4  C   UNL     1       4.882   6.102  16.690  0.00  0.00    +0.000 C 
ATOM      5  C   UNL     1       3.838   6.928  17.409  0.00  0.00    +0.000 A 
ATOM      6  C   UNL     1       3.951   8.320  17.320  0.00  0.00    +0.000 A 
ATOM      7  C   UNL     1       2.969   9.152  17.855  0.00  0.00    +0.000 A 
ATOM      8  C   UNL     1       1.787   8.641  18.418  0.00  0.00    +0.000 A 
ATOM      9  C   UNL     1       1.689   7.239  18.515  0.00  0.00    +0.000 A 
ATOM     10  C   UNL     1       2.723   6.381  18.075  0.00  0.00    +0.000 A 
ATOM     11  C   UNL     1       2.745   4.903  18.481  0.00  0.00    +0.000 C 
ATOM     12  C   UNL     1       3.326   4.890  19.916  0.00  0.00    +0.000 C 
ATOM     13  S   UNL     1       2.976   3.220  20.461  0.00  0.00    +0.000 S 
ATOM     14  C   UNL     1       1.475   3.367  19.579  0.00  0.00    +0.000 C 
ATOM     15  N   UNL     1       0.499   2.568  20.079  0.00  0.00    +0.000 N 
ATOM     16  N   UNL     1       1.400   4.250  18.635  0.00  0.00    +0.000 NA
ATOM     17  C   UNL     1       3.509   4.115  17.373  0.00  0.00    +0.000 C 
ATOM     18  H   UNL     1       0.912   1.671  20.326  0.00  0.00    +0.000 HD
ATOM     19  H   UNL     1       0.257   2.923  21.004  0.00  0.00    +0.000 HD
ENDROOT
BRANCH   8  20
ATOM     20  C   UNL     1       0.731   9.558  18.916  0.00  0.00    +0.000 A 
ATOM     21  C   UNL     1      -0.266  10.086  18.090  0.00  0.00    +0.000 A 
ATOM     22  N   UNL     1      -1.277  10.900  18.496  0.00  0.00    +0.000 NA
ATOM     23  C   UNL     1      -1.311  11.211  19.811  0.00  0.00    +0.000 A 
ATOM     24  C   UNL     1      -0.376  10.752  20.730  0.00  0.00    +0.000 A 
ATOM     25 CL   UNL     1      -0.496  11.167  22.388  0.00  0.00    +0.000 Cl
ATOM     26  C   UNL     1       0.651   9.936  20.269  0.00  0.00    +0.000 A 
ENDBRANCH   8  20
TORSDOF 1
ENDMDL
MODEL 9
REMARK VINA RESULT:      -7.1      4.277      9.075
REMARK  Name = 
REMARK  3 active torsions:
REMARK  status: ('A' for Active; 'I' for Inactive)
REMARK    1  A    between atoms: C_1  and  C_2
REMARK    2  A    between atoms: C_2  and  C_3
REMARK    3  A    between atoms: C_8  and  C_9
REMARK                            x       y       z     vdW  Elec       q    Type
REMARK                         _______ _______ _______ _____ _____    ______ ____
ROOT
ATOM      1  C   UNL     1      -3.746  13.662  23.647  0.00  0.00    +0.000 C 
ATOM      2  C   UNL     1      -2.333  13.259  23.164  0.00  0.00    +0.000 C 
ATOM      3  C   UNL     1      -1.348  14.087  24.009  0.00  0.00    +0.000 C 
ATOM      4  C   UNL     1      -2.105  11.754  23.409  0.00  0.00    +0.000 C 
ATOM      5  C   UNL     1      -1.105  11.079  22.496  0.00  0.00    +0.000 A 
ATOM      6  C   UNL     1      -0.645   9.814  22.874  0.00  0.00    +0.000 A 
ATOM      7  C   UNL     1       0.187   9.076  22.034  0.00  0.00    +0.000 A 
ATOM      8  C   UNL     1       0.523   9.519  20.743  0.00  0.00    +0.000 A 
ATOM      9  C   UNL     1       0.065  10.800  20.377  0.00  0.00    +0.000 A 
ATOM     10  C   UNL     1      -0.690  11.608  21.256  0.00  0.00    +0.000 A 
ATOM     11  C   UNL     1      -0.894  13.101  20.974  0.00  0.00    +0.000 C 
ATOM     12  C   UNL     1       0.413  13.781  21.448  0.00  0.00    +0.000 C 
ATOM     13  S   UNL     1       0.267  15.427  20.755  0.00  0.00    +0.000 S 
ATOM     14  C   UNL     1      -0.466  14.657  19.369  0.00  0.00    +0.000 C 
ATOM     15  N   UNL     1      -0.304  15.375  18.230  0.00  0.00    +0.000 N 
ATOM     16  N   UNL     1      -0.988  13.482  19.523  0.00  0.00    +0.000 NA
ATOM     17  C   UNL     1      -2.234  13.535  21.645  0.00  0.00    +0.000 C 
ATOM     18  H   UNL     1      -0.433  16.361  18.450  0.00  0.00    +0.000 HD
ATOM     19  H   UNL     1       0.690  15.365  18.001  0.00  0.00    +0.000 HD
ENDROOT
BRANCH   8  20
ATOM     20  C   UNL     1       1.355   8.675  19.848  0.00  0.00    +0.000 A 
ATOM     21  C   UNL     1       1.754   9.086  18.572  0.00  0.00    +0.000 A 
ATOM     22  N   UNL     1       2.543   8.373  17.725  0.00  0.00    +0.000 NA
ATOM     23  C   UNL     1       2.974   7.171  18.169  0.00  0.00    +0.000 A 
ATOM     24  C   UNL     1       2.643   6.651  19.414  0.00  0.00    +0.000 A 
ATOM     25 CL   UNL     1       3.247   5.131  19.921  0.00  0.00    +0.000 Cl
ATOM     26  C   UNL     1       1.820   7.407  20.242  0.00  0.00    +0.000 A 
ENDBRANCH   8  20
TORSDOF 1
ENDMDL
