MODEL 1
REMARK VINA RESULT:      -8.9      0.000      0.000
REMARK  Name = 
REMARK  10 active torsions:
REMARK  status: ('A' for Active; 'I' for Inactive)
REMARK    1  A    between atoms: C_1  and  C_2
REMARK    2  A    between atoms: C_2  and  C_3
REMARK    3  A    between atoms: C_3  and  N_4
REMARK    4  A    between atoms: N_4  and  C_5
REMARK    5  A    between atoms: C_8  and  S_9
REMARK    6  A    between atoms: S_9  and  N_12
REMARK    7  A    between atoms: N_12  and  C_13
REMARK    8  A    between atoms: C_15  and  N_16
REMARK    9  A    between atoms: C_19  and  N_20
REMARK   10  A    between atoms: N_20  and  C_21
REMARK                            x       y       z     vdW  Elec       q    Type
REMARK                         _______ _______ _______ _____ _____    ______ ____
ROOT
ATOM      1  C   UNL     1       3.397   5.692  19.231  0.00  0.00    +0.000 A 
ATOM      2  C   UNL     1       4.409   4.712  19.347  0.00  0.00    +0.000 A 
ATOM      3  C   UNL     1       5.543   4.700  18.542  0.00  0.00    +0.000 A 
ATOM      4  C   UNL     1       5.717   5.716  17.620  0.00  0.00    +0.000 A 
ATOM      5  C   UNL     1       4.770   6.736  17.510  0.00  0.00    +0.000 A 
ATOM      6  C   UNL     1       3.591   6.753  18.303  0.00  0.00    +0.000 A 
ENDROOT
BRANCH   6   7
ATOM      7  N   UNL     1       2.694   7.809  17.972  0.00  0.00    +0.000 N 
ATOM      8  C   UNL     1       1.788   8.643  18.666  0.00  0.00    +0.000 A 
ATOM      9  C   UNL     1       1.035   9.540  17.915  0.00  0.00    +0.000 A 
ATOM     10  C   UNL     1       0.107  10.326  18.579  0.00  0.00    +0.000 A 
ATOM     11  N   UNL     1      -0.057  10.230  19.903  0.00  0.00    +0.000 NA
ATOM     12  C   UNL     1       0.681   9.328  20.543  0.00  0.00    +0.000 A 
ATOM     13  N   UNL     1       1.594   8.524  19.986  0.00  0.00    +0.000 NA
ATOM     14  H   UNL     1       2.941   8.221  17.080  0.00  0.00    +0.000 HD
BRANCH  10  15
ATOM     15  N   UNL     1      -0.697  11.212  17.807  0.00  0.00    +0.000 N 
ATOM     16  H   UNL     1      -0.259  12.124  17.747  0.00  0.00    +0.000 HD
BRANCH  15  17
ATOM     17  C   UNL     1      -2.108  11.287  17.780  0.00  0.00    +0.000 A 
ATOM     18  C   UNL     1      -2.860  10.913  16.658  0.00  0.00    +0.000 A 
ATOM     19  C   UNL     1      -4.252  11.027  16.643  0.00  0.00    +0.000 A 
ATOM     20  C   UNL     1      -4.909  11.556  17.746  0.00  0.00    +0.000 A 
ATOM     21 CL   UNL     1      -6.623  11.698  17.732  0.00  0.00    +0.000 Cl
ATOM     22  C   UNL     1      -4.185  11.981  18.855  0.00  0.00    +0.000 A 
ATOM     23  C   UNL     1      -2.790  11.858  18.867  0.00  0.00    +0.000 A 
ENDBRANCH  15  17
ENDBRANCH  10  15
ENDBRANCH   6   7
BRANCH   4  24
ATOM     24  S   UNL     1       7.094   5.644  16.510  0.00  0.00    +0.000 S 
ATOM     25  O   UNL     1       7.705   6.951  16.491  0.00  0.00    +0.000 OA
ATOM     26  O   UNL     1       7.859   4.448  16.791  0.00  0.00    +0.000 OA
BRANCH  24  27
ATOM     27  N   UNL     1       6.357   5.446  15.012  0.00  0.00    +0.000 NA
ATOM     28  C   UNL     1       5.965   4.103  14.606  0.00  0.00    +0.000 C 
ATOM     29  H   UNL     1       6.776   6.054  14.310  0.00  0.00    +0.000 HD
ENDBRANCH  24  27
ENDBRANCH   4  24
BRANCH   1  30
ATOM     30  N   UNL     1       2.276   5.574  20.042  0.00  0.00    +0.000 N 
ATOM     31  H   UNL     1       1.740   6.434  20.173  0.00  0.00    +0.000 HD
BRANCH  30  32
ATOM     32  C   UNL     1       1.993   4.420  20.879  0.00  0.00    +0.000 C 
BRANCH  32  34
ATOM     33  C   UNL     1       1.547   2.260  19.669  0.00  0.00    +0.000 C 
ATOM     34  C   UNL     1       0.924   3.522  20.257  0.00  0.00    +0.000 C 
ENDBRANCH  32  34
ENDBRANCH  30  32
ENDBRANCH   1  30
TORSDOF 8
ENDMDL
MODEL 2
REMARK VINA RESULT:      -8.9      1.076      1.155
REMARK  Name = 
REMARK  10 active torsions:
REMARK  status: ('A' for Active; 'I' for Inactive)
REMARK    1  A    between atoms: C_1  and  C_2
REMARK    2  A    between atoms: C_2  and  C_3
REMARK    3  A    between atoms: C_3  and  N_4
REMARK    4  A    between atoms: N_4  and  C_5
REMARK    5  A    between atoms: C_8  and  S_9
REMARK    6  A    between atoms: S_9  and  N_12
REMARK    7  A    between atoms: N_12  and  C_13
REMARK    8  A    between atoms: C_15  and  N_16
REMARK    9  A    between atoms: C_19  and  N_20
REMARK   10  A    between atoms: N_20  and  C_21
REMARK                            x       y       z     vdW  Elec       q    Type
REMARK                         _______ _______ _______ _____ _____    ______ ____
ROOT
ATOM      1  C   UNL     1       2.914   4.594  18.141  0.00  0.00    +0.000 A 
ATOM      2  C   UNL     1       3.859   3.545  18.214  0.00  0.00    +0.000 A 
ATOM      3  C   UNL     1       5.224   3.747  18.032  0.00  0.00    +0.000 A 
ATOM      4  C   UNL     1       5.686   5.032  17.819  0.00  0.00    +0.000 A 
ATOM      5  C   UNL     1       4.793   6.106  17.795  0.00  0.00    +0.000 A 
ATOM      6  C   UNL     1       3.393   5.920  17.952  0.00  0.00    +0.000 A 
ENDROOT
BRANCH   6   7
ATOM      7  N   UNL     1       2.635   7.115  17.787  0.00  0.00    +0.000 N 
ATOM      8  C   UNL     1       1.972   8.034  18.631  0.00  0.00    +0.000 A 
ATOM      9  C   UNL     1       1.274   9.076  18.026  0.00  0.00    +0.000 A 
ATOM     10  C   UNL     1       0.577   9.953  18.841  0.00  0.00    +0.000 A 
ATOM     11  N   UNL     1       0.579   9.808  20.171  0.00  0.00    +0.000 NA
ATOM     12  C   UNL     1       1.246   8.771  20.668  0.00  0.00    +0.000 A 
ATOM     13  N   UNL     1       1.939   7.872  19.960  0.00  0.00    +0.000 NA
ATOM     14  H   UNL     1       2.822   7.536  16.885  0.00  0.00    +0.000 HD
BRANCH  10  15
ATOM     15  N   UNL     1      -0.173  10.992  18.222  0.00  0.00    +0.000 N 
ATOM     16  H   UNL     1       0.249  11.894  18.411  0.00  0.00    +0.000 HD
BRANCH  15  17
ATOM     17  C   UNL     1      -1.578  11.071  18.085  0.00  0.00    +0.000 A 
ATOM     18  C   UNL     1      -2.258  10.524  16.988  0.00  0.00    +0.000 A 
ATOM     19  C   UNL     1      -3.644  10.643  16.858  0.00  0.00    +0.000 A 
ATOM     20  C   UNL     1      -4.366  11.348  17.812  0.00  0.00    +0.000 A 
ATOM     21 CL   UNL     1      -6.072  11.496  17.656  0.00  0.00    +0.000 Cl
ATOM     22  C   UNL     1      -3.711  11.943  18.887  0.00  0.00    +0.000 A 
ATOM     23  C   UNL     1      -2.322  11.814  19.015  0.00  0.00    +0.000 A 
ENDBRANCH  15  17
ENDBRANCH  10  15
ENDBRANCH   6   7
BRANCH   4  24
ATOM     24  S   UNL     1       7.402   5.283  17.467  0.00  0.00    +0.000 S 
ATOM     25  O   UNL     1       7.571   6.665  17.089  0.00  0.00    +0.000 OA
ATOM     26  O   UNL     1       8.188   4.678  18.520  0.00  0.00    +0.000 OA
BRANCH  24  27
ATOM     27  N   UNL     1       7.632   4.381  16.067  0.00  0.00    +0.000 NA
ATOM     28  C   UNL     1       6.890   4.757  14.871  0.00  0.00    +0.000 C 
ATOM     29  H   UNL     1       7.728   3.388  16.277  0.00  0.00    +0.000 HD
ENDBRANCH  24  27
ENDBRANCH   4  24
BRANCH   1  30
ATOM     30  N   UNL     1       1.570   4.272  18.276  0.00  0.00    +0.000 N 
ATOM     31  H   UNL     1       0.921   4.902  17.800  0.00  0.00    +0.000 HD
BRANCH  30  32
ATOM     32  C   UNL     1       1.055   3.298  19.224  0.00  0.00    +0.000 C 
BRANCH  32  34
ATOM     33  C   UNL     1       2.002   2.945  21.528  0.00  0.00    +0.000 C 
ATOM     34  C   UNL     1       1.110   3.824  20.658  0.00  0.00    +0.000 C 
ENDBRANCH  32  34
ENDBRANCH  30  32
ENDBRANCH   1  30
TORSDOF 8
ENDMDL
MODEL 3
REMARK VINA RESULT:      -8.8      1.019      1.635
REMARK  Name = 
REMARK  10 active torsions:
REMARK  status: ('A' for Active; 'I' for Inactive)
REMARK    1  A    between atoms: C_1  and  C_2
REMARK    2  A    between atoms: C_2  and  C_3
REMARK    3  A    between atoms: C_3  and  N_4
REMARK    4  A    between atoms: N_4  and  C_5
REMARK    5  A    between atoms: C_8  and  S_9
REMARK    6  A    between atoms: S_9  and  N_12
REMARK    7  A    between atoms: N_12  and  C_13
REMARK    8  A    between atoms: C_15  and  N_16
REMARK    9  A    between atoms: C_19  and  N_20
REMARK   10  A    between atoms: N_20  and  C_21
REMARK                            x       y       z     vdW  Elec       q    Type
REMARK                         _______ _______ _______ _____ _____    ______ ____
ROOT
ATOM      1  C   UNL     1       3.038   5.284  18.582  0.00  0.00    +0.000 A 
ATOM      2  C   UNL     1       3.961   4.214  18.554  0.00  0.00    +0.000 A 
ATOM      3  C   UNL     1       5.162   4.274  17.854  0.00  0.00    +0.000 A 
ATOM      4  C   UNL     1       5.494   5.444  17.198  0.00  0.00    +0.000 A 
ATOM      5  C   UNL     1       4.637   6.546  17.246  0.00  0.00    +0.000 A 
ATOM      6  C   UNL     1       3.393   6.498  17.932  0.00  0.00    +0.000 A 
ENDROOT
BRANCH   6   7
ATOM      7  N   UNL     1       2.609   7.677  17.776  0.00  0.00    +0.000 N 
ATOM      8  C   UNL     1       1.855   8.527  18.617  0.00  0.00    +0.000 A 
ATOM      9  C   UNL     1       1.167   9.579  18.019  0.00  0.00    +0.000 A 
ATOM     10  C   UNL     1       0.383  10.387  18.826  0.00  0.00    +0.000 A 
ATOM     11  N   UNL     1       0.292  10.167  20.142  0.00  0.00    +0.000 NA
ATOM     12  C   UNL     1       0.957   9.124  20.631  0.00  0.00    +0.000 A 
ATOM     13  N   UNL     1       1.731   8.288  19.929  0.00  0.00    +0.000 NA
ATOM     14  H   UNL     1       2.846   8.154  16.915  0.00  0.00    +0.000 HD
BRANCH  10  15
ATOM     15  N   UNL     1      -0.356  11.436  18.210  0.00  0.00    +0.000 N 
ATOM     16  H   UNL     1       0.074  12.333  18.406  0.00  0.00    +0.000 HD
BRANCH  15  17
ATOM     17  C   UNL     1      -1.759  11.528  18.068  0.00  0.00    +0.000 A 
ATOM     18  C   UNL     1      -2.595  11.946  19.113  0.00  0.00    +0.000 A 
ATOM     19  C   UNL     1      -3.983  11.997  18.959  0.00  0.00    +0.000 A 
ATOM     20  C   UNL     1      -4.556  11.593  17.761  0.00  0.00    +0.000 A 
ATOM     21 CL   UNL     1      -6.264  11.655  17.567  0.00  0.00    +0.000 Cl
ATOM     22  C   UNL     1      -3.755  11.128  16.723  0.00  0.00    +0.000 A 
ATOM     23  C   UNL     1      -2.364  11.085  16.880  0.00  0.00    +0.000 A 
ENDBRANCH  15  17
ENDBRANCH  10  15
ENDBRANCH   6   7
BRANCH   4  24
ATOM     24  S   UNL     1       6.960   5.489  16.208  0.00  0.00    +0.000 S 
ATOM     25  O   UNL     1       7.841   4.453  16.689  0.00  0.00    +0.000 OA
ATOM     26  O   UNL     1       6.581   5.582  14.814  0.00  0.00    +0.000 OA
BRANCH  24  27
ATOM     27  N   UNL     1       7.665   6.950  16.649  0.00  0.00    +0.000 NA
ATOM     28  C   UNL     1       7.875   7.217  18.066  0.00  0.00    +0.000 C 
ATOM     29  H   UNL     1       7.332   7.714  16.063  0.00  0.00    +0.000 HD
ENDBRANCH  24  27
ENDBRANCH   4  24
BRANCH   1  30
ATOM     30  N   UNL     1       1.839   5.096  19.259  0.00  0.00    +0.000 N 
ATOM     31  H   UNL     1       1.014   5.487  18.802  0.00  0.00    +0.000 HD
BRANCH  30  32
ATOM     32  C   UNL     1       1.744   4.632  20.633  0.00  0.00    +0.000 C 
BRANCH  32  34
ATOM     33  C   UNL     1       1.624   2.451  21.882  0.00  0.00    +0.000 C 
ATOM     34  C   UNL     1       1.065   3.265  20.720  0.00  0.00    +0.000 C 
ENDBRANCH  32  34
ENDBRANCH  30  32
ENDBRANCH   1  30
TORSDOF 8
ENDMDL
MODEL 4
REMARK VINA RESULT:      -8.8      1.386      1.741
REMARK  Name = 
REMARK  10 active torsions:
REMARK  status: ('A' for Active; 'I' for Inactive)
REMARK    1  A    between atoms: C_1  and  C_2
REMARK    2  A    between atoms: C_2  and  C_3
REMARK    3  A    between atoms: C_3  and  N_4
REMARK    4  A    between atoms: N_4  and  C_5
REMARK    5  A    between atoms: C_8  and  S_9
REMARK    6  A    between atoms: S_9  and  N_12
REMARK    7  A    between atoms: N_12  and  C_13
REMARK    8  A    between atoms: C_15  and  N_16
REMARK    9  A    between atoms: C_19  and  N_20
REMARK   10  A    between atoms: N_20  and  C_21
REMARK                            x       y       z     vdW  Elec       q    Type
REMARK                         _______ _______ _______ _____ _____    ______ ____
ROOT
ATOM      1  C   UNL     1       2.816   4.443  17.906  0.00  0.00    +0.000 A 
ATOM      2  C   UNL     1       3.704   3.350  17.786  0.00  0.00    +0.000 A 
ATOM      3  C   UNL     1       5.052   3.504  17.480  0.00  0.00    +0.000 A 
ATOM      4  C   UNL     1       5.561   4.782  17.334  0.00  0.00    +0.000 A 
ATOM      5  C   UNL     1       4.732   5.893  17.499  0.00  0.00    +0.000 A 
ATOM      6  C   UNL     1       3.346   5.757  17.786  0.00  0.00    +0.000 A 
ENDROOT
BRANCH   6   7
ATOM      7  N   UNL     1       2.643   6.996  17.808  0.00  0.00    +0.000 N 
ATOM      8  C   UNL     1       2.052   7.823  18.790  0.00  0.00    +0.000 A 
ATOM      9  C   UNL     1       1.388   8.966  18.354  0.00  0.00    +0.000 A 
ATOM     10  C   UNL     1       0.760   9.756  19.302  0.00  0.00    +0.000 A 
ATOM     11  N   UNL     1       0.794   9.435  20.600  0.00  0.00    +0.000 NA
ATOM     12  C   UNL     1       1.425   8.311  20.932  0.00  0.00    +0.000 A 
ATOM     13  N   UNL     1       2.051   7.486  20.086  0.00  0.00    +0.000 NA
ATOM     14  H   UNL     1       2.824   7.525  16.964  0.00  0.00    +0.000 HD
BRANCH  10  15
ATOM     15  N   UNL     1       0.043  10.901  18.854  0.00  0.00    +0.000 N 
ATOM     16  H   UNL     1       0.395  11.738  19.305  0.00  0.00    +0.000 HD
BRANCH  15  17
ATOM     17  C   UNL     1      -1.336  10.987  18.557  0.00  0.00    +0.000 A 
ATOM     18  C   UNL     1      -1.922  10.283  17.494  0.00  0.00    +0.000 A 
ATOM     19  C   UNL     1      -3.282  10.410  17.199  0.00  0.00    +0.000 A 
ATOM     20  C   UNL     1      -4.069  11.277  17.945  0.00  0.00    +0.000 A 
ATOM     21 CL   UNL     1      -5.743  11.436  17.585  0.00  0.00    +0.000 Cl
ATOM     22  C   UNL     1      -3.504  12.025  18.974  0.00  0.00    +0.000 A 
ATOM     23  C   UNL     1      -2.142  11.889  19.270  0.00  0.00    +0.000 A 
ENDBRANCH  15  17
ENDBRANCH  10  15
ENDBRANCH   6   7
BRANCH   4  24
ATOM     24  S   UNL     1       7.245   4.984  16.827  0.00  0.00    +0.000 S 
ATOM     25  O   UNL     1       8.080   4.413  17.856  0.00  0.00    +0.000 OA
ATOM     26  O   UNL     1       7.366   4.591  15.440  0.00  0.00    +0.000 OA
BRANCH  24  27
ATOM     27  N   UNL     1       7.463   6.649  16.912  0.00  0.00    +0.000 NA
ATOM     28  C   UNL     1       7.963   7.218  18.156  0.00  0.00    +0.000 C 
ATOM     29  H   UNL     1       6.718   7.146  16.425  0.00  0.00    +0.000 HD
ENDBRANCH  24  27
ENDBRANCH   4  24
BRANCH   1  30
ATOM     30  N   UNL     1       1.476   4.172  18.153  0.00  0.00    +0.000 N 
ATOM     31  H   UNL     1       0.820   4.577  17.483  0.00  0.00    +0.000 HD
BRANCH  30  32
ATOM     32  C   UNL     1       0.974   3.600  19.391  0.00  0.00    +0.000 C 
BRANCH  32  34
ATOM     33  C   UNL     1       1.946   2.818  21.576  0.00  0.00    +0.000 C 
ATOM     34  C   UNL     1       1.857   3.971  20.582  0.00  0.00    +0.000 C 
ENDBRANCH  32  34
ENDBRANCH  30  32
ENDBRANCH   1  30
TORSDOF 8
ENDMDL
MODEL 5
REMARK VINA RESULT:      -8.7      1.380      1.548
REMARK  Name = 
REMARK  10 active torsions:
REMARK  status: ('A' for Active; 'I' for Inactive)
REMARK    1  A    between atoms: C_1  and  C_2
REMARK    2  A    between atoms: C_2  and  C_3
REMARK    3  A    between atoms: C_3  and  N_4
REMARK    4  A    between atoms: N_4  and  C_5
REMARK    5  A    between atoms: C_8  and  S_9
REMARK    6  A    between atoms: S_9  and  N_12
REMARK    7  A    between atoms: N_12  and  C_13
REMARK    8  A    between atoms: C_15  and  N_16
REMARK    9  A    between atoms: C_19  and  N_20
REMARK   10  A    between atoms: N_20  and  C_21
REMARK                            x       y       z     vdW  Elec       q    Type
REMARK                         _______ _______ _______ _____ _____    ______ ____
ROOT
ATOM      1  C   UNL     1       2.793   4.511  18.226  0.00  0.00    +0.000 A 
ATOM      2  C   UNL     1       3.566   3.367  17.919  0.00  0.00    +0.000 A 
ATOM      3  C   UNL     1       4.720   3.424  17.144  0.00  0.00    +0.000 A 
ATOM      4  C   UNL     1       5.161   4.654  16.693  0.00  0.00    +0.000 A 
ATOM      5  C   UNL     1       4.460   5.817  17.020  0.00  0.00    +0.000 A 
ATOM      6  C   UNL     1       3.264   5.779  17.787  0.00  0.00    +0.000 A 
ENDROOT
BRANCH   6   7
ATOM      7  N   UNL     1       2.632   7.049  17.923  0.00  0.00    +0.000 N 
ATOM      8  C   UNL     1       2.060   7.804  18.971  0.00  0.00    +0.000 A 
ATOM      9  C   UNL     1       1.475   9.023  18.642  0.00  0.00    +0.000 A 
ATOM     10  C   UNL     1       0.865   9.747  19.653  0.00  0.00    +0.000 A 
ATOM     11  N   UNL     1       0.844   9.293  20.911  0.00  0.00    +0.000 NA
ATOM     12  C   UNL     1       1.400   8.106  21.138  0.00  0.00    +0.000 A 
ATOM     13  N   UNL     1       2.003   7.336  20.226  0.00  0.00    +0.000 NA
ATOM     14  H   UNL     1       2.866   7.650  17.142  0.00  0.00    +0.000 HD
BRANCH  10  15
ATOM     15  N   UNL     1       0.227  10.973  19.311  0.00  0.00    +0.000 N 
ATOM     16  H   UNL     1       0.613  11.737  19.854  0.00  0.00    +0.000 HD
BRANCH  15  17
ATOM     17  C   UNL     1      -1.135  11.170  18.992  0.00  0.00    +0.000 A 
ATOM     18  C   UNL     1      -1.727  10.623  17.844  0.00  0.00    +0.000 A 
ATOM     19  C   UNL     1      -3.068  10.859  17.533  0.00  0.00    +0.000 A 
ATOM     20  C   UNL     1      -3.828  11.683  18.353  0.00  0.00    +0.000 A 
ATOM     21 CL   UNL     1      -5.480  11.976  17.974  0.00  0.00    +0.000 Cl
ATOM     22  C   UNL     1      -3.255  12.279  19.473  0.00  0.00    +0.000 A 
ATOM     23  C   UNL     1      -1.912  12.033  19.783  0.00  0.00    +0.000 A 
ENDBRANCH  15  17
ENDBRANCH  10  15
ENDBRANCH   6   7
BRANCH   4  24
ATOM     24  S   UNL     1       6.558   4.722  15.609  0.00  0.00    +0.000 S 
ATOM     25  O   UNL     1       6.418   5.905  14.794  0.00  0.00    +0.000 OA
ATOM     26  O   UNL     1       7.758   4.461  16.375  0.00  0.00    +0.000 OA
BRANCH  24  27
ATOM     27  N   UNL     1       6.303   3.412  14.587  0.00  0.00    +0.000 NA
ATOM     28  C   UNL     1       6.243   3.655  13.152  0.00  0.00    +0.000 C 
ATOM     29  H   UNL     1       5.637   2.754  14.989  0.00  0.00    +0.000 HD
ENDBRANCH  24  27
ENDBRANCH   4  24
BRANCH   1  30
ATOM     30  N   UNL     1       1.624   4.333  18.954  0.00  0.00    +0.000 N 
ATOM     31  H   UNL     1       1.184   5.193  19.289  0.00  0.00    +0.000 HD
BRANCH  30  32
ATOM     32  C   UNL     1       1.167   3.051  19.462  0.00  0.00    +0.000 C 
BRANCH  32  34
ATOM     33  C   UNL     1       2.542   2.718  21.542  0.00  0.00    +0.000 C 
ATOM     34  C   UNL     1       1.153   3.021  20.990  0.00  0.00    +0.000 C 
ENDBRANCH  32  34
ENDBRANCH  30  32
ENDBRANCH   1  30
TORSDOF 8
ENDMDL
MODEL 6
REMARK VINA RESULT:      -8.6      1.046      1.510
REMARK  Name = 
REMARK  10 active torsions:
REMARK  status: ('A' for Active; 'I' for Inactive)
REMARK    1  A    between atoms: C_1  and  C_2
REMARK    2  A    between atoms: C_2  and  C_3
REMARK    3  A    between atoms: C_3  and  N_4
REMARK    4  A    between atoms: N_4  and  C_5
REMARK    5  A    between atoms: C_8  and  S_9
REMARK    6  A    between atoms: S_9  and  N_12
REMARK    7  A    between atoms: N_12  and  C_13
REMARK    8  A    between atoms: C_15  and  N_16
REMARK    9  A    between atoms: C_19  and  N_20
REMARK   10  A    between atoms: N_20  and  C_21
REMARK                            x       y       z     vdW  Elec       q    Type
REMARK                         _______ _______ _______ _____ _____    ______ ____
ROOT
ATOM      1  C   UNL     1       2.984   5.046  18.197  0.00  0.00    +0.000 A 
ATOM      2  C   UNL     1       3.877   3.958  18.068  0.00  0.00    +0.000 A 
ATOM      3  C   UNL     1       5.150   4.088  17.524  0.00  0.00    +0.000 A 
ATOM      4  C   UNL     1       5.586   5.341  17.136  0.00  0.00    +0.000 A 
ATOM      5  C   UNL     1       4.758   6.455  17.298  0.00  0.00    +0.000 A 
ATOM      6  C   UNL     1       3.443   6.341  17.826  0.00  0.00    +0.000 A 
ENDROOT
BRANCH   6   7
ATOM      7  N   UNL     1       2.713   7.564  17.810  0.00  0.00    +0.000 N 
ATOM      8  C   UNL     1       1.989   8.339  18.744  0.00  0.00    +0.000 A 
ATOM      9  C   UNL     1       1.354   9.485  18.275  0.00  0.00    +0.000 A 
ATOM     10  C   UNL     1       0.599  10.224  19.170  0.00  0.00    +0.000 A 
ATOM     11  N   UNL     1       0.486   9.852  20.449  0.00  0.00    +0.000 NA
ATOM     12  C   UNL     1       1.100   8.729  20.812  0.00  0.00    +0.000 A 
ATOM     13  N   UNL     1       1.842   7.950  20.018  0.00  0.00    +0.000 NA
ATOM     14  H   UNL     1       2.980   8.130  17.014  0.00  0.00    +0.000 HD
BRANCH  10  15
ATOM     15  N   UNL     1      -0.088  11.372  18.682  0.00  0.00    +0.000 N 
ATOM     16  H   UNL     1       0.531  12.175  18.667  0.00  0.00    +0.000 HD
BRANCH  15  17
ATOM     17  C   UNL     1      -1.433  11.732  18.919  0.00  0.00    +0.000 A 
ATOM     18  C   UNL     1      -1.835  12.425  20.070  0.00  0.00    +0.000 A 
ATOM     19  C   UNL     1      -3.177  12.741  20.298  0.00  0.00    +0.000 A 
ATOM     20  C   UNL     1      -4.143  12.331  19.390  0.00  0.00    +0.000 A 
ATOM     21 CL   UNL     1      -5.796  12.718  19.667  0.00  0.00    +0.000 Cl
ATOM     22  C   UNL     1      -3.780  11.599  18.263  0.00  0.00    +0.000 A 
ATOM     23  C   UNL     1      -2.432  11.291  18.035  0.00  0.00    +0.000 A 
ENDBRANCH  15  17
ENDBRANCH  10  15
ENDBRANCH   6   7
BRANCH   4  24
ATOM     24  S   UNL     1       7.155   5.497  16.334  0.00  0.00    +0.000 S 
ATOM     25  O   UNL     1       7.616   6.850  16.540  0.00  0.00    +0.000 OA
ATOM     26  O   UNL     1       7.972   4.353  16.677  0.00  0.00    +0.000 OA
BRANCH  24  27
ATOM     27  N   UNL     1       6.757   5.378  14.706  0.00  0.00    +0.000 NA
ATOM     28  C   UNL     1       6.481   4.058  14.155  0.00  0.00    +0.000 C 
ATOM     29  H   UNL     1       7.305   6.026  14.142  0.00  0.00    +0.000 HD
ENDBRANCH  24  27
ENDBRANCH   4  24
BRANCH   1  30
ATOM     30  N   UNL     1       1.713   4.794  18.695  0.00  0.00    +0.000 N 
ATOM     31  H   UNL     1       1.099   5.609  18.757  0.00  0.00    +0.000 HD
BRANCH  30  32
ATOM     32  C   UNL     1       1.323   3.553  19.344  0.00  0.00    +0.000 C 
BRANCH  32  34
ATOM     33  C   UNL     1       2.382   2.898  21.529  0.00  0.00    +0.000 C 
ATOM     34  C   UNL     1       1.272   3.704  20.864  0.00  0.00    +0.000 C 
ENDBRANCH  32  34
ENDBRANCH  30  32
ENDBRANCH   1  30
TORSDOF 8
ENDMDL
MODEL 7
REMARK VINA RESULT:      -8.6      2.755      3.260
REMARK  Name = 
REMARK  10 active torsions:
REMARK  status: ('A' for Active; 'I' for Inactive)
REMARK    1  A    between atoms: C_1  and  C_2
REMARK    2  A    between atoms: C_2  and  C_3
REMARK    3  A    between atoms: C_3  and  N_4
REMARK    4  A    between atoms: N_4  and  C_5
REMARK    5  A    between atoms: C_8  and  S_9
REMARK    6  A    between atoms: S_9  and  N_12
REMARK    7  A    between atoms: N_12  and  C_13
REMARK    8  A    between atoms: C_15  and  N_16
REMARK    9  A    between atoms: C_19  and  N_20
REMARK   10  A    between atoms: N_20  and  C_21
REMARK                            x       y       z     vdW  Elec       q    Type
REMARK                         _______ _______ _______ _____ _____    ______ ____
ROOT
ATOM      1  C   UNL     1       3.006   5.089  18.187  0.00  0.00    +0.000 A 
ATOM      2  C   UNL     1       3.873   3.976  18.096  0.00  0.00    +0.000 A 
ATOM      3  C   UNL     1       5.153   4.060  17.558  0.00  0.00    +0.000 A 
ATOM      4  C   UNL     1       5.621   5.292  17.138  0.00  0.00    +0.000 A 
ATOM      5  C   UNL     1       4.819   6.428  17.261  0.00  0.00    +0.000 A 
ATOM      6  C   UNL     1       3.498   6.361  17.782  0.00  0.00    +0.000 A 
ENDROOT
BRANCH   6   7
ATOM      7  N   UNL     1       2.797   7.599  17.726  0.00  0.00    +0.000 N 
ATOM      8  C   UNL     1       2.050   8.398  18.622  0.00  0.00    +0.000 A 
ATOM      9  C   UNL     1       1.463   9.555  18.117  0.00  0.00    +0.000 A 
ATOM     10  C   UNL     1       0.686  10.317  18.973  0.00  0.00    +0.000 A 
ATOM     11  N   UNL     1       0.509   9.958  20.249  0.00  0.00    +0.000 NA
ATOM     12  C   UNL     1       1.080   8.824  20.646  0.00  0.00    +0.000 A 
ATOM     13  N   UNL     1       1.839   8.023  19.890  0.00  0.00    +0.000 NA
ATOM     14  H   UNL     1       3.111   8.153  16.938  0.00  0.00    +0.000 HD
BRANCH  10  15
ATOM     15  N   UNL     1       0.048  11.476  18.447  0.00  0.00    +0.000 N 
ATOM     16  H   UNL     1      -0.329  11.285  17.525  0.00  0.00    +0.000 HD
BRANCH  15  17
ATOM     17  C   UNL     1       0.454  12.821  18.597  0.00  0.00    +0.000 A 
ATOM     18  C   UNL     1      -0.460  13.865  18.803  0.00  0.00    +0.000 A 
ATOM     19  C   UNL     1      -0.036  15.192  18.916  0.00  0.00    +0.000 A 
ATOM     20  C   UNL     1       1.312  15.496  18.785  0.00  0.00    +0.000 A 
ATOM     21 CL   UNL     1       1.837  17.128  18.923  0.00  0.00    +0.000 Cl
ATOM     22  C   UNL     1       2.236  14.486  18.531  0.00  0.00    +0.000 A 
ATOM     23  C   UNL     1       1.807  13.157  18.426  0.00  0.00    +0.000 A 
ENDBRANCH  15  17
ENDBRANCH  10  15
ENDBRANCH   6   7
BRANCH   4  24
ATOM     24  S   UNL     1       7.199   5.388  16.344  0.00  0.00    +0.000 S 
ATOM     25  O   UNL     1       7.710   6.721  16.552  0.00  0.00    +0.000 OA
ATOM     26  O   UNL     1       7.969   4.213  16.691  0.00  0.00    +0.000 OA
BRANCH  24  27
ATOM     27  N   UNL     1       6.805   5.283  14.714  0.00  0.00    +0.000 NA
ATOM     28  C   UNL     1       6.381   3.993  14.185  0.00  0.00    +0.000 C 
ATOM     29  H   UNL     1       7.430   5.851  14.144  0.00  0.00    +0.000 HD
ENDBRANCH  24  27
ENDBRANCH   4  24
BRANCH   1  30
ATOM     30  N   UNL     1       1.725   4.881  18.682  0.00  0.00    +0.000 N 
ATOM     31  H   UNL     1       1.175   5.728  18.837  0.00  0.00    +0.000 HD
BRANCH  30  32
ATOM     32  C   UNL     1       1.251   3.613  19.211  0.00  0.00    +0.000 C 
BRANCH  32  34
ATOM     33  C   UNL     1       2.198   2.903  21.432  0.00  0.00    +0.000 C 
ATOM     34  C   UNL     1       1.079   3.665  20.729  0.00  0.00    +0.000 C 
ENDBRANCH  32  34
ENDBRANCH  30  32
ENDBRANCH   1  30
TORSDOF 8
ENDMDL
MODEL 8
REMARK VINA RESULT:      -8.6      1.564      1.950
REMARK  Name = 
REMARK  10 active torsions:
REMARK  status: ('A' for Active; 'I' for Inactive)
REMARK    1  A    between atoms: C_1  and  C_2
REMARK    2  A    between atoms: C_2  and  C_3
REMARK    3  A    between atoms: C_3  and  N_4
REMARK    4  A    between atoms: N_4  and  C_5
REMARK    5  A    between atoms: C_8  and  S_9
REMARK    6  A    between atoms: S_9  and  N_12
REMARK    7  A    between atoms: N_12  and  C_13
REMARK    8  A    between atoms: C_15  and  N_16
REMARK    9  A    between atoms: C_19  and  N_20
REMARK   10  A    between atoms: N_20  and  C_21
REMARK                            x       y       z     vdW  Elec       q    Type
REMARK                         _______ _______ _______ _____ _____    ______ ____
ROOT
ATOM      1  C   UNL     1       2.992   4.465  18.259  0.00  0.00    +0.000 A 
ATOM      2  C   UNL     1       3.926   3.428  18.484  0.00  0.00    +0.000 A 
ATOM      3  C   UNL     1       5.280   3.666  18.691  0.00  0.00    +0.000 A 
ATOM      4  C   UNL     1       5.730   4.973  18.728  0.00  0.00    +0.000 A 
ATOM      5  C   UNL     1       4.834   6.031  18.567  0.00  0.00    +0.000 A 
ATOM      6  C   UNL     1       3.450   5.810  18.328  0.00  0.00    +0.000 A 
ENDROOT
BRANCH   6   7
ATOM      7  N   UNL     1       2.715   7.005  18.079  0.00  0.00    +0.000 N 
ATOM      8  C   UNL     1       2.020   7.963  18.851  0.00  0.00    +0.000 A 
ATOM      9  C   UNL     1       1.366   8.986  18.172  0.00  0.00    +0.000 A 
ATOM     10  C   UNL     1       0.638   9.900  18.916  0.00  0.00    +0.000 A 
ATOM     11  N   UNL     1       0.570   9.807  20.249  0.00  0.00    +0.000 NA
ATOM     12  C   UNL     1       1.199   8.784  20.819  0.00  0.00    +0.000 A 
ATOM     13  N   UNL     1       1.917   7.852  20.183  0.00  0.00    +0.000 NA
ATOM     14  H   UNL     1       2.953   7.389  17.172  0.00  0.00    +0.000 HD
BRANCH  10  15
ATOM     15  N   UNL     1      -0.068  10.922  18.220  0.00  0.00    +0.000 N 
ATOM     16  H   UNL     1       0.399  11.815  18.333  0.00  0.00    +0.000 HD
BRANCH  15  17
ATOM     17  C   UNL     1      -1.468  11.057  18.086  0.00  0.00    +0.000 A 
ATOM     18  C   UNL     1      -2.234  11.850  18.954  0.00  0.00    +0.000 A 
ATOM     19  C   UNL     1      -3.622  11.943  18.821  0.00  0.00    +0.000 A 
ATOM     20  C   UNL     1      -4.268  11.208  17.836  0.00  0.00    +0.000 A 
ATOM     21 CL   UNL     1      -5.976  11.320  17.669  0.00  0.00    +0.000 Cl
ATOM     22  C   UNL     1      -3.539  10.376  16.991  0.00  0.00    +0.000 A 
ATOM     23  C   UNL     1      -2.148  10.293  17.124  0.00  0.00    +0.000 A 
ENDBRANCH  15  17
ENDBRANCH  10  15
ENDBRANCH   6   7
BRANCH   4  24
ATOM     24  S   UNL     1       7.467   5.281  18.870  0.00  0.00    +0.000 S 
ATOM     25  O   UNL     1       7.791   5.303  20.276  0.00  0.00    +0.000 OA
ATOM     26  O   UNL     1       8.172   4.427  17.938  0.00  0.00    +0.000 OA
BRANCH  24  27
ATOM     27  N   UNL     1       7.611   6.866  18.328  0.00  0.00    +0.000 NA
ATOM     28  C   UNL     1       7.519   7.119  16.897  0.00  0.00    +0.000 C 
ATOM     29  H   UNL     1       8.316   7.376  18.860  0.00  0.00    +0.000 HD
ENDBRANCH  24  27
ENDBRANCH   4  24
BRANCH   1  30
ATOM     30  N   UNL     1       1.673   4.113  18.001  0.00  0.00    +0.000 N 
ATOM     31  H   UNL     1       1.231   4.615  17.229  0.00  0.00    +0.000 HD
BRANCH  30  32
ATOM     32  C   UNL     1       0.856   3.306  18.891  0.00  0.00    +0.000 C 
BRANCH  32  34
ATOM     33  C   UNL     1       1.367   2.799  21.301  0.00  0.00    +0.000 C 
ATOM     34  C   UNL     1       0.868   3.853  20.318  0.00  0.00    +0.000 C 
ENDBRANCH  32  34
ENDBRANCH  30  32
ENDBRANCH   1  30
TORSDOF 8
ENDMDL
MODEL 9
REMARK VINA RESULT:      -8.5      2.883      3.467
REMARK  Name = 
REMARK  10 active torsions:
REMARK  status: ('A' for Active; 'I' for Inactive)
REMARK    1  A    between atoms: C_1  and  C_2
REMARK    2  A    between atoms: C_2  and  C_3
REMARK    3  A    between atoms: C_3  and  N_4
REMARK    4  A    between atoms: N_4  and  C_5
REMARK    5  A    between atoms: C_8  and  S_9
REMARK    6  A    between atoms: S_9  and  N_12
REMARK    7  A    between atoms: N_12  and  C_13
REMARK    8  A    between atoms: C_15  and  N_16
REMARK    9  A    between atoms: C_19  and  N_20
REMARK   10  A    between atoms: N_20  and  C_21
REMARK                            x       y       z     vdW  Elec       q    Type
REMARK                         _______ _______ _______ _____ _____    ______ ____
ROOT
ATOM      1  C   UNL     1       2.916   4.283  18.127  0.00  0.00    +0.000 A 
ATOM      2  C   UNL     1       3.797   3.577  17.277  0.00  0.00    +0.000 A 
ATOM      3  C   UNL     1       5.147   3.894  17.159  0.00  0.00    +0.000 A 
ATOM      4  C   UNL     1       5.664   4.910  17.941  0.00  0.00    +0.000 A 
ATOM      5  C   UNL     1       4.842   5.597  18.837  0.00  0.00    +0.000 A 
ATOM      6  C   UNL     1       3.455   5.308  18.953  0.00  0.00    +0.000 A 
ENDROOT
BRANCH   6   7
ATOM      7  N   UNL     1       2.760   6.185  19.834  0.00  0.00    +0.000 N 
ATOM      8  C   UNL     1       2.102   7.432  19.734  0.00  0.00    +0.000 A 
ATOM      9  C   UNL     1       1.588   7.985  20.903  0.00  0.00    +0.000 A 
ATOM     10  C   UNL     1       0.987   9.231  20.825  0.00  0.00    +0.000 A 
ATOM     11  N   UNL     1       0.898   9.881  19.660  0.00  0.00    +0.000 NA
ATOM     12  C   UNL     1       1.439   9.298  18.594  0.00  0.00    +0.000 A 
ATOM     13  N   UNL     1       2.043   8.104  18.577  0.00  0.00    +0.000 NA
ATOM     14  H   UNL     1       2.453   5.691  20.663  0.00  0.00    +0.000 HD
BRANCH  10  15
ATOM     15  N   UNL     1       0.501   9.818  22.027  0.00  0.00    +0.000 N 
ATOM     16  H   UNL     1       0.259   9.099  22.699  0.00  0.00    +0.000 HD
BRANCH  15  17
ATOM     17  C   UNL     1      -0.308  10.969  22.152  0.00  0.00    +0.000 A 
ATOM     18  C   UNL     1       0.010  12.184  21.528  0.00  0.00    +0.000 A 
ATOM     19  C   UNL     1      -0.789  13.319  21.693  0.00  0.00    +0.000 A 
ATOM     20  C   UNL     1      -1.902  13.260  22.521  0.00  0.00    +0.000 A 
ATOM     21 CL   UNL     1      -2.888  14.654  22.727  0.00  0.00    +0.000 Cl
ATOM     22  C   UNL     1      -2.215  12.081  23.192  0.00  0.00    +0.000 A 
ATOM     23  C   UNL     1      -1.415  10.945  23.017  0.00  0.00    +0.000 A 
ENDBRANCH  15  17
ENDBRANCH  10  15
ENDBRANCH   6   7
BRANCH   4  24
ATOM     24  S   UNL     1       7.349   5.399  17.712  0.00  0.00    +0.000 S 
ATOM     25  O   UNL     1       7.915   5.633  19.018  0.00  0.00    +0.000 OA
ATOM     26  O   UNL     1       7.971   4.505  16.759  0.00  0.00    +0.000 OA
BRANCH  24  27
ATOM     27  N   UNL     1       7.205   6.908  16.984  0.00  0.00    +0.000 NA
ATOM     28  C   UNL     1       7.874   8.043  17.606  0.00  0.00    +0.000 C 
ATOM     29  H   UNL     1       6.267   7.051  16.612  0.00  0.00    +0.000 HD
ENDBRANCH  24  27
ENDBRANCH   4  24
BRANCH   1  30
ATOM     30  N   UNL     1       1.574   3.924  18.121  0.00  0.00    +0.000 N 
ATOM     31  H   UNL     1       0.945   4.598  17.682  0.00  0.00    +0.000 HD
BRANCH  30  32
ATOM     32  C   UNL     1       1.020   2.829  18.899  0.00  0.00    +0.000 C 
BRANCH  32  34
ATOM     33  C   UNL     1       1.837   2.686  21.274  0.00  0.00    +0.000 C 
ATOM     34  C   UNL     1       0.760   3.241  20.347  0.00  0.00    +0.000 C 
ENDBRANCH  32  34
ENDBRANCH  30  32
ENDBRANCH   1  30
TORSDOF 8
ENDMDL
