MODEL 1
REMARK VINA RESULT:      -5.9      0.000      0.000
REMARK  Name = 
REMARK  6 active torsions:
REMARK  status: ('A' for Active; 'I' for Inactive)
REMARK    1  A    between atoms: N_1  and  CA_2
REMARK    2  A    between atoms: CA_2  and  C_3
REMARK    3  A    between atoms: CA_2  and  C_6
REMARK    4  A    between atoms: C_3  and  OXT_5
REMARK    5  A    between atoms: C_7  and  C_8
REMARK    6  A    between atoms: C_8  and  O_10
REMARK                            x       y       z     vdW  Elec       q    Type
REMARK                         _______ _______ _______ _____ _____    ______ ____
ROOT
ATOM      1  C   UNL     1       4.676   4.552  16.598  0.00  0.00    +0.000 C 
ATOM      2  C   UNL     1       4.396   4.585  18.102  0.00  0.00    +0.000 C 
ATOM      3  C   UNL     1       3.707   3.616  17.219  0.00  0.00    +0.000 C 
ATOM      4  F   UNL     1       3.964   2.269  17.321  0.00  0.00    +0.000 F 
ATOM      5  F   UNL     1       2.355   3.754  16.999  0.00  0.00    +0.000 F 
ENDROOT
BRANCH   2   6
ATOM      6  C   UNL     1       5.346   4.078  19.102  0.00  0.00    +0.000 C 
ATOM      7  O   UNL     1       6.302   4.735  19.485  0.00  0.00    +0.000 OA
BRANCH   6   8
ATOM      8  O   UNL     1       5.028   2.869  19.611  0.00  0.00    +0.000 OA
ATOM      9  H   UNL     1       5.270   2.099  19.063  0.00  0.00    +0.000 HD
ENDBRANCH   6   8
ENDBRANCH   2   6
BRANCH   1  10
ATOM     10  CA  UNL     1       5.896   3.967  15.942  0.00  0.00    +0.000 C 
BRANCH  10  11
ATOM     11  N   UNL     1       5.620   4.015  14.484  0.00  0.00    +0.000 NA
ATOM     12  H1  UNL     1       4.606   3.989  14.350  0.00  0.00    +0.000 HD
ATOM     13  H2  UNL     1       5.922   3.118  14.085  0.00  0.00    +0.000 HD
ENDBRANCH  10  11
BRANCH  10  14
ATOM     14  C   UNL     1       7.188   4.759  16.217  0.00  0.00    +0.000 C 
ATOM     15  O   UNL     1       7.430   5.846  15.703  0.00  0.00    +0.000 OA
BRANCH  14  16
ATOM     16  OXT UNL     1       8.052   4.166  17.065  0.00  0.00    +0.000 OA
ATOM     17  HXT UNL     1       8.698   4.780  17.500  0.00  0.00    +0.000 HD
ENDBRANCH  14  16
ENDBRANCH  10  14
ENDBRANCH   1  10
TORSDOF 6
ENDMDL
MODEL 2
REMARK VINA RESULT:      -5.8      1.312      1.953
REMARK  Name = 
REMARK  6 active torsions:
REMARK  status: ('A' for Active; 'I' for Inactive)
REMARK    1  A    between atoms: N_1  and  CA_2
REMARK    2  A    between atoms: CA_2  and  C_3
REMARK    3  A    between atoms: CA_2  and  C_6
REMARK    4  A    between atoms: C_3  and  OXT_5
REMARK    5  A    between atoms: C_7  and  C_8
REMARK    6  A    between atoms: C_8  and  O_10
REMARK                            x       y       z     vdW  Elec       q    Type
REMARK                         _______ _______ _______ _____ _____    ______ ____
ROOT
ATOM      1  C   UNL     1       4.373   4.814  17.793  0.00  0.00    +0.000 C 
ATOM      2  C   UNL     1       3.674   3.983  18.872  0.00  0.00    +0.000 C 
ATOM      3  C   UNL     1       2.987   4.320  17.603  0.00  0.00    +0.000 C 
ATOM      4  F   UNL     1       2.687   3.339  16.687  0.00  0.00    +0.000 F 
ATOM      5  F   UNL     1       1.921   5.189  17.629  0.00  0.00    +0.000 F 
ENDROOT
BRANCH   2   6
ATOM      6  C   UNL     1       4.011   2.579  19.141  0.00  0.00    +0.000 C 
ATOM      7  O   UNL     1       3.312   1.655  18.754  0.00  0.00    +0.000 OA
BRANCH   6   8
ATOM      8  O   UNL     1       5.188   2.399  19.777  0.00  0.00    +0.000 OA
ATOM      9  H   UNL     1       5.780   3.175  19.805  0.00  0.00    +0.000 HD
ENDBRANCH   6   8
ENDBRANCH   2   6
BRANCH   1  10
ATOM     10  CA  UNL     1       5.432   4.317  16.848  0.00  0.00    +0.000 C 
BRANCH  10  11
ATOM     11  N   UNL     1       5.304   5.163  15.635  0.00  0.00    +0.000 NA
ATOM     12  H1  UNL     1       5.866   4.743  14.891  0.00  0.00    +0.000 HD
ATOM     13  H2  UNL     1       5.800   6.043  15.822  0.00  0.00    +0.000 HD
ENDBRANCH  10  11
BRANCH  10  14
ATOM     14  C   UNL     1       6.866   4.462  17.391  0.00  0.00    +0.000 C 
ATOM     15  O   UNL     1       7.128   4.508  18.589  0.00  0.00    +0.000 OA
BRANCH  14  16
ATOM     16  OXT UNL     1       7.827   4.545  16.450  0.00  0.00    +0.000 OA
ATOM     17  HXT UNL     1       7.580   4.168  15.566  0.00  0.00    +0.000 HD
ENDBRANCH  14  16
ENDBRANCH  10  14
ENDBRANCH   1  10
TORSDOF 6
ENDMDL
MODEL 3
REMARK VINA RESULT:      -5.8      0.548      1.042
REMARK  Name = 
REMARK  6 active torsions:
REMARK  status: ('A' for Active; 'I' for Inactive)
REMARK    1  A    between atoms: N_1  and  CA_2
REMARK    2  A    between atoms: CA_2  and  C_3
REMARK    3  A    between atoms: CA_2  and  C_6
REMARK    4  A    between atoms: C_3  and  OXT_5
REMARK    5  A    between atoms: C_7  and  C_8
REMARK    6  A    between atoms: C_8  and  O_10
REMARK                            x       y       z     vdW  Elec       q    Type
REMARK                         _______ _______ _______ _____ _____    ______ ____
ROOT
ATOM      1  C   UNL     1       4.733   5.059  16.821  0.00  0.00    +0.000 C 
ATOM      2  C   UNL     1       4.522   5.114  18.336  0.00  0.00    +0.000 C 
ATOM      3  C   UNL     1       3.602   4.348  17.465  0.00  0.00    +0.000 C 
ATOM      4  F   UNL     1       3.553   2.975  17.531  0.00  0.00    +0.000 F 
ATOM      5  F   UNL     1       2.309   4.790  17.302  0.00  0.00    +0.000 F 
ENDROOT
BRANCH   2   6
ATOM      6  C   UNL     1       5.369   4.381  19.286  0.00  0.00    +0.000 C 
ATOM      7  O   UNL     1       5.110   3.243  19.648  0.00  0.00    +0.000 OA
BRANCH   6   8
ATOM      8  O   UNL     1       6.488   5.038  19.660  0.00  0.00    +0.000 OA
ATOM      9  H   UNL     1       7.066   4.570  20.292  0.00  0.00    +0.000 HD
ENDBRANCH   6   8
ENDBRANCH   2   6
BRANCH   1  10
ATOM     10  CA  UNL     1       5.767   4.234  16.106  0.00  0.00    +0.000 C 
BRANCH  10  11
ATOM     11  N   UNL     1       5.363   4.252  14.677  0.00  0.00    +0.000 NA
ATOM     12  H1  UNL     1       5.708   3.396  14.236  0.00  0.00    +0.000 HD
ATOM     13  H2  UNL     1       5.916   4.982  14.212  0.00  0.00    +0.000 HD
ENDBRANCH  10  11
BRANCH  10  14
ATOM     14  C   UNL     1       7.196   4.799  16.213  0.00  0.00    +0.000 C 
ATOM     15  O   UNL     1       7.585   5.764  15.562  0.00  0.00    +0.000 OA
BRANCH  14  16
ATOM     16  OXT UNL     1       8.003   4.150  17.075  0.00  0.00    +0.000 OA
ATOM     17  HXT UNL     1       8.963   4.151  16.827  0.00  0.00    +0.000 HD
ENDBRANCH  14  16
ENDBRANCH  10  14
ENDBRANCH   1  10
TORSDOF 6
ENDMDL
MODEL 4
REMARK VINA RESULT:      -5.8      2.076      3.682
REMARK  Name = 
REMARK  6 active torsions:
REMARK  status: ('A' for Active; 'I' for Inactive)
REMARK    1  A    between atoms: N_1  and  CA_2
REMARK    2  A    between atoms: CA_2  and  C_3
REMARK    3  A    between atoms: CA_2  and  C_6
REMARK    4  A    between atoms: C_3  and  OXT_5
REMARK    5  A    between atoms: C_7  and  C_8
REMARK    6  A    between atoms: C_8  and  O_10
REMARK                            x       y       z     vdW  Elec       q    Type
REMARK                         _______ _______ _______ _____ _____    ______ ____
ROOT
ATOM      1  C   UNL     1       4.880   3.867  16.648  0.00  0.00    +0.000 C 
ATOM      2  C   UNL     1       6.321   4.052  16.167  0.00  0.00    +0.000 C 
ATOM      3  C   UNL     1       5.193   4.715  15.472  0.00  0.00    +0.000 C 
ATOM      4  F   UNL     1       5.054   6.083  15.507  0.00  0.00    +0.000 F 
ATOM      5  F   UNL     1       4.856   4.308  14.201  0.00  0.00    +0.000 F 
ENDROOT
BRANCH   2   6
ATOM      6  C   UNL     1       7.299   4.885  16.878  0.00  0.00    +0.000 C 
ATOM      7  O   UNL     1       7.564   6.025  16.526  0.00  0.00    +0.000 OA
BRANCH   6   8
ATOM      8  O   UNL     1       7.814   4.316  17.989  0.00  0.00    +0.000 OA
ATOM      9  H   UNL     1       7.189   4.176  18.725  0.00  0.00    +0.000 HD
ENDBRANCH   6   8
ENDBRANCH   2   6
BRANCH   1  10
ATOM     10  CA  UNL     1       4.261   4.530  17.848  0.00  0.00    +0.000 C 
BRANCH  10  11
ATOM     11  N   UNL     1       2.836   4.743  17.486  0.00  0.00    +0.000 NA
ATOM     12  H1  UNL     1       2.260   4.481  18.289  0.00  0.00    +0.000 HD
ATOM     13  H2  UNL     1       2.588   4.032  16.789  0.00  0.00    +0.000 HD
ENDBRANCH  10  11
BRANCH  10  14
ATOM     14  C   UNL     1       4.313   3.673  19.127  0.00  0.00    +0.000 C 
ATOM     15  O   UNL     1       3.377   3.589  19.916  0.00  0.00    +0.000 OA
BRANCH  14  16
ATOM     16  OXT UNL     1       5.475   3.021  19.329  0.00  0.00    +0.000 OA
ATOM     17  HXT UNL     1       6.155   3.529  19.842  0.00  0.00    +0.000 HD
ENDBRANCH  14  16
ENDBRANCH  10  14
ENDBRANCH   1  10
TORSDOF 6
ENDMDL
MODEL 5
REMARK VINA RESULT:      -5.8      3.740      4.717
REMARK  Name = 
REMARK  6 active torsions:
REMARK  status: ('A' for Active; 'I' for Inactive)
REMARK    1  A    between atoms: N_1  and  CA_2
REMARK    2  A    between atoms: CA_2  and  C_3
REMARK    3  A    between atoms: CA_2  and  C_6
REMARK    4  A    between atoms: C_3  and  OXT_5
REMARK    5  A    between atoms: C_7  and  C_8
REMARK    6  A    between atoms: C_8  and  O_10
REMARK                            x       y       z     vdW  Elec       q    Type
REMARK                         _______ _______ _______ _____ _____    ______ ____
ROOT
ATOM      1  C   UNL     1       2.803   3.422  20.399  0.00  0.00    +0.000 C 
ATOM      2  C   UNL     1       1.956   2.212  20.001  0.00  0.00    +0.000 C 
ATOM      3  C   UNL     1       1.392   3.295  20.839  0.00  0.00    +0.000 C 
ATOM      4  F   UNL     1       0.404   4.118  20.349  0.00  0.00    +0.000 F 
ATOM      5  F   UNL     1       1.085   3.035  22.154  0.00  0.00    +0.000 F 
ENDROOT
BRANCH   2   6
ATOM      6  C   UNL     1       1.426   2.020  18.644  0.00  0.00    +0.000 C 
ATOM      7  O   UNL     1       0.250   2.202  18.371  0.00  0.00    +0.000 OA
BRANCH   6   8
ATOM      8  O   UNL     1       2.359   1.706  17.720  0.00  0.00    +0.000 OA
ATOM      9  H   UNL     1       2.209   2.065  16.824  0.00  0.00    +0.000 HD
ENDBRANCH   6   8
ENDBRANCH   2   6
BRANCH   1  10
ATOM     10  CA  UNL     1       3.160   4.579  19.507  0.00  0.00    +0.000 C 
BRANCH  10  11
ATOM     11  N   UNL     1       3.058   5.784  20.367  0.00  0.00    +0.000 NA
ATOM     12  H1  UNL     1       4.005   6.094  20.598  0.00  0.00    +0.000 HD
ATOM     13  H2  UNL     1       2.693   5.480  21.278  0.00  0.00    +0.000 HD
ENDBRANCH  10  11
BRANCH  10  14
ATOM     14  C   UNL     1       4.591   4.507  18.941  0.00  0.00    +0.000 C 
ATOM     15  O   UNL     1       5.343   5.476  18.895  0.00  0.00    +0.000 OA
BRANCH  14  16
ATOM     16  OXT UNL     1       4.964   3.295  18.484  0.00  0.00    +0.000 OA
ATOM     17  HXT UNL     1       4.336   2.883  17.837  0.00  0.00    +0.000 HD
ENDBRANCH  14  16
ENDBRANCH  10  14
ENDBRANCH   1  10
TORSDOF 6
ENDMDL
MODEL 6
REMARK VINA RESULT:      -5.7      3.804      4.836
REMARK  Name = 
REMARK  6 active torsions:
REMARK  status: ('A' for Active; 'I' for Inactive)
REMARK    1  A    between atoms: N_1  and  CA_2
REMARK    2  A    between atoms: CA_2  and  C_3
REMARK    3  A    between atoms: CA_2  and  C_6
REMARK    4  A    between atoms: C_3  and  OXT_5
REMARK    5  A    between atoms: C_7  and  C_8
REMARK    6  A    between atoms: C_8  and  O_10
REMARK                            x       y       z     vdW  Elec       q    Type
REMARK                         _______ _______ _______ _____ _____    ______ ____
ROOT
ATOM      1  C   UNL     1       2.316   2.357  19.474  0.00  0.00    +0.000 C 
ATOM      2  C   UNL     1       1.978   3.048  18.151  0.00  0.00    +0.000 C 
ATOM      3  C   UNL     1       1.026   3.064  19.285  0.00  0.00    +0.000 C 
ATOM      4  F   UNL     1       0.740   4.238  19.944  0.00  0.00    +0.000 F 
ATOM      5  F   UNL     1      -0.153   2.362  19.181  0.00  0.00    +0.000 F 
ENDROOT
BRANCH   2   6
ATOM      6  C   UNL     1       2.597   4.312  17.730  0.00  0.00    +0.000 C 
ATOM      7  O   UNL     1       2.046   5.392  17.887  0.00  0.00    +0.000 OA
BRANCH   6   8
ATOM      8  O   UNL     1       3.846   4.185  17.233  0.00  0.00    +0.000 OA
ATOM      9  H   UNL     1       4.333   3.385  17.507  0.00  0.00    +0.000 HD
ENDBRANCH   6   8
ENDBRANCH   2   6
BRANCH   1  10
ATOM     10  CA  UNL     1       3.257   2.880  20.525  0.00  0.00    +0.000 C 
BRANCH  10  11
ATOM     11  N   UNL     1       2.689   2.428  21.820  0.00  0.00    +0.000 NA
ATOM     12  H1  UNL     1       3.041   3.044  22.556  0.00  0.00    +0.000 HD
ATOM     13  H2  UNL     1       3.127   1.528  22.050  0.00  0.00    +0.000 HD
ENDBRANCH  10  11
BRANCH  10  14
ATOM     14  C   UNL     1       4.690   2.327  20.405  0.00  0.00    +0.000 C 
ATOM     15  O   UNL     1       5.182   1.557  21.224  0.00  0.00    +0.000 OA
BRANCH  14  16
ATOM     16  OXT UNL     1       5.380   2.759  19.331  0.00  0.00    +0.000 OA
ATOM     17  HXT UNL     1       5.152   3.676  19.030  0.00  0.00    +0.000 HD
ENDBRANCH  14  16
ENDBRANCH  10  14
ENDBRANCH   1  10
TORSDOF 6
ENDMDL
MODEL 7
REMARK VINA RESULT:      -5.7      2.152      3.765
REMARK  Name = 
REMARK  6 active torsions:
REMARK  status: ('A' for Active; 'I' for Inactive)
REMARK    1  A    between atoms: N_1  and  CA_2
REMARK    2  A    between atoms: CA_2  and  C_3
REMARK    3  A    between atoms: CA_2  and  C_6
REMARK    4  A    between atoms: C_3  and  OXT_5
REMARK    5  A    between atoms: C_7  and  C_8
REMARK    6  A    between atoms: C_8  and  O_10
REMARK                            x       y       z     vdW  Elec       q    Type
REMARK                         _______ _______ _______ _____ _____    ______ ____
ROOT
ATOM      1  C   UNL     1       4.987   3.816  16.569  0.00  0.00    +0.000 C 
ATOM      2  C   UNL     1       6.440   4.210  16.290  0.00  0.00    +0.000 C 
ATOM      3  C   UNL     1       5.317   4.917  15.630  0.00  0.00    +0.000 C 
ATOM      4  F   UNL     1       5.043   6.231  15.929  0.00  0.00    +0.000 F 
ATOM      5  F   UNL     1       5.134   4.765  14.275  0.00  0.00    +0.000 F 
ENDROOT
BRANCH   2   6
ATOM      6  C   UNL     1       7.266   4.946  17.257  0.00  0.00    +0.000 C 
ATOM      7  O   UNL     1       7.661   4.439  18.296  0.00  0.00    +0.000 OA
BRANCH   6   8
ATOM      8  O   UNL     1       7.611   6.190  16.864  0.00  0.00    +0.000 OA
ATOM      9  H   UNL     1       7.615   6.347  15.900  0.00  0.00    +0.000 HD
ENDBRANCH   6   8
ENDBRANCH   2   6
BRANCH   1  10
ATOM     10  CA  UNL     1       4.204   4.159  17.806  0.00  0.00    +0.000 C 
BRANCH  10  11
ATOM     11  N   UNL     1       2.805   4.348  17.345  0.00  0.00    +0.000 NA
ATOM     12  H1  UNL     1       2.770   4.149  16.342  0.00  0.00    +0.000 HD
ATOM     13  H2  UNL     1       2.604   5.355  17.382  0.00  0.00    +0.000 HD
ENDBRANCH  10  11
BRANCH  10  14
ATOM     14  C   UNL     1       4.216   3.050  18.875  0.00  0.00    +0.000 C 
ATOM     15  O   UNL     1       3.260   2.309  19.083  0.00  0.00    +0.000 OA
BRANCH  14  16
ATOM     16  OXT UNL     1       5.359   2.953  19.583  0.00  0.00    +0.000 OA
ATOM     17  HXT UNL     1       5.696   2.028  19.705  0.00  0.00    +0.000 HD
ENDBRANCH  14  16
ENDBRANCH  10  14
ENDBRANCH   1  10
TORSDOF 6
ENDMDL
MODEL 8
REMARK VINA RESULT:      -5.7      1.813      2.380
REMARK  Name = 
REMARK  6 active torsions:
REMARK  status: ('A' for Active; 'I' for Inactive)
REMARK    1  A    between atoms: N_1  and  CA_2
REMARK    2  A    between atoms: CA_2  and  C_3
REMARK    3  A    between atoms: CA_2  and  C_6
REMARK    4  A    between atoms: C_3  and  OXT_5
REMARK    5  A    between atoms: C_7  and  C_8
REMARK    6  A    between atoms: C_8  and  O_10
REMARK                            x       y       z     vdW  Elec       q    Type
REMARK                         _______ _______ _______ _____ _____    ______ ____
ROOT
ATOM      1  C   UNL     1       5.203   6.157  17.750  0.00  0.00    +0.000 C 
ATOM      2  C   UNL     1       4.701   5.433  19.001  0.00  0.00    +0.000 C 
ATOM      3  C   UNL     1       3.774   6.209  18.145  0.00  0.00    +0.000 C 
ATOM      4  F   UNL     1       2.797   5.575  17.414  0.00  0.00    +0.000 F 
ATOM      5  F   UNL     1       3.221   7.369  18.636  0.00  0.00    +0.000 F 
ENDROOT
BRANCH   2   6
ATOM      6  C   UNL     1       4.544   3.974  19.069  0.00  0.00    +0.000 C 
ATOM      7  O   UNL     1       3.448   3.434  19.052  0.00  0.00    +0.000 OA
BRANCH   6   8
ATOM      8  O   UNL     1       5.706   3.287  19.071  0.00  0.00    +0.000 OA
ATOM      9  H   UNL     1       6.414   3.649  19.637  0.00  0.00    +0.000 HD
ENDBRANCH   6   8
ENDBRANCH   2   6
BRANCH   1  10
ATOM     10  CA  UNL     1       5.546   5.511  16.436  0.00  0.00    +0.000 C 
BRANCH  10  11
ATOM     11  N   UNL     1       5.232   6.530  15.403  0.00  0.00    +0.000 NA
ATOM     12  H1  UNL     1       4.756   6.063  14.627  0.00  0.00    +0.000 HD
ATOM     13  H2  UNL     1       6.121   6.822  14.980  0.00  0.00    +0.000 HD
ENDBRANCH  10  11
BRANCH  10  14
ATOM     14  C   UNL     1       7.032   5.128  16.302  0.00  0.00    +0.000 C 
ATOM     15  O   UNL     1       7.653   4.533  17.178  0.00  0.00    +0.000 OA
BRANCH  14  16
ATOM     16  OXT UNL     1       7.616   5.503  15.147  0.00  0.00    +0.000 OA
ATOM     17  HXT UNL     1       7.635   6.481  14.988  0.00  0.00    +0.000 HD
ENDBRANCH  14  16
ENDBRANCH  10  14
ENDBRANCH   1  10
TORSDOF 6
ENDMDL
MODEL 9
REMARK VINA RESULT:      -5.7      3.127      3.691
REMARK  Name = 
REMARK  6 active torsions:
REMARK  status: ('A' for Active; 'I' for Inactive)
REMARK    1  A    between atoms: N_1  and  CA_2
REMARK    2  A    between atoms: CA_2  and  C_3
REMARK    3  A    between atoms: CA_2  and  C_6
REMARK    4  A    between atoms: C_3  and  OXT_5
REMARK    5  A    between atoms: C_7  and  C_8
REMARK    6  A    between atoms: C_8  and  O_10
REMARK                            x       y       z     vdW  Elec       q    Type
REMARK                         _______ _______ _______ _____ _____    ______ ____
ROOT
ATOM      1  C   UNL     1       2.359   3.417  18.619  0.00  0.00    +0.000 C 
ATOM      2  C   UNL     1       1.475   3.979  19.735  0.00  0.00    +0.000 C 
ATOM      3  C   UNL     1       1.331   2.576  19.281  0.00  0.00    +0.000 C 
ATOM      4  F   UNL     1       1.672   1.532  20.109  0.00  0.00    +0.000 F 
ATOM      5  F   UNL     1       0.189   2.203  18.611  0.00  0.00    +0.000 F 
ENDROOT
BRANCH   2   6
ATOM      6  C   UNL     1       1.972   4.233  21.094  0.00  0.00    +0.000 C 
ATOM      7  O   UNL     1       1.968   3.373  21.962  0.00  0.00    +0.000 OA
BRANCH   6   8
ATOM      8  O   UNL     1       2.499   5.463  21.275  0.00  0.00    +0.000 OA
ATOM      9  H   UNL     1       1.857   6.194  21.350  0.00  0.00    +0.000 HD
ENDBRANCH   6   8
ENDBRANCH   2   6
BRANCH   1  10
ATOM     10  CA  UNL     1       3.799   3.006  18.759  0.00  0.00    +0.000 C 
BRANCH  10  11
ATOM     11  N   UNL     1       3.940   1.784  17.928  0.00  0.00    +0.000 NA
ATOM     12  H1  UNL     1       4.349   1.048  18.509  0.00  0.00    +0.000 HD
ATOM     13  H2  UNL     1       4.681   1.965  17.240  0.00  0.00    +0.000 HD
ENDBRANCH  10  11
BRANCH  10  14
ATOM     14  C   UNL     1       4.797   4.060  18.244  0.00  0.00    +0.000 C 
ATOM     15  O   UNL     1       4.467   5.005  17.534  0.00  0.00    +0.000 OA
BRANCH  14  16
ATOM     16  OXT UNL     1       6.076   3.868  18.623  0.00  0.00    +0.000 OA
ATOM     17  HXT UNL     1       6.754   4.132  17.950  0.00  0.00    +0.000 HD
ENDBRANCH  14  16
ENDBRANCH  10  14
ENDBRANCH   1  10
TORSDOF 6
ENDMDL
