MODEL 1
REMARK VINA RESULT:      -6.7      0.000      0.000
REMARK  Name = 
REMARK  6 active torsions:
REMARK  status: ('A' for Active; 'I' for Inactive)
REMARK    1  A    between atoms: C_1  and  C_2
REMARK    2  A    between atoms: C_3  and  C_4
REMARK    3  A    between atoms: C_4  and  N_5
REMARK    4  A    between atoms: N_5  and  C_6
REMARK    5  A    between atoms: N_5  and  C_7
REMARK    6  A    between atoms: C_7  and  C_8
REMARK                            x       y       z     vdW  Elec       q    Type
REMARK                         _______ _______ _______ _____ _____    ______ ____
ROOT
ATOM      1  C   UNL     1       4.021   4.153  18.345  0.00  0.00    +0.000 A 
ATOM      2  C   UNL     1       3.879   3.002  17.548  0.00  0.00    +0.000 A 
ATOM      3  C   UNL     1       2.766   2.162  17.652  0.00  0.00    +0.000 A 
ATOM      4  C   UNL     1       1.741   2.440  18.565  0.00  0.00    +0.000 A 
ATOM      5  C   UNL     1       1.839   3.592  19.360  0.00  0.00    +0.000 A 
ATOM      6  C   UNL     1       1.035   4.206  20.356  0.00  0.00    +0.000 A 
ATOM      7  C   UNL     1       1.698   5.346  20.746  0.00  0.00    +0.000 A 
ATOM      8  O   UNL     1       2.867   5.470  20.070  0.00  0.00    +0.000 OA
ATOM      9  C   UNL     1       2.962   4.406  19.223  0.00  0.00    +0.000 A 
ENDROOT
BRANCH   1  10
ATOM     10  C   UNL     1       5.245   5.030  18.254  0.00  0.00    +0.000 C 
BRANCH  10  11
ATOM     11  N   UNL     1       6.172   4.658  17.164  0.00  0.00    +0.000 NA
ATOM     12  C   UNL     1       7.541   4.637  17.699  0.00  0.00    +0.000 C 
BRANCH  11  13
ATOM     13  C   UNL     1       6.051   5.617  16.049  0.00  0.00    +0.000 C 
BRANCH  13  16
ATOM     14  C   UNL     1       5.961   3.483  12.793  0.00  0.00    +0.000 C 
ATOM     15  C   UNL     1       6.429   4.192  14.020  0.00  0.00    +0.000 C 
ATOM     16  C   UNL     1       5.619   4.949  14.777  0.00  0.00    +0.000 C 
ENDBRANCH  13  16
ENDBRANCH  11  13
ENDBRANCH  10  11
ENDBRANCH   1  10
TORSDOF 4
ENDMDL
MODEL 2
REMARK VINA RESULT:      -6.5      0.901      1.017
REMARK  Name = 
REMARK  6 active torsions:
REMARK  status: ('A' for Active; 'I' for Inactive)
REMARK    1  A    between atoms: C_1  and  C_2
REMARK    2  A    between atoms: C_3  and  C_4
REMARK    3  A    between atoms: C_4  and  N_5
REMARK    4  A    between atoms: N_5  and  C_6
REMARK    5  A    between atoms: N_5  and  C_7
REMARK    6  A    between atoms: C_7  and  C_8
REMARK                            x       y       z     vdW  Elec       q    Type
REMARK                         _______ _______ _______ _____ _____    ______ ____
ROOT
ATOM      1  C   UNL     1       3.874   4.183  17.594  0.00  0.00    +0.000 A 
ATOM      2  C   UNL     1       3.641   2.808  17.407  0.00  0.00    +0.000 A 
ATOM      3  C   UNL     1       2.751   2.092  18.212  0.00  0.00    +0.000 A 
ATOM      4  C   UNL     1       2.050   2.724  19.247  0.00  0.00    +0.000 A 
ATOM      5  C   UNL     1       2.242   4.100  19.448  0.00  0.00    +0.000 A 
ATOM      6  C   UNL     1       1.729   5.072  20.347  0.00  0.00    +0.000 A 
ATOM      7  C   UNL     1       2.318   6.267  20.007  0.00  0.00    +0.000 A 
ATOM      8  O   UNL     1       3.175   6.097  18.969  0.00  0.00    +0.000 OA
ATOM      9  C   UNL     1       3.135   4.779  18.621  0.00  0.00    +0.000 A 
ENDROOT
BRANCH   1  10
ATOM     10  C   UNL     1       4.867   4.938  16.747  0.00  0.00    +0.000 C 
BRANCH  10  11
ATOM     11  N   UNL     1       6.171   4.258  16.599  0.00  0.00    +0.000 NA
ATOM     12  C   UNL     1       7.070   4.729  17.662  0.00  0.00    +0.000 C 
BRANCH  11  13
ATOM     13  C   UNL     1       6.736   4.535  15.264  0.00  0.00    +0.000 C 
BRANCH  13  16
ATOM     14  C   UNL     1       5.165   3.228  11.949  0.00  0.00    +0.000 C 
ATOM     15  C   UNL     1       6.145   3.625  13.003  0.00  0.00    +0.000 C 
ATOM     16  C   UNL     1       5.776   4.188  14.164  0.00  0.00    +0.000 C 
ENDBRANCH  13  16
ENDBRANCH  11  13
ENDBRANCH  10  11
ENDBRANCH   1  10
TORSDOF 4
ENDMDL
MODEL 3
REMARK VINA RESULT:      -6.5      1.978      3.397
REMARK  Name = 
REMARK  6 active torsions:
REMARK  status: ('A' for Active; 'I' for Inactive)
REMARK    1  A    between atoms: C_1  and  C_2
REMARK    2  A    between atoms: C_3  and  C_4
REMARK    3  A    between atoms: C_4  and  N_5
REMARK    4  A    between atoms: N_5  and  C_6
REMARK    5  A    between atoms: N_5  and  C_7
REMARK    6  A    between atoms: C_7  and  C_8
REMARK                            x       y       z     vdW  Elec       q    Type
REMARK                         _______ _______ _______ _____ _____    ______ ____
ROOT
ATOM      1  C   UNL     1       4.062   4.598  19.304  0.00  0.00    +0.000 A 
ATOM      2  C   UNL     1       3.684   5.931  19.056  0.00  0.00    +0.000 A 
ATOM      3  C   UNL     1       2.534   6.490  19.620  0.00  0.00    +0.000 A 
ATOM      4  C   UNL     1       1.706   5.736  20.460  0.00  0.00    +0.000 A 
ATOM      5  C   UNL     1       2.064   4.409  20.746  0.00  0.00    +0.000 A 
ATOM      6  C   UNL     1       1.519   3.359  21.531  0.00  0.00    +0.000 A 
ATOM      7  C   UNL     1       2.371   2.289  21.400  0.00  0.00    +0.000 A 
ATOM      8  O   UNL     1       3.400   2.599  20.572  0.00  0.00    +0.000 OA
ATOM      9  C   UNL     1       3.221   3.890  20.168  0.00  0.00    +0.000 A 
ENDROOT
BRANCH   1  10
ATOM     10  C   UNL     1       5.283   3.991  18.658  0.00  0.00    +0.000 C 
BRANCH  10  11
ATOM     11  N   UNL     1       5.772   4.734  17.478  0.00  0.00    +0.000 NA
ATOM     12  C   UNL     1       5.404   3.987  16.267  0.00  0.00    +0.000 C 
BRANCH  11  13
ATOM     13  C   UNL     1       7.233   4.917  17.566  0.00  0.00    +0.000 C 
BRANCH  13  16
ATOM     14  C   UNL     1       7.956   8.725  17.941  0.00  0.00    +0.000 C 
ATOM     15  C   UNL     1       7.652   7.382  17.366  0.00  0.00    +0.000 C 
ATOM     16  C   UNL     1       7.599   6.266  18.111  0.00  0.00    +0.000 C 
ENDBRANCH  13  16
ENDBRANCH  11  13
ENDBRANCH  10  11
ENDBRANCH   1  10
TORSDOF 4
ENDMDL
MODEL 4
REMARK VINA RESULT:      -6.4      1.409      2.537
REMARK  Name = 
REMARK  6 active torsions:
REMARK  status: ('A' for Active; 'I' for Inactive)
REMARK    1  A    between atoms: C_1  and  C_2
REMARK    2  A    between atoms: C_3  and  C_4
REMARK    3  A    between atoms: C_4  and  N_5
REMARK    4  A    between atoms: N_5  and  C_6
REMARK    5  A    between atoms: N_5  and  C_7
REMARK    6  A    between atoms: C_7  and  C_8
REMARK                            x       y       z     vdW  Elec       q    Type
REMARK                         _______ _______ _______ _____ _____    ______ ____
ROOT
ATOM      1  C   UNL     1       3.139   5.439  18.471  0.00  0.00    +0.000 A 
ATOM      2  C   UNL     1       2.732   6.310  19.499  0.00  0.00    +0.000 A 
ATOM      3  C   UNL     1       1.826   5.915  20.488  0.00  0.00    +0.000 A 
ATOM      4  C   UNL     1       1.284   4.623  20.490  0.00  0.00    +0.000 A 
ATOM      5  C   UNL     1       1.685   3.722  19.492  0.00  0.00    +0.000 A 
ATOM      6  C   UNL     1       1.387   2.371  19.169  0.00  0.00    +0.000 A 
ATOM      7  C   UNL     1       2.133   2.062  18.056  0.00  0.00    +0.000 A 
ATOM      8  O   UNL     1       2.860   3.136  17.657  0.00  0.00    +0.000 OA
ATOM      9  C   UNL     1       2.593   4.152  18.527  0.00  0.00    +0.000 A 
ENDROOT
BRANCH   1  10
ATOM     10  C   UNL     1       4.085   5.888  17.385  0.00  0.00    +0.000 C 
BRANCH  10  11
ATOM     11  N   UNL     1       5.513   5.798  17.757  0.00  0.00    +0.000 NA
ATOM     12  C   UNL     1       6.216   6.966  17.208  0.00  0.00    +0.000 C 
BRANCH  11  13
ATOM     13  C   UNL     1       6.089   4.541  17.241  0.00  0.00    +0.000 C 
BRANCH  13  16
ATOM     14  C   UNL     1       6.003   3.819  13.416  0.00  0.00    +0.000 C 
ATOM     15  C   UNL     1       6.466   4.178  14.788  0.00  0.00    +0.000 C 
ATOM     16  C   UNL     1       5.636   4.246  15.842  0.00  0.00    +0.000 C 
ENDBRANCH  13  16
ENDBRANCH  11  13
ENDBRANCH  10  11
ENDBRANCH   1  10
TORSDOF 4
ENDMDL
MODEL 5
REMARK VINA RESULT:      -6.3      1.805      5.660
REMARK  Name = 
REMARK  6 active torsions:
REMARK  status: ('A' for Active; 'I' for Inactive)
REMARK    1  A    between atoms: C_1  and  C_2
REMARK    2  A    between atoms: C_3  and  C_4
REMARK    3  A    between atoms: C_4  and  N_5
REMARK    4  A    between atoms: N_5  and  C_6
REMARK    5  A    between atoms: N_5  and  C_7
REMARK    6  A    between atoms: C_7  and  C_8
REMARK                            x       y       z     vdW  Elec       q    Type
REMARK                         _______ _______ _______ _____ _____    ______ ____
ROOT
ATOM      1  C   UNL     1       4.897   4.097  17.232  0.00  0.00    +0.000 A 
ATOM      2  C   UNL     1       5.039   4.095  15.832  0.00  0.00    +0.000 A 
ATOM      3  C   UNL     1       6.125   4.706  15.198  0.00  0.00    +0.000 A 
ATOM      4  C   UNL     1       7.122   5.349  15.942  0.00  0.00    +0.000 A 
ATOM      5  C   UNL     1       7.023   5.350  17.342  0.00  0.00    +0.000 A 
ATOM      6  C   UNL     1       7.805   5.862  18.412  0.00  0.00    +0.000 A 
ATOM      7  C   UNL     1       7.157   5.510  19.572  0.00  0.00    +0.000 A 
ATOM      8  O   UNL     1       6.018   4.829  19.293  0.00  0.00    +0.000 OA
ATOM      9  C   UNL     1       5.928   4.727  17.936  0.00  0.00    +0.000 A 
ENDROOT
BRANCH   1  10
ATOM     10  C   UNL     1       3.700   3.471  17.904  0.00  0.00    +0.000 C 
BRANCH  10  11
ATOM     11  N   UNL     1       2.415   4.121  17.572  0.00  0.00    +0.000 NA
ATOM     12  C   UNL     1       2.438   5.497  18.088  0.00  0.00    +0.000 C 
BRANCH  11  13
ATOM     13  C   UNL     1       1.296   3.354  18.153  0.00  0.00    +0.000 C 
BRANCH  13  16
ATOM     14  C   UNL     1       1.526   2.521  21.950  0.00  0.00    +0.000 C 
ATOM     15  C   UNL     1       1.202   3.186  20.654  0.00  0.00    +0.000 C 
ATOM     16  C   UNL     1       1.661   2.741  19.473  0.00  0.00    +0.000 C 
ENDBRANCH  13  16
ENDBRANCH  11  13
ENDBRANCH  10  11
ENDBRANCH   1  10
TORSDOF 4
ENDMDL
MODEL 6
REMARK VINA RESULT:      -6.3      2.085      5.042
REMARK  Name = 
REMARK  6 active torsions:
REMARK  status: ('A' for Active; 'I' for Inactive)
REMARK    1  A    between atoms: C_1  and  C_2
REMARK    2  A    between atoms: C_3  and  C_4
REMARK    3  A    between atoms: C_4  and  N_5
REMARK    4  A    between atoms: N_5  and  C_6
REMARK    5  A    between atoms: N_5  and  C_7
REMARK    6  A    between atoms: C_7  and  C_8
REMARK                            x       y       z     vdW  Elec       q    Type
REMARK                         _______ _______ _______ _____ _____    ______ ____
ROOT
ATOM      1  C   UNL     1       4.932   3.958  17.478  0.00  0.00    +0.000 A 
ATOM      2  C   UNL     1       4.806   4.056  16.079  0.00  0.00    +0.000 A 
ATOM      3  C   UNL     1       5.634   4.886  15.318  0.00  0.00    +0.000 A 
ATOM      4  C   UNL     1       6.630   5.659  15.926  0.00  0.00    +0.000 A 
ATOM      5  C   UNL     1       6.799   5.570  17.317  0.00  0.00    +0.000 A 
ATOM      6  C   UNL     1       7.670   6.159  18.271  0.00  0.00    +0.000 A 
ATOM      7  C   UNL     1       7.321   5.635  19.494  0.00  0.00    +0.000 A 
ATOM      8  O   UNL     1       6.281   4.774  19.363  0.00  0.00    +0.000 OA
ATOM      9  C   UNL     1       5.956   4.727  18.040  0.00  0.00    +0.000 A 
ENDROOT
BRANCH   1  10
ATOM     10  C   UNL     1       4.007   3.091  18.294  0.00  0.00    +0.000 C 
BRANCH  10  11
ATOM     11  N   UNL     1       3.197   3.837  19.280  0.00  0.00    +0.000 NA
ATOM     12  C   UNL     1       2.966   2.975  20.448  0.00  0.00    +0.000 C 
BRANCH  11  13
ATOM     13  C   UNL     1       1.921   4.258  18.670  0.00  0.00    +0.000 C 
BRANCH  13  16
ATOM     14  C   UNL     1       2.773   7.973  17.868  0.00  0.00    +0.000 C 
ATOM     15  C   UNL     1       2.617   6.666  18.572  0.00  0.00    +0.000 C 
ATOM     16  C   UNL     1       2.030   5.599  18.006  0.00  0.00    +0.000 C 
ENDBRANCH  13  16
ENDBRANCH  11  13
ENDBRANCH  10  11
ENDBRANCH   1  10
TORSDOF 4
ENDMDL
MODEL 7
REMARK VINA RESULT:      -6.2      1.795      3.302
REMARK  Name = 
REMARK  6 active torsions:
REMARK  status: ('A' for Active; 'I' for Inactive)
REMARK    1  A    between atoms: C_1  and  C_2
REMARK    2  A    between atoms: C_3  and  C_4
REMARK    3  A    between atoms: C_4  and  N_5
REMARK    4  A    between atoms: N_5  and  C_6
REMARK    5  A    between atoms: N_5  and  C_7
REMARK    6  A    between atoms: C_7  and  C_8
REMARK                            x       y       z     vdW  Elec       q    Type
REMARK                         _______ _______ _______ _____ _____    ______ ____
ROOT
ATOM      1  C   UNL     1       3.508   4.532  17.745  0.00  0.00    +0.000 A 
ATOM      2  C   UNL     1       3.572   5.907  18.042  0.00  0.00    +0.000 A 
ATOM      3  C   UNL     1       2.824   6.476  19.077  0.00  0.00    +0.000 A 
ATOM      4  C   UNL     1       1.974   5.690  19.865  0.00  0.00    +0.000 A 
ATOM      5  C   UNL     1       1.903   4.311  19.611  0.00  0.00    +0.000 A 
ATOM      6  C   UNL     1       1.198   3.214  20.172  0.00  0.00    +0.000 A 
ATOM      7  C   UNL     1       1.583   2.099  19.465  0.00  0.00    +0.000 A 
ATOM      8  O   UNL     1       2.466   2.435  18.492  0.00  0.00    +0.000 OA
ATOM      9  C   UNL     1       2.667   3.781  18.573  0.00  0.00    +0.000 A 
ENDROOT
BRANCH   1  10
ATOM     10  C   UNL     1       4.288   3.935  16.600  0.00  0.00    +0.000 C 
BRANCH  10  11
ATOM     11  N   UNL     1       5.271   4.858  15.996  0.00  0.00    +0.000 NA
ATOM     12  C   UNL     1       5.483   4.468  14.595  0.00  0.00    +0.000 C 
BRANCH  11  13
ATOM     13  C   UNL     1       6.535   4.816  16.756  0.00  0.00    +0.000 C 
BRANCH  13  16
ATOM     14  C   UNL     1       8.041   8.246  17.818  0.00  0.00    +0.000 C 
ATOM     15  C   UNL     1       7.283   6.961  17.819  0.00  0.00    +0.000 C 
ATOM     16  C   UNL     1       7.237   6.142  16.756  0.00  0.00    +0.000 C 
ENDBRANCH  13  16
ENDBRANCH  11  13
ENDBRANCH  10  11
ENDBRANCH   1  10
TORSDOF 4
ENDMDL
MODEL 8
REMARK VINA RESULT:      -6.2      1.119      1.184
REMARK  Name = 
REMARK  6 active torsions:
REMARK  status: ('A' for Active; 'I' for Inactive)
REMARK    1  A    between atoms: C_1  and  C_2
REMARK    2  A    between atoms: C_3  and  C_4
REMARK    3  A    between atoms: C_4  and  N_5
REMARK    4  A    between atoms: N_5  and  C_6
REMARK    5  A    between atoms: N_5  and  C_7
REMARK    6  A    between atoms: C_7  and  C_8
REMARK                            x       y       z     vdW  Elec       q    Type
REMARK                         _______ _______ _______ _____ _____    ______ ____
ROOT
ATOM      1  C   UNL     1       3.515   4.324  18.630  0.00  0.00    +0.000 A 
ATOM      2  C   UNL     1       3.308   3.606  17.437  0.00  0.00    +0.000 A 
ATOM      3  C   UNL     1       2.481   2.481  17.385  0.00  0.00    +0.000 A 
ATOM      4  C   UNL     1       1.821   2.020  18.531  0.00  0.00    +0.000 A 
ATOM      5  C   UNL     1       1.987   2.725  19.734  0.00  0.00    +0.000 A 
ATOM      6  C   UNL     1       1.499   2.593  21.060  0.00  0.00    +0.000 A 
ATOM      7  C   UNL     1       2.037   3.633  21.780  0.00  0.00    +0.000 A 
ATOM      8  O   UNL     1       2.841   4.391  20.993  0.00  0.00    +0.000 OA
ATOM      9  C   UNL     1       2.816   3.845  19.743  0.00  0.00    +0.000 A 
ENDROOT
BRANCH   1  10
ATOM     10  C   UNL     1       4.441   5.513  18.685  0.00  0.00    +0.000 C 
BRANCH  10  11
ATOM     11  N   UNL     1       5.523   5.480  17.678  0.00  0.00    +0.000 NA
ATOM     12  C   UNL     1       6.782   5.872  18.328  0.00  0.00    +0.000 C 
BRANCH  11  13
ATOM     13  C   UNL     1       5.198   6.386  16.560  0.00  0.00    +0.000 C 
BRANCH  13  16
ATOM     14  C   UNL     1       6.063   3.879  13.709  0.00  0.00    +0.000 C 
ATOM     15  C   UNL     1       5.802   4.475  15.052  0.00  0.00    +0.000 C 
ATOM     16  C   UNL     1       5.527   5.778  15.229  0.00  0.00    +0.000 C 
ENDBRANCH  13  16
ENDBRANCH  11  13
ENDBRANCH  10  11
ENDBRANCH   1  10
TORSDOF 4
ENDMDL
MODEL 9
REMARK VINA RESULT:      -6.2      1.568      2.687
REMARK  Name = 
REMARK  6 active torsions:
REMARK  status: ('A' for Active; 'I' for Inactive)
REMARK    1  A    between atoms: C_1  and  C_2
REMARK    2  A    between atoms: C_3  and  C_4
REMARK    3  A    between atoms: C_4  and  N_5
REMARK    4  A    between atoms: N_5  and  C_6
REMARK    5  A    between atoms: N_5  and  C_7
REMARK    6  A    between atoms: C_7  and  C_8
REMARK                            x       y       z     vdW  Elec       q    Type
REMARK                         _______ _______ _______ _____ _____    ______ ____
ROOT
ATOM      1  C   UNL     1       3.969   3.605  18.511  0.00  0.00    +0.000 A 
ATOM      2  C   UNL     1       3.607   2.533  17.674  0.00  0.00    +0.000 A 
ATOM      3  C   UNL     1       2.334   1.957  17.720  0.00  0.00    +0.000 A 
ATOM      4  C   UNL     1       1.363   2.430  18.611  0.00  0.00    +0.000 A 
ATOM      5  C   UNL     1       1.683   3.512  19.445  0.00  0.00    +0.000 A 
ATOM      6  C   UNL     1       0.998   4.263  20.438  0.00  0.00    +0.000 A 
ATOM      7  C   UNL     1       1.880   5.218  20.882  0.00  0.00    +0.000 A 
ATOM      8  O   UNL     1       3.072   5.100  20.245  0.00  0.00    +0.000 OA
ATOM      9  C   UNL     1       2.961   4.062  19.367  0.00  0.00    +0.000 A 
ENDROOT
BRANCH   1  10
ATOM     10  C   UNL     1       5.358   4.194  18.483  0.00  0.00    +0.000 C 
BRANCH  10  11
ATOM     11  N   UNL     1       5.657   4.972  17.263  0.00  0.00    +0.000 NA
ATOM     12  C   UNL     1       6.979   4.571  16.762  0.00  0.00    +0.000 C 
BRANCH  11  13
ATOM     13  C   UNL     1       5.619   6.416  17.565  0.00  0.00    +0.000 C 
BRANCH  13  16
ATOM     14  C   UNL     1       2.151   8.185  17.654  0.00  0.00    +0.000 C 
ATOM     15  C   UNL     1       3.419   7.512  18.063  0.00  0.00    +0.000 C 
ATOM     16  C   UNL     1       4.309   7.037  17.178  0.00  0.00    +0.000 C 
ENDBRANCH  13  16
ENDBRANCH  11  13
ENDBRANCH  10  11
ENDBRANCH   1  10
TORSDOF 4
ENDMDL
