MODEL 1
REMARK VINA RESULT:      -8.0      0.000      0.000
REMARK  Name = 
REMARK  8 active torsions:
REMARK  status: ('A' for Active; 'I' for Inactive)
REMARK    1  A    between atoms: C_2  and  C_3
REMARK    2  A    between atoms: C_2  and  C_18
REMARK    3  A    between atoms: C_6  and  O_7
REMARK    4  A    between atoms: O_7  and  C_8
REMARK    5  A    between atoms: C_8  and  C_9
REMARK    6  A    between atoms: C_9  and  N_10
REMARK    7  A    between atoms: C_19  and  C_20
REMARK    8  A    between atoms: C_28  and  O_29
REMARK                            x       y       z     vdW  Elec       q    Type
REMARK                         _______ _______ _______ _____ _____    ______ ____
ROOT
ATOM      1  O   UNL     1       1.066  10.751  21.926  0.00  0.00    +0.000 OA
ATOM      2  C   UNL     1       0.587  10.513  20.833  0.00  0.00    +0.000 C 
ENDROOT
BRANCH   2   3
ATOM      3  C   UNL     1      -0.608  11.196  20.324  0.00  0.00    +0.000 A 
ATOM      4  C   UNL     1      -0.736  12.579  20.507  0.00  0.00    +0.000 A 
ATOM      5  S   UNL     1      -2.427  12.721  20.873  0.00  0.00    +0.000 S 
ATOM      6  C   UNL     1      -2.684  11.704  19.465  0.00  0.00    +0.000 A 
ATOM      7  C   UNL     1      -3.816  11.679  18.653  0.00  0.00    +0.000 A 
ATOM      8  C   UNL     1      -3.547  11.516  17.301  0.00  0.00    +0.000 A 
ATOM      9  C   UNL     1      -2.273  11.163  16.850  0.00  0.00    +0.000 A 
ATOM     10  C   UNL     1      -1.248  10.828  17.762  0.00  0.00    +0.000 A 
ATOM     11  C   UNL     1      -1.449  11.108  19.140  0.00  0.00    +0.000 A 
BRANCH   4  12
ATOM     12  C   UNL     1       0.120  13.500  19.653  0.00  0.00    +0.000 A 
ATOM     13  C   UNL     1       1.459  13.208  19.239  0.00  0.00    +0.000 A 
ATOM     14  C   UNL     1       2.097  14.327  18.753  0.00  0.00    +0.000 A 
ATOM     15  S   UNL     1       1.087  15.702  18.719  0.00  0.00    +0.000 S 
ATOM     16  C   UNL     1      -0.203  14.820  19.418  0.00  0.00    +0.000 A 
ENDBRANCH   4  12
BRANCH   8  17
ATOM     17  O   UNL     1      -4.499  11.820  16.373  0.00  0.00    +0.000 OA
ATOM     18  H   UNL     1      -4.294  11.351  15.540  0.00  0.00    +0.000 HD
ENDBRANCH   8  17
ENDBRANCH   2   3
BRANCH   2  19
ATOM     19  C   UNL     1       1.197   9.443  19.922  0.00  0.00    +0.000 A 
ATOM     20  C   UNL     1       1.448   8.169  20.443  0.00  0.00    +0.000 A 
ATOM     21  C   UNL     1       2.093   7.186  19.665  0.00  0.00    +0.000 A 
ATOM     22  C   UNL     1       2.523   7.458  18.366  0.00  0.00    +0.000 A 
ATOM     23  C   UNL     1       2.181   8.685  17.803  0.00  0.00    +0.000 A 
ATOM     24  C   UNL     1       1.534   9.675  18.575  0.00  0.00    +0.000 A 
BRANCH  22  25
ATOM     25  O   UNL     1       3.305   6.628  17.584  0.00  0.00    +0.000 OA
BRANCH  25  26
ATOM     26  C   UNL     1       4.228   5.804  18.315  0.00  0.00    +0.000 C 
BRANCH  26  27
ATOM     27  C   UNL     1       4.183   4.322  17.896  0.00  0.00    +0.000 C 
BRANCH  27  28
ATOM     28  N   UNL     1       3.255   3.504  18.727  0.00  0.00    +0.000 NA
ATOM     29  C   UNL     1       3.321   3.885  20.152  0.00  0.00    +0.000 C 
ATOM     30  C   UNL     1       2.425   2.999  21.016  0.00  0.00    +0.000 C 
ATOM     31  C   UNL     1       0.982   3.042  20.544  0.00  0.00    +0.000 C 
ATOM     32  C   UNL     1       0.908   2.717  19.059  0.00  0.00    +0.000 C 
ATOM     33  C   UNL     1       1.872   3.597  18.237  0.00  0.00    +0.000 C 
ENDBRANCH  27  28
ENDBRANCH  26  27
ENDBRANCH  25  26
ENDBRANCH  22  25
ENDBRANCH   2  19
TORSDOF 8
ENDMDL
MODEL 2
REMARK VINA RESULT:      -7.8      4.346      9.259
REMARK  Name = 
REMARK  8 active torsions:
REMARK  status: ('A' for Active; 'I' for Inactive)
REMARK    1  A    between atoms: C_2  and  C_3
REMARK    2  A    between atoms: C_2  and  C_18
REMARK    3  A    between atoms: C_6  and  O_7
REMARK    4  A    between atoms: O_7  and  C_8
REMARK    5  A    between atoms: C_8  and  C_9
REMARK    6  A    between atoms: C_9  and  N_10
REMARK    7  A    between atoms: C_19  and  C_20
REMARK    8  A    between atoms: C_28  and  O_29
REMARK                            x       y       z     vdW  Elec       q    Type
REMARK                         _______ _______ _______ _____ _____    ______ ____
ROOT
ATOM      1  O   UNL     1       3.506   7.879  17.385  0.00  0.00    +0.000 OA
ATOM      2  C   UNL     1       2.630   7.480  18.130  0.00  0.00    +0.000 C 
ENDROOT
BRANCH   2   3
ATOM      3  C   UNL     1       2.414   6.056  18.411  0.00  0.00    +0.000 A 
ATOM      4  C   UNL     1       3.155   5.099  17.707  0.00  0.00    +0.000 A 
ATOM      5  S   UNL     1       1.959   3.871  17.435  0.00  0.00    +0.000 S 
ATOM      6  C   UNL     1       1.593   4.033  19.144  0.00  0.00    +0.000 A 
ATOM      7  C   UNL     1       1.065   3.050  19.978  0.00  0.00    +0.000 A 
ATOM      8  C   UNL     1       1.593   3.043  21.262  0.00  0.00    +0.000 A 
ATOM      9  C   UNL     1       2.394   4.090  21.724  0.00  0.00    +0.000 A 
ATOM     10  C   UNL     1       2.583   5.255  20.948  0.00  0.00    +0.000 A 
ATOM     11  C   UNL     1       2.169   5.240  19.590  0.00  0.00    +0.000 A 
BRANCH   4  12
ATOM     12  C   UNL     1       4.622   4.919  18.064  0.00  0.00    +0.000 A 
ATOM     13  C   UNL     1       5.236   5.433  19.250  0.00  0.00    +0.000 A 
ATOM     14  C   UNL     1       6.609   5.398  19.169  0.00  0.00    +0.000 A 
ATOM     15  S   UNL     1       7.168   4.689  17.721  0.00  0.00    +0.000 S 
ATOM     16  C   UNL     1       5.566   4.479  17.159  0.00  0.00    +0.000 A 
ENDBRANCH   4  12
BRANCH   8  17
ATOM     17  O   UNL     1       1.439   1.947  22.060  0.00  0.00    +0.000 OA
ATOM     18  H   UNL     1       0.860   1.302  21.607  0.00  0.00    +0.000 HD
ENDBRANCH   8  17
ENDBRANCH   2   3
BRANCH   2  19
ATOM     19  C   UNL     1       1.663   8.460  18.804  0.00  0.00    +0.000 A 
ATOM     20  C   UNL     1       0.974   9.386  18.015  0.00  0.00    +0.000 A 
ATOM     21  C   UNL     1       0.147  10.363  18.605  0.00  0.00    +0.000 A 
ATOM     22  C   UNL     1       0.011  10.454  19.991  0.00  0.00    +0.000 A 
ATOM     23  C   UNL     1       0.606   9.469  20.777  0.00  0.00    +0.000 A 
ATOM     24  C   UNL     1       1.435   8.486  20.193  0.00  0.00    +0.000 A 
BRANCH  22  25
ATOM     25  O   UNL     1      -0.636  11.467  20.674  0.00  0.00    +0.000 OA
BRANCH  25  26
ATOM     26  C   UNL     1      -0.322  11.546  22.074  0.00  0.00    +0.000 C 
BRANCH  26  27
ATOM     27  C   UNL     1      -1.556  11.393  22.983  0.00  0.00    +0.000 C 
BRANCH  27  28
ATOM     28  N   UNL     1      -2.376  12.635  23.073  0.00  0.00    +0.000 NA
ATOM     29  C   UNL     1      -3.549  12.450  23.951  0.00  0.00    +0.000 C 
ATOM     30  C   UNL     1      -4.430  13.699  23.987  0.00  0.00    +0.000 C 
ATOM     31  C   UNL     1      -3.644  14.919  24.437  0.00  0.00    +0.000 C 
ATOM     32  C   UNL     1      -2.395  15.081  23.582  0.00  0.00    +0.000 C 
ATOM     33  C   UNL     1      -1.571  13.778  23.530  0.00  0.00    +0.000 C 
ENDBRANCH  27  28
ENDBRANCH  26  27
ENDBRANCH  25  26
ENDBRANCH  22  25
ENDBRANCH   2  19
TORSDOF 8
ENDMDL
MODEL 3
REMARK VINA RESULT:      -7.8      4.331      9.181
REMARK  Name = 
REMARK  8 active torsions:
REMARK  status: ('A' for Active; 'I' for Inactive)
REMARK    1  A    between atoms: C_2  and  C_3
REMARK    2  A    between atoms: C_2  and  C_18
REMARK    3  A    between atoms: C_6  and  O_7
REMARK    4  A    between atoms: O_7  and  C_8
REMARK    5  A    between atoms: C_8  and  C_9
REMARK    6  A    between atoms: C_9  and  N_10
REMARK    7  A    between atoms: C_19  and  C_20
REMARK    8  A    between atoms: C_28  and  O_29
REMARK                            x       y       z     vdW  Elec       q    Type
REMARK                         _______ _______ _______ _____ _____    ______ ____
ROOT
ATOM      1  O   UNL     1       3.587   7.919  17.494  0.00  0.00    +0.000 OA
ATOM      2  C   UNL     1       2.658   7.530  18.176  0.00  0.00    +0.000 C 
ENDROOT
BRANCH   2   3
ATOM      3  C   UNL     1       2.420   6.109  18.456  0.00  0.00    +0.000 A 
ATOM      4  C   UNL     1       3.141   5.141  17.746  0.00  0.00    +0.000 A 
ATOM      5  S   UNL     1       1.923   3.933  17.478  0.00  0.00    +0.000 S 
ATOM      6  C   UNL     1       1.569   4.098  19.190  0.00  0.00    +0.000 A 
ATOM      7  C   UNL     1       1.029   3.122  20.025  0.00  0.00    +0.000 A 
ATOM      8  C   UNL     1       1.564   3.104  21.305  0.00  0.00    +0.000 A 
ATOM      9  C   UNL     1       2.385   4.137  21.765  0.00  0.00    +0.000 A 
ATOM     10  C   UNL     1       2.589   5.300  20.991  0.00  0.00    +0.000 A 
ATOM     11  C   UNL     1       2.168   5.294  19.635  0.00  0.00    +0.000 A 
BRANCH   4  12
ATOM     12  C   UNL     1       4.606   4.935  18.094  0.00  0.00    +0.000 A 
ATOM     13  C   UNL     1       5.235   5.437  19.277  0.00  0.00    +0.000 A 
ATOM     14  C   UNL     1       6.608   5.378  19.189  0.00  0.00    +0.000 A 
ATOM     15  S   UNL     1       7.146   4.661  17.736  0.00  0.00    +0.000 S 
ATOM     16  C   UNL     1       5.537   4.480  17.183  0.00  0.00    +0.000 A 
ENDBRANCH   4  12
BRANCH   8  17
ATOM     17  O   UNL     1       1.396   2.010  22.102  0.00  0.00    +0.000 OA
ATOM     18  H   UNL     1       1.734   2.212  22.997  0.00  0.00    +0.000 HD
ENDBRANCH   8  17
ENDBRANCH   2   3
BRANCH   2  19
ATOM     19  C   UNL     1       1.646   8.517  18.766  0.00  0.00    +0.000 A 
ATOM     20  C   UNL     1       0.919   9.343  17.903  0.00  0.00    +0.000 A 
ATOM     21  C   UNL     1       0.047  10.328  18.411  0.00  0.00    +0.000 A 
ATOM     22  C   UNL     1      -0.099  10.526  19.784  0.00  0.00    +0.000 A 
ATOM     23  C   UNL     1       0.536   9.638  20.649  0.00  0.00    +0.000 A 
ATOM     24  C   UNL     1       1.411   8.648  20.148  0.00  0.00    +0.000 A 
BRANCH  22  25
ATOM     25  O   UNL     1      -0.792  11.563  20.381  0.00  0.00    +0.000 OA
BRANCH  25  26
ATOM     26  C   UNL     1      -1.007  11.409  21.794  0.00  0.00    +0.000 C 
BRANCH  26  27
ATOM     27  C   UNL     1      -0.884  12.732  22.574  0.00  0.00    +0.000 C 
BRANCH  27  28
ATOM     28  N   UNL     1      -2.180  13.200  23.143  0.00  0.00    +0.000 NA
ATOM     29  C   UNL     1      -2.971  13.951  22.148  0.00  0.00    +0.000 C 
ATOM     30  C   UNL     1      -4.267  14.495  22.750  0.00  0.00    +0.000 C 
ATOM     31  C   UNL     1      -5.115  13.381  23.339  0.00  0.00    +0.000 C 
ATOM     32  C   UNL     1      -4.289  12.556  24.316  0.00  0.00    +0.000 C 
ATOM     33  C   UNL     1      -2.967  12.081  23.681  0.00  0.00    +0.000 C 
ENDBRANCH  27  28
ENDBRANCH  26  27
ENDBRANCH  25  26
ENDBRANCH  22  25
ENDBRANCH   2  19
TORSDOF 8
ENDMDL
MODEL 4
REMARK VINA RESULT:      -7.7      4.193      9.083
REMARK  Name = 
REMARK  8 active torsions:
REMARK  status: ('A' for Active; 'I' for Inactive)
REMARK    1  A    between atoms: C_2  and  C_3
REMARK    2  A    between atoms: C_2  and  C_18
REMARK    3  A    between atoms: C_6  and  O_7
REMARK    4  A    between atoms: O_7  and  C_8
REMARK    5  A    between atoms: C_8  and  C_9
REMARK    6  A    between atoms: C_9  and  N_10
REMARK    7  A    between atoms: C_19  and  C_20
REMARK    8  A    between atoms: C_28  and  O_29
REMARK                            x       y       z     vdW  Elec       q    Type
REMARK                         _______ _______ _______ _____ _____    ______ ____
ROOT
ATOM      1  O   UNL     1       3.553   7.773  17.147  0.00  0.00    +0.000 OA
ATOM      2  C   UNL     1       2.703   7.418  17.942  0.00  0.00    +0.000 C 
ENDROOT
BRANCH   2   3
ATOM      3  C   UNL     1       2.475   6.009  18.283  0.00  0.00    +0.000 A 
ATOM      4  C   UNL     1       3.226   5.018  17.638  0.00  0.00    +0.000 A 
ATOM      5  S   UNL     1       2.030   3.783  17.398  0.00  0.00    +0.000 S 
ATOM      6  C   UNL     1       1.631   4.024  19.090  0.00  0.00    +0.000 A 
ATOM      7  C   UNL     1       1.081   3.081  19.957  0.00  0.00    +0.000 A 
ATOM      8  C   UNL     1       1.583   3.131  21.250  0.00  0.00    +0.000 A 
ATOM      9  C   UNL     1       2.379   4.195  21.681  0.00  0.00    +0.000 A 
ATOM     10  C   UNL     1       2.589   5.323  20.857  0.00  0.00    +0.000 A 
ATOM     11  C   UNL     1       2.203   5.247  19.493  0.00  0.00    +0.000 A 
BRANCH   4  12
ATOM     12  C   UNL     1       4.684   4.849  18.033  0.00  0.00    +0.000 A 
ATOM     13  C   UNL     1       5.261   5.358  19.239  0.00  0.00    +0.000 A 
ATOM     14  C   UNL     1       6.637   5.338  19.195  0.00  0.00    +0.000 A 
ATOM     15  S   UNL     1       7.241   4.647  17.756  0.00  0.00    +0.000 S 
ATOM     16  C   UNL     1       5.656   4.426  17.150  0.00  0.00    +0.000 A 
ENDBRANCH   4  12
BRANCH   8  17
ATOM     17  O   UNL     1       1.408   2.073  22.094  0.00  0.00    +0.000 OA
ATOM     18  H   UNL     1       0.772   1.448  21.693  0.00  0.00    +0.000 HD
ENDBRANCH   8  17
ENDBRANCH   2   3
BRANCH   2  19
ATOM     19  C   UNL     1       1.782   8.438  18.620  0.00  0.00    +0.000 A 
ATOM     20  C   UNL     1       1.672   8.433  20.014  0.00  0.00    +0.000 A 
ATOM     21  C   UNL     1       0.766   9.292  20.669  0.00  0.00    +0.000 A 
ATOM     22  C   UNL     1      -0.064  10.152  19.950  0.00  0.00    +0.000 A 
ATOM     23  C   UNL     1       0.116  10.242  18.571  0.00  0.00    +0.000 A 
ATOM     24  C   UNL     1       1.022   9.385  17.907  0.00  0.00    +0.000 A 
BRANCH  22  25
ATOM     25  O   UNL     1      -1.094  10.908  20.478  0.00  0.00    +0.000 OA
BRANCH  25  26
ATOM     26  C   UNL     1      -1.826  11.685  19.514  0.00  0.00    +0.000 C 
BRANCH  26  27
ATOM     27  C   UNL     1      -2.719  12.763  20.156  0.00  0.00    +0.000 C 
BRANCH  27  28
ATOM     28  N   UNL     1      -2.617  12.802  21.643  0.00  0.00    +0.000 NA
ATOM     29  C   UNL     1      -1.925  14.021  22.109  0.00  0.00    +0.000 C 
ATOM     30  C   UNL     1      -1.754  14.027  23.628  0.00  0.00    +0.000 C 
ATOM     31  C   UNL     1      -3.092  13.897  24.337  0.00  0.00    +0.000 C 
ATOM     32  C   UNL     1      -3.844  12.682  23.815  0.00  0.00    +0.000 C 
ATOM     33  C   UNL     1      -3.939  12.692  22.276  0.00  0.00    +0.000 C 
ENDBRANCH  27  28
ENDBRANCH  26  27
ENDBRANCH  25  26
ENDBRANCH  22  25
ENDBRANCH   2  19
TORSDOF 8
ENDMDL
MODEL 5
REMARK VINA RESULT:      -7.7      4.041      8.980
REMARK  Name = 
REMARK  8 active torsions:
REMARK  status: ('A' for Active; 'I' for Inactive)
REMARK    1  A    between atoms: C_2  and  C_3
REMARK    2  A    between atoms: C_2  and  C_18
REMARK    3  A    between atoms: C_6  and  O_7
REMARK    4  A    between atoms: O_7  and  C_8
REMARK    5  A    between atoms: C_8  and  C_9
REMARK    6  A    between atoms: C_9  and  N_10
REMARK    7  A    between atoms: C_19  and  C_20
REMARK    8  A    between atoms: C_28  and  O_29
REMARK                            x       y       z     vdW  Elec       q    Type
REMARK                         _______ _______ _______ _____ _____    ______ ____
ROOT
ATOM      1  O   UNL     1       3.622   7.903  17.410  0.00  0.00    +0.000 OA
ATOM      2  C   UNL     1       2.684   7.522  18.085  0.00  0.00    +0.000 C 
ENDROOT
BRANCH   2   3
ATOM      3  C   UNL     1       2.440   6.104  18.377  0.00  0.00    +0.000 A 
ATOM      4  C   UNL     1       3.160   5.128  17.676  0.00  0.00    +0.000 A 
ATOM      5  S   UNL     1       1.938   3.922  17.416  0.00  0.00    +0.000 S 
ATOM      6  C   UNL     1       1.580   4.103  19.125  0.00  0.00    +0.000 A 
ATOM      7  C   UNL     1       1.035   3.136  19.966  0.00  0.00    +0.000 A 
ATOM      8  C   UNL     1       1.566   3.127  21.248  0.00  0.00    +0.000 A 
ATOM      9  C   UNL     1       2.389   4.160  21.702  0.00  0.00    +0.000 A 
ATOM     10  C   UNL     1       2.600   5.316  20.918  0.00  0.00    +0.000 A 
ATOM     11  C   UNL     1       2.182   5.300  19.561  0.00  0.00    +0.000 A 
BRANCH   4  12
ATOM     12  C   UNL     1       4.623   4.920  18.031  0.00  0.00    +0.000 A 
ATOM     13  C   UNL     1       5.249   5.422  19.216  0.00  0.00    +0.000 A 
ATOM     14  C   UNL     1       6.621   5.361  19.133  0.00  0.00    +0.000 A 
ATOM     15  S   UNL     1       7.165   4.643  17.683  0.00  0.00    +0.000 S 
ATOM     16  C   UNL     1       5.557   4.463  17.124  0.00  0.00    +0.000 A 
ENDBRANCH   4  12
BRANCH   8  17
ATOM     17  O   UNL     1       1.392   2.039  22.054  0.00  0.00    +0.000 OA
ATOM     18  H   UNL     1       0.469   1.726  21.972  0.00  0.00    +0.000 HD
ENDBRANCH   8  17
ENDBRANCH   2   3
BRANCH   2  19
ATOM     19  C   UNL     1       1.666   8.516  18.653  0.00  0.00    +0.000 A 
ATOM     20  C   UNL     1       1.572   8.675  20.040  0.00  0.00    +0.000 A 
ATOM     21  C   UNL     1       0.586   9.510  20.605  0.00  0.00    +0.000 A 
ATOM     22  C   UNL     1      -0.340  10.180  19.805  0.00  0.00    +0.000 A 
ATOM     23  C   UNL     1      -0.185  10.114  18.422  0.00  0.00    +0.000 A 
ATOM     24  C   UNL     1       0.801   9.281  17.848  0.00  0.00    +0.000 A 
BRANCH  22  25
ATOM     25  O   UNL     1      -1.440  10.884  20.259  0.00  0.00    +0.000 OA
BRANCH  25  26
ATOM     26  C   UNL     1      -1.695  12.116  19.564  0.00  0.00    +0.000 C 
BRANCH  26  27
ATOM     27  C   UNL     1      -2.911  12.884  20.117  0.00  0.00    +0.000 C 
BRANCH  27  28
ATOM     28  N   UNL     1      -4.176  12.584  19.387  0.00  0.00    +0.000 NA
ATOM     29  C   UNL     1      -3.974  11.555  18.348  0.00  0.00    +0.000 C 
ATOM     30  C   UNL     1      -5.252  11.299  17.550  0.00  0.00    +0.000 C 
ATOM     31  C   UNL     1      -6.399  10.887  18.458  0.00  0.00    +0.000 C 
ATOM     32  C   UNL     1      -6.573  11.906  19.575  0.00  0.00    +0.000 C 
ATOM     33  C   UNL     1      -5.244  12.174  20.311  0.00  0.00    +0.000 C 
ENDBRANCH  27  28
ENDBRANCH  26  27
ENDBRANCH  25  26
ENDBRANCH  22  25
ENDBRANCH   2  19
TORSDOF 8
ENDMDL
MODEL 6
REMARK VINA RESULT:      -7.7      1.610      2.779
REMARK  Name = 
REMARK  8 active torsions:
REMARK  status: ('A' for Active; 'I' for Inactive)
REMARK    1  A    between atoms: C_2  and  C_3
REMARK    2  A    between atoms: C_2  and  C_18
REMARK    3  A    between atoms: C_6  and  O_7
REMARK    4  A    between atoms: O_7  and  C_8
REMARK    5  A    between atoms: C_8  and  C_9
REMARK    6  A    between atoms: C_9  and  N_10
REMARK    7  A    between atoms: C_19  and  C_20
REMARK    8  A    between atoms: C_28  and  O_29
REMARK                            x       y       z     vdW  Elec       q    Type
REMARK                         _______ _______ _______ _____ _____    ______ ____
ROOT
ATOM      1  O   UNL     1       1.207  10.702  21.966  0.00  0.00    +0.000 OA
ATOM      2  C   UNL     1       0.702  10.222  20.968  0.00  0.00    +0.000 C 
ENDROOT
BRANCH   2   3
ATOM      3  C   UNL     1      -0.399  10.870  20.246  0.00  0.00    +0.000 A 
ATOM      4  C   UNL     1      -0.431  12.268  20.158  0.00  0.00    +0.000 A 
ATOM      5  S   UNL     1      -2.126  12.586  20.353  0.00  0.00    +0.000 S 
ATOM      6  C   UNL     1      -2.366  11.337  19.143  0.00  0.00    +0.000 A 
ATOM      7  C   UNL     1      -3.440  11.230  18.261  0.00  0.00    +0.000 A 
ATOM      8  C   UNL     1      -3.094  10.794  16.989  0.00  0.00    +0.000 A 
ATOM      9  C   UNL     1      -1.824  10.280  16.716  0.00  0.00    +0.000 A 
ATOM     10  C   UNL     1      -0.892  10.061  17.754  0.00  0.00    +0.000 A 
ATOM     11  C   UNL     1      -1.163  10.612  19.035  0.00  0.00    +0.000 A 
BRANCH   4  12
ATOM     12  C   UNL     1       0.551  12.952  19.220  0.00  0.00    +0.000 A 
ATOM     13  C   UNL     1       1.738  12.342  18.704  0.00  0.00    +0.000 A 
ATOM     14  C   UNL     1       2.587  13.270  18.147  0.00  0.00    +0.000 A 
ATOM     15  S   UNL     1       1.945  14.851  18.169  0.00  0.00    +0.000 S 
ATOM     16  C   UNL     1       0.542  14.312  18.987  0.00  0.00    +0.000 A 
ENDBRANCH   4  12
BRANCH   8  17
ATOM     17  O   UNL     1      -3.955  10.976  15.946  0.00  0.00    +0.000 OA
ATOM     18  H   UNL     1      -4.851  10.698  16.220  0.00  0.00    +0.000 HD
ENDBRANCH   8  17
ENDBRANCH   2   3
BRANCH   2  19
ATOM     19  C   UNL     1       1.172   8.871  20.418  0.00  0.00    +0.000 A 
ATOM     20  C   UNL     1       0.948   7.715  21.172  0.00  0.00    +0.000 A 
ATOM     21  C   UNL     1       1.447   6.467  20.746  0.00  0.00    +0.000 A 
ATOM     22  C   UNL     1       2.199   6.351  19.576  0.00  0.00    +0.000 A 
ATOM     23  C   UNL     1       2.334   7.476  18.765  0.00  0.00    +0.000 A 
ATOM     24  C   UNL     1       1.836   8.729  19.185  0.00  0.00    +0.000 A 
BRANCH  22  25
ATOM     25  O   UNL     1       2.869   5.217  19.157  0.00  0.00    +0.000 OA
BRANCH  25  26
ATOM     26  C   UNL     1       2.852   4.997  17.737  0.00  0.00    +0.000 C 
BRANCH  26  27
ATOM     27  C   UNL     1       4.258   4.829  17.131  0.00  0.00    +0.000 C 
BRANCH  27  28
ATOM     28  N   UNL     1       5.287   5.682  17.791  0.00  0.00    +0.000 NA
ATOM     29  C   UNL     1       6.371   4.871  18.380  0.00  0.00    +0.000 C 
ATOM     30  C   UNL     1       7.389   5.739  19.120  0.00  0.00    +0.000 C 
ATOM     31  C   UNL     1       7.983   6.797  18.205  0.00  0.00    +0.000 C 
ATOM     32  C   UNL     1       6.873   7.596  17.539  0.00  0.00    +0.000 C 
ATOM     33  C   UNL     1       5.841   6.674  16.857  0.00  0.00    +0.000 C 
ENDBRANCH  27  28
ENDBRANCH  26  27
ENDBRANCH  25  26
ENDBRANCH  22  25
ENDBRANCH   2  19
TORSDOF 8
ENDMDL
MODEL 7
REMARK VINA RESULT:      -7.7      3.910      9.079
REMARK  Name = 
REMARK  8 active torsions:
REMARK  status: ('A' for Active; 'I' for Inactive)
REMARK    1  A    between atoms: C_2  and  C_3
REMARK    2  A    between atoms: C_2  and  C_18
REMARK    3  A    between atoms: C_6  and  O_7
REMARK    4  A    between atoms: O_7  and  C_8
REMARK    5  A    between atoms: C_8  and  C_9
REMARK    6  A    between atoms: C_9  and  N_10
REMARK    7  A    between atoms: C_19  and  C_20
REMARK    8  A    between atoms: C_28  and  O_29
REMARK                            x       y       z     vdW  Elec       q    Type
REMARK                         _______ _______ _______ _____ _____    ______ ____
ROOT
ATOM      1  O   UNL     1       3.584   7.886  17.400  0.00  0.00    +0.000 OA
ATOM      2  C   UNL     1       2.675   7.496  18.109  0.00  0.00    +0.000 C 
ENDROOT
BRANCH   2   3
ATOM      3  C   UNL     1       2.444   6.075  18.395  0.00  0.00    +0.000 A 
ATOM      4  C   UNL     1       3.182   5.109  17.699  0.00  0.00    +0.000 A 
ATOM      5  S   UNL     1       1.977   3.890  17.424  0.00  0.00    +0.000 S 
ATOM      6  C   UNL     1       1.600   4.063  19.130  0.00  0.00    +0.000 A 
ATOM      7  C   UNL     1       1.056   3.087  19.963  0.00  0.00    +0.000 A 
ATOM      8  C   UNL     1       1.575   3.082  21.251  0.00  0.00    +0.000 A 
ATOM      9  C   UNL     1       2.382   4.123  21.715  0.00  0.00    +0.000 A 
ATOM     10  C   UNL     1       2.587   5.283  20.936  0.00  0.00    +0.000 A 
ATOM     11  C   UNL     1       2.183   5.266  19.575  0.00  0.00    +0.000 A 
BRANCH   4  12
ATOM     12  C   UNL     1       4.644   4.917  18.068  0.00  0.00    +0.000 A 
ATOM     13  C   UNL     1       5.252   5.423  19.261  0.00  0.00    +0.000 A 
ATOM     14  C   UNL     1       6.626   5.378  19.192  0.00  0.00    +0.000 A 
ATOM     15  S   UNL     1       7.192   4.669  17.746  0.00  0.00    +0.000 S 
ATOM     16  C   UNL     1       5.592   4.473  17.170  0.00  0.00    +0.000 A 
ENDBRANCH   4  12
BRANCH   8  17
ATOM     17  O   UNL     1       1.405   1.991  22.052  0.00  0.00    +0.000 OA
ATOM     18  H   UNL     1       0.625   2.133  22.625  0.00  0.00    +0.000 HD
ENDBRANCH   8  17
ENDBRANCH   2   3
BRANCH   2  19
ATOM     19  C   UNL     1       1.681   8.483  18.729  0.00  0.00    +0.000 A 
ATOM     20  C   UNL     1       0.956   9.336  17.890  0.00  0.00    +0.000 A 
ATOM     21  C   UNL     1       0.101  10.320  18.426  0.00  0.00    +0.000 A 
ATOM     22  C   UNL     1      -0.029  10.493  19.804  0.00  0.00    +0.000 A 
ATOM     23  C   UNL     1       0.604   9.579  20.645  0.00  0.00    +0.000 A 
ATOM     24  C   UNL     1       1.461   8.589  20.116  0.00  0.00    +0.000 A 
BRANCH  22  25
ATOM     25  O   UNL     1      -0.704  11.525  20.429  0.00  0.00    +0.000 OA
BRANCH  25  26
ATOM     26  C   UNL     1      -0.853  12.715  19.635  0.00  0.00    +0.000 C 
BRANCH  26  27
ATOM     27  C   UNL     1       0.048  13.873  20.102  0.00  0.00    +0.000 C 
BRANCH  27  28
ATOM     28  N   UNL     1       1.088  14.247  19.102  0.00  0.00    +0.000 NA
ATOM     29  C   UNL     1       1.455  15.674  19.205  0.00  0.00    +0.000 C 
ATOM     30  C   UNL     1       2.466  16.077  18.133  0.00  0.00    +0.000 C 
ATOM     31  C   UNL     1       3.720  15.222  18.204  0.00  0.00    +0.000 C 
ATOM     32  C   UNL     1       3.350  13.746  18.167  0.00  0.00    +0.000 C 
ATOM     33  C   UNL     1       2.285  13.402  19.228  0.00  0.00    +0.000 C 
ENDBRANCH  27  28
ENDBRANCH  26  27
ENDBRANCH  25  26
ENDBRANCH  22  25
ENDBRANCH   2  19
TORSDOF 8
ENDMDL
MODEL 8
REMARK VINA RESULT:      -7.6      1.443      2.548
REMARK  Name = 
REMARK  8 active torsions:
REMARK  status: ('A' for Active; 'I' for Inactive)
REMARK    1  A    between atoms: C_2  and  C_3
REMARK    2  A    between atoms: C_2  and  C_18
REMARK    3  A    between atoms: C_6  and  O_7
REMARK    4  A    between atoms: O_7  and  C_8
REMARK    5  A    between atoms: C_8  and  C_9
REMARK    6  A    between atoms: C_9  and  N_10
REMARK    7  A    between atoms: C_19  and  C_20
REMARK    8  A    between atoms: C_28  and  O_29
REMARK                            x       y       z     vdW  Elec       q    Type
REMARK                         _______ _______ _______ _____ _____    ______ ____
ROOT
ATOM      1  O   UNL     1       0.560  10.448  22.697  0.00  0.00    +0.000 OA
ATOM      2  C   UNL     1       0.283  10.266  21.526  0.00  0.00    +0.000 C 
ENDROOT
BRANCH   2   3
ATOM      3  C   UNL     1      -0.705  11.081  20.808  0.00  0.00    +0.000 A 
ATOM      4  C   UNL     1      -0.581  12.476  20.822  0.00  0.00    +0.000 A 
ATOM      5  S   UNL     1      -2.240  12.967  20.970  0.00  0.00    +0.000 S 
ATOM      6  C   UNL     1      -2.554  11.839  19.662  0.00  0.00    +0.000 A 
ATOM      7  C   UNL     1      -3.587  11.913  18.731  0.00  0.00    +0.000 A 
ATOM      8  C   UNL     1      -3.229  11.530  17.446  0.00  0.00    +0.000 A 
ATOM      9  C   UNL     1      -2.010  10.898  17.188  0.00  0.00    +0.000 A 
ATOM     10  C   UNL     1      -1.160  10.505  18.246  0.00  0.00    +0.000 A 
ATOM     11  C   UNL     1      -1.432  10.993  19.551  0.00  0.00    +0.000 A 
BRANCH   4  12
ATOM     12  C   UNL     1       0.514  13.110  19.979  0.00  0.00    +0.000 A 
ATOM     13  C   UNL     1       1.912  12.847  20.137  0.00  0.00    +0.000 A 
ATOM     14  C   UNL     1       2.682  13.773  19.470  0.00  0.00    +0.000 A 
ATOM     15  S   UNL     1       1.749  14.906  18.600  0.00  0.00    +0.000 S 
ATOM     16  C   UNL     1       0.295  14.200  19.162  0.00  0.00    +0.000 A 
ENDBRANCH   4  12
BRANCH   8  17
ATOM     17  O   UNL     1      -4.013  11.877  16.385  0.00  0.00    +0.000 OA
ATOM     18  H   UNL     1      -4.872  12.206  16.717  0.00  0.00    +0.000 HD
ENDBRANCH   8  17
ENDBRANCH   2   3
BRANCH   2  19
ATOM     19  C   UNL     1       0.937   9.134  20.728  0.00  0.00    +0.000 A 
ATOM     20  C   UNL     1       1.069   7.873  21.319  0.00  0.00    +0.000 A 
ATOM     21  C   UNL     1       1.747   6.831  20.654  0.00  0.00    +0.000 A 
ATOM     22  C   UNL     1       2.328   7.031  19.402  0.00  0.00    +0.000 A 
ATOM     23  C   UNL     1       2.108   8.248  18.760  0.00  0.00    +0.000 A 
ATOM     24  C   UNL     1       1.429   9.296  19.419  0.00  0.00    +0.000 A 
BRANCH  22  25
ATOM     25  O   UNL     1       3.150   6.136  18.742  0.00  0.00    +0.000 OA
BRANCH  25  26
ATOM     26  C   UNL     1       3.298   4.862  19.390  0.00  0.00    +0.000 C 
BRANCH  26  27
ATOM     27  C   UNL     1       4.512   4.060  18.886  0.00  0.00    +0.000 C 
BRANCH  27  28
ATOM     28  N   UNL     1       5.138   4.648  17.667  0.00  0.00    +0.000 NA
ATOM     29  C   UNL     1       6.593   4.836  17.838  0.00  0.00    +0.000 C 
ATOM     30  C   UNL     1       7.224   5.506  16.618  0.00  0.00    +0.000 C 
ATOM     31  C   UNL     1       6.958   4.711  15.350  0.00  0.00    +0.000 C 
ATOM     32  C   UNL     1       5.467   4.452  15.198  0.00  0.00    +0.000 C 
ATOM     33  C   UNL     1       4.866   3.830  16.475  0.00  0.00    +0.000 C 
ENDBRANCH  27  28
ENDBRANCH  26  27
ENDBRANCH  25  26
ENDBRANCH  22  25
ENDBRANCH   2  19
TORSDOF 8
ENDMDL
MODEL 9
REMARK VINA RESULT:      -7.6      3.947      9.178
REMARK  Name = 
REMARK  8 active torsions:
REMARK  status: ('A' for Active; 'I' for Inactive)
REMARK    1  A    between atoms: C_2  and  C_3
REMARK    2  A    between atoms: C_2  and  C_18
REMARK    3  A    between atoms: C_6  and  O_7
REMARK    4  A    between atoms: O_7  and  C_8
REMARK    5  A    between atoms: C_8  and  C_9
REMARK    6  A    between atoms: C_9  and  N_10
REMARK    7  A    between atoms: C_19  and  C_20
REMARK    8  A    between atoms: C_28  and  O_29
REMARK                            x       y       z     vdW  Elec       q    Type
REMARK                         _______ _______ _______ _____ _____    ______ ____
ROOT
ATOM      1  O   UNL     1       3.570   7.784  17.142  0.00  0.00    +0.000 OA
ATOM      2  C   UNL     1       2.709   7.430  17.925  0.00  0.00    +0.000 C 
ENDROOT
BRANCH   2   3
ATOM      3  C   UNL     1       2.480   6.022  18.270  0.00  0.00    +0.000 A 
ATOM      4  C   UNL     1       3.234   5.029  17.632  0.00  0.00    +0.000 A 
ATOM      5  S   UNL     1       2.039   3.793  17.390  0.00  0.00    +0.000 S 
ATOM      6  C   UNL     1       1.632   4.040  19.080  0.00  0.00    +0.000 A 
ATOM      7  C   UNL     1       1.079   3.100  19.947  0.00  0.00    +0.000 A 
ATOM      8  C   UNL     1       1.575   3.154  21.243  0.00  0.00    +0.000 A 
ATOM      9  C   UNL     1       2.369   4.220  21.673  0.00  0.00    +0.000 A 
ATOM     10  C   UNL     1       2.583   5.345  20.847  0.00  0.00    +0.000 A 
ATOM     11  C   UNL     1       2.202   5.264  19.481  0.00  0.00    +0.000 A 
BRANCH   4  12
ATOM     12  C   UNL     1       4.690   4.861  18.033  0.00  0.00    +0.000 A 
ATOM     13  C   UNL     1       5.259   5.367  19.245  0.00  0.00    +0.000 A 
ATOM     14  C   UNL     1       6.635   5.349  19.208  0.00  0.00    +0.000 A 
ATOM     15  S   UNL     1       7.249   4.665  17.769  0.00  0.00    +0.000 S 
ATOM     16  C   UNL     1       5.668   4.444  17.154  0.00  0.00    +0.000 A 
ENDBRANCH   4  12
BRANCH   8  17
ATOM     17  O   UNL     1       1.396   2.099  22.089  0.00  0.00    +0.000 OA
ATOM     18  H   UNL     1       0.520   1.699  21.920  0.00  0.00    +0.000 HD
ENDBRANCH   8  17
ENDBRANCH   2   3
BRANCH   2  19
ATOM     19  C   UNL     1       1.776   8.451  18.585  0.00  0.00    +0.000 A 
ATOM     20  C   UNL     1       1.670   8.474  19.979  0.00  0.00    +0.000 A 
ATOM     21  C   UNL     1       0.754   9.334  20.619  0.00  0.00    +0.000 A 
ATOM     22  C   UNL     1      -0.090  10.167  19.885  0.00  0.00    +0.000 A 
ATOM     23  C   UNL     1       0.084  10.229  18.504  0.00  0.00    +0.000 A 
ATOM     24  C   UNL     1       1.000   9.372  17.855  0.00  0.00    +0.000 A 
BRANCH  22  25
ATOM     25  O   UNL     1      -1.130  10.919  20.400  0.00  0.00    +0.000 OA
BRANCH  25  26
ATOM     26  C   UNL     1      -1.619  11.949  19.525  0.00  0.00    +0.000 C 
BRANCH  26  27
ATOM     27  C   UNL     1      -1.410  13.370  20.082  0.00  0.00    +0.000 C 
BRANCH  27  28
ATOM     28  N   UNL     1      -0.475  14.190  19.260  0.00  0.00    +0.000 NA
ATOM     29  C   UNL     1      -0.678  15.635  19.485  0.00  0.00    +0.000 C 
ATOM     30  C   UNL     1       0.229  16.480  18.589  0.00  0.00    +0.000 C 
ATOM     31  C   UNL     1       1.693  16.132  18.798  0.00  0.00    +0.000 C 
ATOM     32  C   UNL     1       1.903  14.633  18.636  0.00  0.00    +0.000 C 
ATOM     33  C   UNL     1       0.926  13.825  19.515  0.00  0.00    +0.000 C 
ENDBRANCH  27  28
ENDBRANCH  26  27
ENDBRANCH  25  26
ENDBRANCH  22  25
ENDBRANCH   2  19
TORSDOF 8
ENDMDL
