MODEL 1
REMARK VINA RESULT:      -7.7      0.000      0.000
REMARK  Name = 
REMARK  11 active torsions:
REMARK  status: ('A' for Active; 'I' for Inactive)
REMARK    1  A    between atoms: C_1  and  C_2
REMARK    2  A    between atoms: C_6  and  N_7
REMARK    3  A    between atoms: C_10  and  C_11
REMARK    4  A    between atoms: N_13  and  C_14
REMARK    5  A    between atoms: C_14  and  C_15
REMARK    6  A    between atoms: C_21  and  C_22
REMARK    7  A    between atoms: C_26  and  O_28
REMARK    8  A    between atoms: O_28  and  C_29
REMARK    9  A    between atoms: C_29  and  C_30
REMARK   10  A    between atoms: C_29  and  C_31
REMARK   11  A    between atoms: C_29  and  C_32
REMARK                            x       y       z     vdW  Elec       q    Type
REMARK                         _______ _______ _______ _____ _____    ______ ____
ROOT
ATOM      1  N   UNL     1      -0.194  11.082  21.759  0.00  0.00    +0.000 N 
ATOM      2  N   UNL     1       0.328  10.337  22.776  0.00  0.00    +0.000 NA
ATOM      3  C   UNL     1       0.931   9.312  22.197  0.00  0.00    +0.000 A 
ATOM      4  C   UNL     1       0.953   9.421  20.799  0.00  0.00    +0.000 A 
ATOM      5  C   UNL     1       0.286  10.629  20.507  0.00  0.00    +0.000 A 
ENDROOT
BRANCH   5   6
ATOM      6  C   UNL     1       0.282  11.267  19.105  0.00  0.00    +0.000 C 
ATOM      7  C   UNL     1       1.589  12.045  18.802  0.00  0.00    +0.000 C 
ATOM      8  C   UNL     1       1.577  13.473  19.334  0.00  0.00    +0.000 C 
ATOM      9  N   UNL     1       0.381  14.209  18.948  0.00  0.00    +0.000 N 
ATOM     10  C   UNL     1       0.455  15.596  18.993  0.00  0.00    +0.000 C 
ATOM     11  O   UNL     1       1.517  16.203  18.953  0.00  0.00    +0.000 OA
ATOM     12  C   UNL     1      -0.879  13.533  19.166  0.00  0.00    +0.000 C 
ATOM     13  C   UNL     1      -0.866  12.124  18.589  0.00  0.00    +0.000 C 
BRANCH  10  14
ATOM     14  O   UNL     1      -0.766  16.190  19.130  0.00  0.00    +0.000 OA
BRANCH  14  15
ATOM     15  C   UNL     1      -1.005  17.100  20.234  0.00  0.00    +0.000 C 
ATOM     16  C   UNL     1      -1.006  18.547  19.734  0.00  0.00    +0.000 C 
ATOM     17  C   UNL     1      -2.409  16.769  20.769  0.00  0.00    +0.000 C 
ATOM     18  C   UNL     1      -0.008  16.869  21.378  0.00  0.00    +0.000 C 
ENDBRANCH  14  15
ENDBRANCH  10  14
ENDBRANCH   5   6
BRANCH   1  24
ATOM     19  C   UNL     1      -4.756  12.868  22.483  0.00  0.00    +0.000 C 
ATOM     20  C   UNL     1      -3.269  12.993  22.636  0.00  0.00    +0.000 A 
ATOM     21  C   UNL     1      -2.717  14.036  23.381  0.00  0.00    +0.000 A 
ATOM     22  C   UNL     1      -1.339  14.246  23.368  0.00  0.00    +0.000 A 
ATOM     23  C   UNL     1      -0.500  13.359  22.685  0.00  0.00    +0.000 A 
ATOM     24  C   UNL     1      -1.017  12.184  22.147  0.00  0.00    +0.000 A 
ATOM     25  C   UNL     1      -2.412  12.070  22.014  0.00  0.00    +0.000 A 
ENDBRANCH   1  24
BRANCH   4  26
ATOM     26  C   UNL     1       1.563   8.492  19.849  0.00  0.00    +0.000 C 
ATOM     27  O   UNL     1       1.572   8.704  18.639  0.00  0.00    +0.000 OA
ATOM     28  N   UNL     1       2.156   7.380  20.402  0.00  0.00    +0.000 N 
ATOM     29  H   UNL     1       2.359   7.353  21.393  0.00  0.00    +0.000 HD
BRANCH  28  30
ATOM     30  C   UNL     1       2.840   6.405  19.569  0.00  0.00    +0.000 C 
BRANCH  30  31
ATOM     31  C   UNL     1       2.112   5.082  19.468  0.00  0.00    +0.000 A 
ATOM     32  C   UNL     1       1.474   4.538  20.581  0.00  0.00    +0.000 A 
ATOM     33  C   UNL     1       0.855   3.296  20.466  0.00  0.00    +0.000 A 
ATOM     34  C   UNL     1       0.882   2.632  19.246  0.00  0.00    +0.000 A 
ATOM     35  C   UNL     1       1.520   3.247  18.184  0.00  0.00    +0.000 A 
ATOM     36  N   UNL     1       2.126   4.455  18.262  0.00  0.00    +0.000 NA
ENDBRANCH  30  31
ENDBRANCH  28  30
ENDBRANCH   4  26
TORSDOF 7
ENDMDL
MODEL 2
REMARK VINA RESULT:      -7.6      0.794      1.427
REMARK  Name = 
REMARK  11 active torsions:
REMARK  status: ('A' for Active; 'I' for Inactive)
REMARK    1  A    between atoms: C_1  and  C_2
REMARK    2  A    between atoms: C_6  and  N_7
REMARK    3  A    between atoms: C_10  and  C_11
REMARK    4  A    between atoms: N_13  and  C_14
REMARK    5  A    between atoms: C_14  and  C_15
REMARK    6  A    between atoms: C_21  and  C_22
REMARK    7  A    between atoms: C_26  and  O_28
REMARK    8  A    between atoms: O_28  and  C_29
REMARK    9  A    between atoms: C_29  and  C_30
REMARK   10  A    between atoms: C_29  and  C_31
REMARK   11  A    between atoms: C_29  and  C_32
REMARK                            x       y       z     vdW  Elec       q    Type
REMARK                         _______ _______ _______ _____ _____    ______ ____
ROOT
ATOM      1  N   UNL     1      -0.466  11.020  22.249  0.00  0.00    +0.000 N 
ATOM      2  N   UNL     1       0.074  10.214  23.207  0.00  0.00    +0.000 NA
ATOM      3  C   UNL     1       0.711   9.257  22.552  0.00  0.00    +0.000 A 
ATOM      4  C   UNL     1       0.735   9.476  21.168  0.00  0.00    +0.000 A 
ATOM      5  C   UNL     1       0.032  10.683  20.968  0.00  0.00    +0.000 A 
ENDROOT
BRANCH   5   6
ATOM      6  C   UNL     1       0.014  11.428  19.620  0.00  0.00    +0.000 C 
ATOM      7  C   UNL     1       1.262  12.328  19.422  0.00  0.00    +0.000 C 
ATOM      8  C   UNL     1       1.120  13.703  20.063  0.00  0.00    +0.000 C 
ATOM      9  N   UNL     1      -0.121  14.372  19.695  0.00  0.00    +0.000 N 
ATOM     10  C   UNL     1      -0.161  15.752  19.851  0.00  0.00    +0.000 C 
ATOM     11  O   UNL     1       0.851  16.442  19.893  0.00  0.00    +0.000 OA
ATOM     12  C   UNL     1      -1.328  13.584  19.819  0.00  0.00    +0.000 C 
ATOM     13  C   UNL     1      -1.185  12.231  19.134  0.00  0.00    +0.000 C 
BRANCH  10  14
ATOM     14  O   UNL     1      -1.428  16.237  19.993  0.00  0.00    +0.000 OA
BRANCH  14  15
ATOM     15  C   UNL     1      -1.738  17.584  19.553  0.00  0.00    +0.000 C 
ATOM     16  C   UNL     1      -1.181  17.820  18.146  0.00  0.00    +0.000 C 
ATOM     17  C   UNL     1      -3.274  17.674  19.490  0.00  0.00    +0.000 C 
ATOM     18  C   UNL     1      -1.255  18.631  20.565  0.00  0.00    +0.000 C 
ENDBRANCH  14  15
ENDBRANCH  10  14
ENDBRANCH   5   6
BRANCH   1  24
ATOM     19  C   UNL     1      -0.949  15.736  23.684  0.00  0.00    +0.000 C 
ATOM     20  C   UNL     1      -1.562  14.429  23.279  0.00  0.00    +0.000 A 
ATOM     21  C   UNL     1      -2.942  14.316  23.104  0.00  0.00    +0.000 A 
ATOM     22  C   UNL     1      -3.517  13.062  22.905  0.00  0.00    +0.000 A 
ATOM     23  C   UNL     1      -2.707  11.928  22.789  0.00  0.00    +0.000 A 
ATOM     24  C   UNL     1      -1.324  12.064  22.717  0.00  0.00    +0.000 A 
ATOM     25  C   UNL     1      -0.755  13.295  23.089  0.00  0.00    +0.000 A 
ENDBRANCH   1  24
BRANCH   4  26
ATOM     26  C   UNL     1       1.376   8.644  20.151  0.00  0.00    +0.000 C 
ATOM     27  O   UNL     1       1.466   8.995  18.978  0.00  0.00    +0.000 OA
ATOM     28  N   UNL     1       1.903   7.454  20.603  0.00  0.00    +0.000 N 
ATOM     29  H   UNL     1       2.044   7.305  21.593  0.00  0.00    +0.000 HD
BRANCH  28  30
ATOM     30  C   UNL     1       2.610   6.560  19.701  0.00  0.00    +0.000 C 
BRANCH  30  31
ATOM     31  C   UNL     1       2.000   5.178  19.622  0.00  0.00    +0.000 A 
ATOM     32  C   UNL     1       1.601   4.512  20.780  0.00  0.00    +0.000 A 
ATOM     33  C   UNL     1       1.088   3.221  20.677  0.00  0.00    +0.000 A 
ATOM     34  C   UNL     1       0.980   2.630  19.424  0.00  0.00    +0.000 A 
ATOM     35  C   UNL     1       1.381   3.364  18.321  0.00  0.00    +0.000 A 
ATOM     36  N   UNL     1       1.878   4.621  18.389  0.00  0.00    +0.000 NA
ENDBRANCH  30  31
ENDBRANCH  28  30
ENDBRANCH   4  26
TORSDOF 7
ENDMDL
MODEL 3
REMARK VINA RESULT:      -7.3      0.873      1.797
REMARK  Name = 
REMARK  11 active torsions:
REMARK  status: ('A' for Active; 'I' for Inactive)
REMARK    1  A    between atoms: C_1  and  C_2
REMARK    2  A    between atoms: C_6  and  N_7
REMARK    3  A    between atoms: C_10  and  C_11
REMARK    4  A    between atoms: N_13  and  C_14
REMARK    5  A    between atoms: C_14  and  C_15
REMARK    6  A    between atoms: C_21  and  C_22
REMARK    7  A    between atoms: C_26  and  O_28
REMARK    8  A    between atoms: O_28  and  C_29
REMARK    9  A    between atoms: C_29  and  C_30
REMARK   10  A    between atoms: C_29  and  C_31
REMARK   11  A    between atoms: C_29  and  C_32
REMARK                            x       y       z     vdW  Elec       q    Type
REMARK                         _______ _______ _______ _____ _____    ______ ____
ROOT
ATOM      1  N   UNL     1      -0.063  11.132  21.679  0.00  0.00    +0.000 N 
ATOM      2  N   UNL     1       0.434  10.378  22.701  0.00  0.00    +0.000 NA
ATOM      3  C   UNL     1       1.000   9.328  22.128  0.00  0.00    +0.000 A 
ATOM      4  C   UNL     1       1.023   9.425  20.730  0.00  0.00    +0.000 A 
ATOM      5  C   UNL     1       0.398  10.654  20.429  0.00  0.00    +0.000 A 
ENDROOT
BRANCH   5   6
ATOM      6  C   UNL     1       0.414  11.280  19.023  0.00  0.00    +0.000 C 
ATOM      7  C   UNL     1       1.712  12.084  18.745  0.00  0.00    +0.000 C 
ATOM      8  C   UNL     1       1.656  13.516  19.264  0.00  0.00    +0.000 C 
ATOM      9  N   UNL     1       0.453  14.222  18.843  0.00  0.00    +0.000 N 
ATOM     10  C   UNL     1       0.496  15.611  18.879  0.00  0.00    +0.000 C 
ATOM     11  O   UNL     1       1.546  16.240  18.859  0.00  0.00    +0.000 OA
ATOM     12  C   UNL     1      -0.797  13.521  19.037  0.00  0.00    +0.000 C 
ATOM     13  C   UNL     1      -0.738  12.108  18.472  0.00  0.00    +0.000 C 
BRANCH  10  14
ATOM     14  O   UNL     1      -0.740  16.180  18.981  0.00  0.00    +0.000 OA
BRANCH  14  15
ATOM     15  C   UNL     1      -0.888  17.614  18.823  0.00  0.00    +0.000 C 
ATOM     16  C   UNL     1       0.011  18.351  19.820  0.00  0.00    +0.000 C 
ATOM     17  C   UNL     1      -0.406  17.942  17.398  0.00  0.00    +0.000 C 
ATOM     18  C   UNL     1      -2.358  18.042  18.923  0.00  0.00    +0.000 C 
ENDBRANCH  14  15
ENDBRANCH  10  14
ENDBRANCH   5   6
BRANCH   1  24
ATOM     19  C   UNL     1      -0.229  15.984  22.663  0.00  0.00    +0.000 C 
ATOM     20  C   UNL     1      -0.929  14.684  22.396  0.00  0.00    +0.000 A 
ATOM     21  C   UNL     1      -2.317  14.641  22.257  0.00  0.00    +0.000 A 
ATOM     22  C   UNL     1      -2.970  13.411  22.189  0.00  0.00    +0.000 A 
ATOM     23  C   UNL     1      -2.232  12.223  22.167  0.00  0.00    +0.000 A 
ATOM     24  C   UNL     1      -0.846  12.266  22.059  0.00  0.00    +0.000 A 
ATOM     25  C   UNL     1      -0.196  13.490  22.302  0.00  0.00    +0.000 A 
ENDBRANCH   1  24
BRANCH   4  26
ATOM     26  C   UNL     1       1.598   8.468  19.785  0.00  0.00    +0.000 C 
ATOM     27  O   UNL     1       1.545   8.634  18.570  0.00  0.00    +0.000 OA
ATOM     28  N   UNL     1       2.232   7.384  20.350  0.00  0.00    +0.000 N 
ATOM     29  H   UNL     1       2.484   7.397  21.330  0.00  0.00    +0.000 HD
BRANCH  28  30
ATOM     30  C   UNL     1       2.888   6.387  19.521  0.00  0.00    +0.000 C 
BRANCH  30  31
ATOM     31  C   UNL     1       2.185   5.047  19.521  0.00  0.00    +0.000 A 
ATOM     32  C   UNL     1       1.982   4.353  18.329  0.00  0.00    +0.000 A 
ATOM     33  C   UNL     1       1.288   3.146  18.358  0.00  0.00    +0.000 A 
ATOM     34  C   UNL     1       0.821   2.658  19.572  0.00  0.00    +0.000 A 
ATOM     35  C   UNL     1       1.079   3.397  20.714  0.00  0.00    +0.000 A 
ATOM     36  N   UNL     1       1.754   4.570  20.719  0.00  0.00    +0.000 NA
ENDBRANCH  30  31
ENDBRANCH  28  30
ENDBRANCH   4  26
TORSDOF 7
ENDMDL
MODEL 4
REMARK VINA RESULT:      -7.3      0.788      1.082
REMARK  Name = 
REMARK  11 active torsions:
REMARK  status: ('A' for Active; 'I' for Inactive)
REMARK    1  A    between atoms: C_1  and  C_2
REMARK    2  A    between atoms: C_6  and  N_7
REMARK    3  A    between atoms: C_10  and  C_11
REMARK    4  A    between atoms: N_13  and  C_14
REMARK    5  A    between atoms: C_14  and  C_15
REMARK    6  A    between atoms: C_21  and  C_22
REMARK    7  A    between atoms: C_26  and  O_28
REMARK    8  A    between atoms: O_28  and  C_29
REMARK    9  A    between atoms: C_29  and  C_30
REMARK   10  A    between atoms: C_29  and  C_31
REMARK   11  A    between atoms: C_29  and  C_32
REMARK                            x       y       z     vdW  Elec       q    Type
REMARK                         _______ _______ _______ _____ _____    ______ ____
ROOT
ATOM      1  N   UNL     1      -0.378  11.125  21.956  0.00  0.00    +0.000 N 
ATOM      2  N   UNL     1       0.096  10.315  22.945  0.00  0.00    +0.000 NA
ATOM      3  C   UNL     1       0.711   9.319  22.327  0.00  0.00    +0.000 A 
ATOM      4  C   UNL     1       0.789   9.512  20.941  0.00  0.00    +0.000 A 
ATOM      5  C   UNL     1       0.145  10.744  20.698  0.00  0.00    +0.000 A 
ENDROOT
BRANCH   5   6
ATOM      6  C   UNL     1       0.202  11.465  19.338  0.00  0.00    +0.000 C 
ATOM      7  C   UNL     1       1.471  12.345  19.185  0.00  0.00    +0.000 C 
ATOM      8  C   UNL     1       1.318  13.733  19.794  0.00  0.00    +0.000 C 
ATOM      9  N   UNL     1       0.105  14.411  19.356  0.00  0.00    +0.000 N 
ATOM     10  C   UNL     1       0.077  15.795  19.485  0.00  0.00    +0.000 C 
ATOM     11  O   UNL     1       1.095  16.472  19.563  0.00  0.00    +0.000 OA
ATOM     12  C   UNL     1      -1.117  13.641  19.435  0.00  0.00    +0.000 C 
ATOM     13  C   UNL     1      -0.960  12.275  18.781  0.00  0.00    +0.000 C 
BRANCH  10  14
ATOM     14  O   UNL     1      -1.189  16.298  19.557  0.00  0.00    +0.000 OA
BRANCH  14  15
ATOM     15  C   UNL     1      -1.566  17.143  20.675  0.00  0.00    +0.000 C 
ATOM     16  C   UNL     1      -2.945  16.738  21.201  0.00  0.00    +0.000 C 
ATOM     17  C   UNL     1      -0.527  16.883  21.781  0.00  0.00    +0.000 C 
ATOM     18  C   UNL     1      -1.486  18.630  20.307  0.00  0.00    +0.000 C 
ENDBRANCH  14  15
ENDBRANCH  10  14
ENDBRANCH   5   6
BRANCH   1  24
ATOM     19  C   UNL     1      -4.948  12.914  22.628  0.00  0.00    +0.000 C 
ATOM     20  C   UNL     1      -3.466  13.015  22.837  0.00  0.00    +0.000 A 
ATOM     21  C   UNL     1      -2.930  14.008  23.659  0.00  0.00    +0.000 A 
ATOM     22  C   UNL     1      -1.551  14.204  23.704  0.00  0.00    +0.000 A 
ATOM     23  C   UNL     1      -0.697  13.349  23.000  0.00  0.00    +0.000 A 
ATOM     24  C   UNL     1      -1.205  12.213  22.379  0.00  0.00    +0.000 A 
ATOM     25  C   UNL     1      -2.595  12.120  22.193  0.00  0.00    +0.000 A 
ENDBRANCH   1  24
BRANCH   4  26
ATOM     26  C   UNL     1       1.426   8.635  19.959  0.00  0.00    +0.000 C 
ATOM     27  O   UNL     1       1.457   8.905  18.762  0.00  0.00    +0.000 OA
ATOM     28  N   UNL     1       2.018   7.502  20.471  0.00  0.00    +0.000 N 
ATOM     29  H   UNL     1       2.201   7.429  21.463  0.00  0.00    +0.000 HD
BRANCH  28  30
ATOM     30  C   UNL     1       2.727   6.575  19.606  0.00  0.00    +0.000 C 
BRANCH  30  31
ATOM     31  C   UNL     1       2.519   5.123  19.980  0.00  0.00    +0.000 A 
ATOM     32  C   UNL     1       1.321   4.705  20.557  0.00  0.00    +0.000 A 
ATOM     33  C   UNL     1       1.180   3.371  20.934  0.00  0.00    +0.000 A 
ATOM     34  C   UNL     1       2.232   2.489  20.720  0.00  0.00    +0.000 A 
ATOM     35  C   UNL     1       3.381   2.978  20.125  0.00  0.00    +0.000 A 
ATOM     36  N   UNL     1       3.547   4.266  19.743  0.00  0.00    +0.000 NA
ENDBRANCH  30  31
ENDBRANCH  28  30
ENDBRANCH   4  26
TORSDOF 7
ENDMDL
MODEL 5
REMARK VINA RESULT:      -7.2      0.595      1.132
REMARK  Name = 
REMARK  11 active torsions:
REMARK  status: ('A' for Active; 'I' for Inactive)
REMARK    1  A    between atoms: C_1  and  C_2
REMARK    2  A    between atoms: C_6  and  N_7
REMARK    3  A    between atoms: C_10  and  C_11
REMARK    4  A    between atoms: N_13  and  C_14
REMARK    5  A    between atoms: C_14  and  C_15
REMARK    6  A    between atoms: C_21  and  C_22
REMARK    7  A    between atoms: C_26  and  O_28
REMARK    8  A    between atoms: O_28  and  C_29
REMARK    9  A    between atoms: C_29  and  C_30
REMARK   10  A    between atoms: C_29  and  C_31
REMARK   11  A    between atoms: C_29  and  C_32
REMARK                            x       y       z     vdW  Elec       q    Type
REMARK                         _______ _______ _______ _____ _____    ______ ____
ROOT
ATOM      1  N   UNL     1      -0.107  11.171  21.760  0.00  0.00    +0.000 N 
ATOM      2  N   UNL     1       0.441  10.455  22.782  0.00  0.00    +0.000 NA
ATOM      3  C   UNL     1       1.019   9.408  22.216  0.00  0.00    +0.000 A 
ATOM      4  C   UNL     1       0.997   9.474  20.816  0.00  0.00    +0.000 A 
ATOM      5  C   UNL     1       0.329  10.677  20.507  0.00  0.00    +0.000 A 
ENDROOT
BRANCH   5   6
ATOM      6  C   UNL     1       0.285  11.271  19.087  0.00  0.00    +0.000 C 
ATOM      7  C   UNL     1       1.636  11.907  18.667  0.00  0.00    +0.000 C 
ATOM      8  C   UNL     1       1.801  13.344  19.147  0.00  0.00    +0.000 C 
ATOM      9  N   UNL     1       0.656  14.183  18.819  0.00  0.00    +0.000 N 
ATOM     10  C   UNL     1       0.867  15.557  18.809  0.00  0.00    +0.000 C 
ATOM     11  O   UNL     1       1.977  16.054  18.673  0.00  0.00    +0.000 OA
ATOM     12  C   UNL     1      -0.645  13.642  19.148  0.00  0.00    +0.000 C 
ATOM     13  C   UNL     1      -0.809  12.222  18.622  0.00  0.00    +0.000 C 
BRANCH  10  14
ATOM     14  O   UNL     1      -0.278  16.273  19.009  0.00  0.00    +0.000 OA
BRANCH  14  15
ATOM     15  C   UNL     1      -0.384  17.157  20.154  0.00  0.00    +0.000 C 
ATOM     16  C   UNL     1      -1.722  16.940  20.866  0.00  0.00    +0.000 C 
ATOM     17  C   UNL     1       0.749  16.754  21.115  0.00  0.00    +0.000 C 
ATOM     18  C   UNL     1      -0.155  18.621  19.757  0.00  0.00    +0.000 C 
ENDBRANCH  14  15
ENDBRANCH  10  14
ENDBRANCH   5   6
BRANCH   1  24
ATOM     19  C   UNL     1      -4.628  12.991  22.648  0.00  0.00    +0.000 C 
ATOM     20  C   UNL     1      -3.135  13.123  22.712  0.00  0.00    +0.000 A 
ATOM     21  C   UNL     1      -2.545  14.201  23.375  0.00  0.00    +0.000 A 
ATOM     22  C   UNL     1      -1.171  14.409  23.276  0.00  0.00    +0.000 A 
ATOM     23  C   UNL     1      -0.368  13.490  22.591  0.00  0.00    +0.000 A 
ATOM     24  C   UNL     1      -0.911  12.291  22.139  0.00  0.00    +0.000 A 
ATOM     25  C   UNL     1      -2.311  12.171  22.089  0.00  0.00    +0.000 A 
ENDBRANCH   1  24
BRANCH   4  26
ATOM     26  C   UNL     1       1.571   8.512  19.875  0.00  0.00    +0.000 C 
ATOM     27  O   UNL     1       1.516   8.671  18.659  0.00  0.00    +0.000 OA
ATOM     28  N   UNL     1       2.205   7.431  20.445  0.00  0.00    +0.000 N 
ATOM     29  H   UNL     1       2.459   7.448  21.424  0.00  0.00    +0.000 HD
BRANCH  28  30
ATOM     30  C   UNL     1       2.860   6.429  19.620  0.00  0.00    +0.000 C 
BRANCH  30  31
ATOM     31  C   UNL     1       2.122   5.108  19.578  0.00  0.00    +0.000 A 
ATOM     32  C   UNL     1       1.772   4.530  18.358  0.00  0.00    +0.000 A 
ATOM     33  C   UNL     1       1.052   3.339  18.355  0.00  0.00    +0.000 A 
ATOM     34  C   UNL     1       0.703   2.751  19.565  0.00  0.00    +0.000 A 
ATOM     35  C   UNL     1       1.103   3.377  20.733  0.00  0.00    +0.000 A 
ATOM     36  N   UNL     1       1.808   4.532  20.768  0.00  0.00    +0.000 NA
ENDBRANCH  30  31
ENDBRANCH  28  30
ENDBRANCH   4  26
TORSDOF 7
ENDMDL
MODEL 6
REMARK VINA RESULT:      -7.2      0.734      1.571
REMARK  Name = 
REMARK  11 active torsions:
REMARK  status: ('A' for Active; 'I' for Inactive)
REMARK    1  A    between atoms: C_1  and  C_2
REMARK    2  A    between atoms: C_6  and  N_7
REMARK    3  A    between atoms: C_10  and  C_11
REMARK    4  A    between atoms: N_13  and  C_14
REMARK    5  A    between atoms: C_14  and  C_15
REMARK    6  A    between atoms: C_21  and  C_22
REMARK    7  A    between atoms: C_26  and  O_28
REMARK    8  A    between atoms: O_28  and  C_29
REMARK    9  A    between atoms: C_29  and  C_30
REMARK   10  A    between atoms: C_29  and  C_31
REMARK   11  A    between atoms: C_29  and  C_32
REMARK                            x       y       z     vdW  Elec       q    Type
REMARK                         _______ _______ _______ _____ _____    ______ ____
ROOT
ATOM      1  N   UNL     1      -0.486  11.177  21.835  0.00  0.00    +0.000 N 
ATOM      2  N   UNL     1       0.019  10.430  22.859  0.00  0.00    +0.000 NA
ATOM      3  C   UNL     1       0.666   9.428  22.285  0.00  0.00    +0.000 A 
ATOM      4  C   UNL     1       0.732   9.559  20.891  0.00  0.00    +0.000 A 
ATOM      5  C   UNL     1       0.046  10.755  20.594  0.00  0.00    +0.000 A 
ENDROOT
BRANCH   5   6
ATOM      6  C   UNL     1       0.074  11.414  19.202  0.00  0.00    +0.000 C 
ATOM      7  C   UNL     1       1.503  11.841  18.775  0.00  0.00    +0.000 C 
ATOM      8  C   UNL     1       1.909  13.208  19.312  0.00  0.00    +0.000 C 
ATOM      9  N   UNL     1       0.911  14.236  19.049  0.00  0.00    +0.000 N 
ATOM     10  C   UNL     1       1.343  15.556  19.093  0.00  0.00    +0.000 C 
ATOM     11  O   UNL     1       2.517  15.873  18.950  0.00  0.00    +0.000 OA
ATOM     12  C   UNL     1      -0.455  13.898  19.388  0.00  0.00    +0.000 C 
ATOM     13  C   UNL     1      -0.858  12.550  18.805  0.00  0.00    +0.000 C 
BRANCH  10  14
ATOM     14  O   UNL     1       0.335  16.439  19.352  0.00  0.00    +0.000 OA
BRANCH  14  15
ATOM     15  C   UNL     1       0.406  17.290  20.524  0.00  0.00    +0.000 C 
ATOM     16  C   UNL     1       1.289  16.641  21.594  0.00  0.00    +0.000 C 
ATOM     17  C   UNL     1       1.076  18.598  20.068  0.00  0.00    +0.000 C 
ATOM     18  C   UNL     1      -0.993  17.645  21.047  0.00  0.00    +0.000 C 
ENDBRANCH  14  15
ENDBRANCH  10  14
ENDBRANCH   5   6
BRANCH   1  24
ATOM     19  C   UNL     1      -1.006  15.545  24.111  0.00  0.00    +0.000 C 
ATOM     20  C   UNL     1      -1.545  14.473  23.212  0.00  0.00    +0.000 A 
ATOM     21  C   UNL     1      -2.757  14.652  22.541  0.00  0.00    +0.000 A 
ATOM     22  C   UNL     1      -3.334  13.585  21.853  0.00  0.00    +0.000 A 
ATOM     23  C   UNL     1      -2.659  12.364  21.757  0.00  0.00    +0.000 A 
ATOM     24  C   UNL     1      -1.349  12.253  22.211  0.00  0.00    +0.000 A 
ATOM     25  C   UNL     1      -0.846  13.266  23.048  0.00  0.00    +0.000 A 
ENDBRANCH   1  24
BRANCH   4  26
ATOM     26  C   UNL     1       1.397   8.660  19.948  0.00  0.00    +0.000 C 
ATOM     27  O   UNL     1       1.433   8.886  18.742  0.00  0.00    +0.000 OA
ATOM     28  N   UNL     1       2.007   7.559  20.507  0.00  0.00    +0.000 N 
ATOM     29  H   UNL     1       2.183   7.527  21.502  0.00  0.00    +0.000 HD
BRANCH  28  30
ATOM     30  C   UNL     1       2.743   6.615  19.683  0.00  0.00    +0.000 C 
BRANCH  30  31
ATOM     31  C   UNL     1       2.073   5.262  19.572  0.00  0.00    +0.000 A 
ATOM     32  C   UNL     1       1.605   4.608  20.710  0.00  0.00    +0.000 A 
ATOM     33  C   UNL     1       1.038   3.343  20.578  0.00  0.00    +0.000 A 
ATOM     34  C   UNL     1       0.946   2.766  19.317  0.00  0.00    +0.000 A 
ATOM     35  C   UNL     1       1.417   3.488  18.234  0.00  0.00    +0.000 A 
ATOM     36  N   UNL     1       1.968   4.720  18.330  0.00  0.00    +0.000 NA
ENDBRANCH  30  31
ENDBRANCH  28  30
ENDBRANCH   4  26
TORSDOF 7
ENDMDL
MODEL 7
REMARK VINA RESULT:      -7.0      2.038      2.755
REMARK  Name = 
REMARK  11 active torsions:
REMARK  status: ('A' for Active; 'I' for Inactive)
REMARK    1  A    between atoms: C_1  and  C_2
REMARK    2  A    between atoms: C_6  and  N_7
REMARK    3  A    between atoms: C_10  and  C_11
REMARK    4  A    between atoms: N_13  and  C_14
REMARK    5  A    between atoms: C_14  and  C_15
REMARK    6  A    between atoms: C_21  and  C_22
REMARK    7  A    between atoms: C_26  and  O_28
REMARK    8  A    between atoms: O_28  and  C_29
REMARK    9  A    between atoms: C_29  and  C_30
REMARK   10  A    between atoms: C_29  and  C_31
REMARK   11  A    between atoms: C_29  and  C_32
REMARK                            x       y       z     vdW  Elec       q    Type
REMARK                         _______ _______ _______ _____ _____    ______ ____
ROOT
ATOM      1  N   UNL     1      -1.802  11.987  21.738  0.00  0.00    +0.000 N 
ATOM      2  N   UNL     1      -1.929  11.673  23.059  0.00  0.00    +0.000 NA
ATOM      3  C   UNL     1      -1.104  10.660  23.266  0.00  0.00    +0.000 A 
ATOM      4  C   UNL     1      -0.314  10.372  22.146  0.00  0.00    +0.000 A 
ATOM      5  C   UNL     1      -0.710  11.299  21.159  0.00  0.00    +0.000 A 
ENDROOT
BRANCH   5   6
ATOM      6  C   UNL     1       0.061  11.501  19.841  0.00  0.00    +0.000 C 
ATOM      7  C   UNL     1       1.519  11.978  20.072  0.00  0.00    +0.000 C 
ATOM      8  C   UNL     1       1.637  13.488  20.249  0.00  0.00    +0.000 C 
ATOM      9  N   UNL     1       0.959  14.233  19.196  0.00  0.00    +0.000 N 
ATOM     10  C   UNL     1       1.354  15.552  19.007  0.00  0.00    +0.000 C 
ATOM     11  O   UNL     1       2.443  15.975  19.376  0.00  0.00    +0.000 OA
ATOM     12  C   UNL     1      -0.395  13.822  18.897  0.00  0.00    +0.000 C 
ATOM     13  C   UNL     1      -0.487  12.317  18.679  0.00  0.00    +0.000 C 
BRANCH  10  14
ATOM     14  O   UNL     1       0.392  16.317  18.416  0.00  0.00    +0.000 OA
BRANCH  14  15
ATOM     15  C   UNL     1      -0.193  17.428  19.143  0.00  0.00    +0.000 C 
ATOM     16  C   UNL     1      -0.228  17.117  20.642  0.00  0.00    +0.000 C 
ATOM     17  C   UNL     1       0.740  18.631  18.917  0.00  0.00    +0.000 C 
ATOM     18  C   UNL     1      -1.572  17.802  18.583  0.00  0.00    +0.000 C 
ENDBRANCH  14  15
ENDBRANCH  10  14
ENDBRANCH   5   6
BRANCH   1  24
ATOM     19  C   UNL     1      -5.952  13.011  19.234  0.00  0.00    +0.000 C 
ATOM     20  C   UNL     1      -4.829  13.447  20.128  0.00  0.00    +0.000 A 
ATOM     21  C   UNL     1      -4.816  14.730  20.679  0.00  0.00    +0.000 A 
ATOM     22  C   UNL     1      -3.686  15.183  21.358  0.00  0.00    +0.000 A 
ATOM     23  C   UNL     1      -2.602  14.326  21.568  0.00  0.00    +0.000 A 
ATOM     24  C   UNL     1      -2.704  12.978  21.239  0.00  0.00    +0.000 A 
ATOM     25  C   UNL     1      -3.764  12.574  20.407  0.00  0.00    +0.000 A 
ENDBRANCH   1  24
BRANCH   4  26
ATOM     26  C   UNL     1       0.722   9.345  22.033  0.00  0.00    +0.000 C 
ATOM     27  O   UNL     1       1.785   9.417  22.643  0.00  0.00    +0.000 OA
ATOM     28  N   UNL     1       0.413   8.275  21.223  0.00  0.00    +0.000 N 
ATOM     29  H   UNL     1      -0.545   8.112  20.941  0.00  0.00    +0.000 HD
BRANCH  28  30
ATOM     30  C   UNL     1       1.337   7.165  21.067  0.00  0.00    +0.000 C 
BRANCH  30  31
ATOM     31  C   UNL     1       2.149   7.232  19.792  0.00  0.00    +0.000 A 
ATOM     32  C   UNL     1       1.979   8.288  18.898  0.00  0.00    +0.000 A 
ATOM     33  C   UNL     1       2.708   8.294  17.711  0.00  0.00    +0.000 A 
ATOM     34  C   UNL     1       3.590   7.253  17.449  0.00  0.00    +0.000 A 
ATOM     35  C   UNL     1       3.716   6.251  18.395  0.00  0.00    +0.000 A 
ATOM     36  N   UNL     1       3.026   6.220  19.559  0.00  0.00    +0.000 NA
ENDBRANCH  30  31
ENDBRANCH  28  30
ENDBRANCH   4  26
TORSDOF 7
ENDMDL
MODEL 8
REMARK VINA RESULT:      -7.0      1.437      1.770
REMARK  Name = 
REMARK  11 active torsions:
REMARK  status: ('A' for Active; 'I' for Inactive)
REMARK    1  A    between atoms: C_1  and  C_2
REMARK    2  A    between atoms: C_6  and  N_7
REMARK    3  A    between atoms: C_10  and  C_11
REMARK    4  A    between atoms: N_13  and  C_14
REMARK    5  A    between atoms: C_14  and  C_15
REMARK    6  A    between atoms: C_21  and  C_22
REMARK    7  A    between atoms: C_26  and  O_28
REMARK    8  A    between atoms: O_28  and  C_29
REMARK    9  A    between atoms: C_29  and  C_30
REMARK   10  A    between atoms: C_29  and  C_31
REMARK   11  A    between atoms: C_29  and  C_32
REMARK                            x       y       z     vdW  Elec       q    Type
REMARK                         _______ _______ _______ _____ _____    ______ ____
ROOT
ATOM      1  N   UNL     1      -0.325  10.886  20.886  0.00  0.00    +0.000 N 
ATOM      2  N   UNL     1      -0.097   9.765  21.628  0.00  0.00    +0.000 NA
ATOM      3  C   UNL     1       0.585   8.948  20.842  0.00  0.00    +0.000 A 
ATOM      4  C   UNL     1       0.949   9.548  19.629  0.00  0.00    +0.000 A 
ATOM      5  C   UNL     1       0.424  10.856  19.685  0.00  0.00    +0.000 A 
ENDROOT
BRANCH   5   6
ATOM      6  C   UNL     1       0.786  11.949  18.663  0.00  0.00    +0.000 C 
ATOM      7  C   UNL     1       2.193  12.553  18.912  0.00  0.00    +0.000 C 
ATOM      8  C   UNL     1       2.193  13.671  19.947  0.00  0.00    +0.000 C 
ATOM      9  N   UNL     1       1.183  14.686  19.681  0.00  0.00    +0.000 N 
ATOM     10  C   UNL     1       1.370  15.929  20.274  0.00  0.00    +0.000 C 
ATOM     11  O   UNL     1       2.467  16.322  20.653  0.00  0.00    +0.000 OA
ATOM     12  C   UNL     1      -0.150  14.198  19.403  0.00  0.00    +0.000 C 
ATOM     13  C   UNL     1      -0.137  13.114  18.335  0.00  0.00    +0.000 C 
BRANCH  10  14
ATOM     14  O   UNL     1       0.208  16.629  20.423  0.00  0.00    +0.000 OA
BRANCH  14  15
ATOM     15  C   UNL     1      -0.316  16.881  21.752  0.00  0.00    +0.000 C 
ATOM     16  C   UNL     1       0.430  16.030  22.783  0.00  0.00    +0.000 C 
ATOM     17  C   UNL     1      -0.036  18.365  22.052  0.00  0.00    +0.000 C 
ATOM     18  C   UNL     1      -1.836  16.677  21.804  0.00  0.00    +0.000 C 
ENDBRANCH  14  15
ENDBRANCH  10  14
ENDBRANCH   5   6
BRANCH   1  24
ATOM     19  C   UNL     1      -4.737  13.135  20.983  0.00  0.00    +0.000 C 
ATOM     20  C   UNL     1      -3.400  12.863  21.605  0.00  0.00    +0.000 A 
ATOM     21  C   UNL     1      -3.096  13.353  22.877  0.00  0.00    +0.000 A 
ATOM     22  C   UNL     1      -1.796  13.249  23.369  0.00  0.00    +0.000 A 
ATOM     23  C   UNL     1      -0.817  12.573  22.631  0.00  0.00    +0.000 A 
ATOM     24  C   UNL     1      -1.170  11.872  21.482  0.00  0.00    +0.000 A 
ATOM     25  C   UNL     1      -2.429  12.126  20.908  0.00  0.00    +0.000 A 
ENDBRANCH   1  24
BRANCH   4  26
ATOM     26  C   UNL     1       1.731   8.952  18.547  0.00  0.00    +0.000 C 
ATOM     27  O   UNL     1       1.735   9.414  17.409  0.00  0.00    +0.000 OA
ATOM     28  N   UNL     1       2.489   7.856  18.895  0.00  0.00    +0.000 N 
ATOM     29  H   UNL     1       2.668   7.652  19.869  0.00  0.00    +0.000 HD
BRANCH  28  30
ATOM     30  C   UNL     1       3.349   7.203  17.923  0.00  0.00    +0.000 C 
BRANCH  30  31
ATOM     31  C   UNL     1       3.059   5.726  17.758  0.00  0.00    +0.000 A 
ATOM     32  C   UNL     1       1.834   5.195  18.157  0.00  0.00    +0.000 A 
ATOM     33  C   UNL     1       1.618   3.825  18.037  0.00  0.00    +0.000 A 
ATOM     34  C   UNL     1       2.624   3.021  17.516  0.00  0.00    +0.000 A 
ATOM     35  C   UNL     1       3.806   3.626  17.125  0.00  0.00    +0.000 A 
ATOM     36  N   UNL     1       4.043   4.955  17.225  0.00  0.00    +0.000 NA
ENDBRANCH  30  31
ENDBRANCH  28  30
ENDBRANCH   4  26
TORSDOF 7
ENDMDL
MODEL 9
REMARK VINA RESULT:      -6.8      2.502      3.778
REMARK  Name = 
REMARK  11 active torsions:
REMARK  status: ('A' for Active; 'I' for Inactive)
REMARK    1  A    between atoms: C_1  and  C_2
REMARK    2  A    between atoms: C_6  and  N_7
REMARK    3  A    between atoms: C_10  and  C_11
REMARK    4  A    between atoms: N_13  and  C_14
REMARK    5  A    between atoms: C_14  and  C_15
REMARK    6  A    between atoms: C_21  and  C_22
REMARK    7  A    between atoms: C_26  and  O_28
REMARK    8  A    between atoms: O_28  and  C_29
REMARK    9  A    between atoms: C_29  and  C_30
REMARK   10  A    between atoms: C_29  and  C_31
REMARK   11  A    between atoms: C_29  and  C_32
REMARK                            x       y       z     vdW  Elec       q    Type
REMARK                         _______ _______ _______ _____ _____    ______ ____
ROOT
ATOM      1  N   UNL     1      -0.821  11.492  22.147  0.00  0.00    +0.000 N 
ATOM      2  N   UNL     1       0.208  10.793  22.705  0.00  0.00    +0.000 NA
ATOM      3  C   UNL     1       0.725  10.074  21.722  0.00  0.00    +0.000 A 
ATOM      4  C   UNL     1       0.159  10.378  20.477  0.00  0.00    +0.000 A 
ATOM      5  C   UNL     1      -0.804  11.375  20.737  0.00  0.00    +0.000 A 
ENDROOT
BRANCH   5   6
ATOM      6  C   UNL     1      -1.506  12.174  19.623  0.00  0.00    +0.000 C 
ATOM      7  C   UNL     1      -1.146  13.683  19.657  0.00  0.00    +0.000 C 
ATOM      8  C   UNL     1      -2.006  14.485  20.627  0.00  0.00    +0.000 C 
ATOM      9  N   UNL     1      -3.432  14.249  20.443  0.00  0.00    +0.000 N 
ATOM     10  C   UNL     1      -4.298  15.214  20.944  0.00  0.00    +0.000 C 
ATOM     11  O   UNL     1      -3.949  16.368  21.158  0.00  0.00    +0.000 OA
ATOM     12  C   UNL     1      -3.842  12.864  20.365  0.00  0.00    +0.000 C 
ATOM     13  C   UNL     1      -3.002  12.088  19.359  0.00  0.00    +0.000 C 
BRANCH  10  14
ATOM     14  O   UNL     1      -5.545  14.726  21.207  0.00  0.00    +0.000 OA
BRANCH  14  15
ATOM     15  C   UNL     1      -6.695  15.284  20.520  0.00  0.00    +0.000 C 
ATOM     16  C   UNL     1      -6.353  15.556  19.053  0.00  0.00    +0.000 C 
ATOM     17  C   UNL     1      -7.792  14.205  20.572  0.00  0.00    +0.000 C 
ATOM     18  C   UNL     1      -7.234  16.525  21.243  0.00  0.00    +0.000 C 
ENDBRANCH  14  15
ENDBRANCH  10  14
ENDBRANCH   5   6
BRANCH   1  24
ATOM     19  C   UNL     1      -1.508  15.720  24.634  0.00  0.00    +0.000 C 
ATOM     20  C   UNL     1      -2.019  14.395  24.152  0.00  0.00    +0.000 A 
ATOM     21  C   UNL     1      -3.351  14.031  24.358  0.00  0.00    +0.000 A 
ATOM     22  C   UNL     1      -3.768  12.733  24.067  0.00  0.00    +0.000 A 
ATOM     23  C   UNL     1      -2.880  11.823  23.484  0.00  0.00    +0.000 A 
ATOM     24  C   UNL     1      -1.628  12.249  23.052  0.00  0.00    +0.000 A 
ATOM     25  C   UNL     1      -1.158  13.496  23.502  0.00  0.00    +0.000 A 
ENDBRANCH   1  24
BRANCH   4  26
ATOM     26  C   UNL     1       0.513   9.804  19.179  0.00  0.00    +0.000 C 
ATOM     27  O   UNL     1      -0.051  10.134  18.140  0.00  0.00    +0.000 OA
ATOM     28  N   UNL     1       1.545   8.892  19.195  0.00  0.00    +0.000 N 
ATOM     29  H   UNL     1       2.154   8.828  20.000  0.00  0.00    +0.000 HD
BRANCH  28  30
ATOM     30  C   UNL     1       2.025   8.287  17.964  0.00  0.00    +0.000 C 
BRANCH  30  31
ATOM     31  C   UNL     1       3.066   7.210  18.188  0.00  0.00    +0.000 A 
ATOM     32  C   UNL     1       4.105   7.028  17.277  0.00  0.00    +0.000 A 
ATOM     33  C   UNL     1       5.017   5.998  17.488  0.00  0.00    +0.000 A 
ATOM     34  C   UNL     1       4.875   5.180  18.603  0.00  0.00    +0.000 A 
ATOM     35  C   UNL     1       3.828   5.438  19.470  0.00  0.00    +0.000 A 
ATOM     36  N   UNL     1       2.929   6.434  19.295  0.00  0.00    +0.000 NA
ENDBRANCH  30  31
ENDBRANCH  28  30
ENDBRANCH   4  26
TORSDOF 7
ENDMDL
