MODEL 1
REMARK VINA RESULT:      -7.5      0.000      0.000
REMARK  Name = 
REMARK  2 active torsions:
REMARK  status: ('A' for Active; 'I' for Inactive)
REMARK    1  A    between atoms: C_2  and  OXT_3
REMARK    2  A    between atoms: C_2  and  CA_4
REMARK                            x       y       z     vdW  Elec       q    Type
REMARK                         _______ _______ _______ _____ _____    ______ ____
ROOT
ATOM      1  CA  UNL     1       1.806   5.352  20.520  0.00  0.00    +0.000 A 
ATOM      2  N   UNL     1       1.163   6.353  21.211  0.00  0.00    +0.000 NA
ATOM      3  C   UNL     1       1.154   7.605  20.733  0.00  0.00    +0.000 A 
ATOM      4  C   UNL     1       0.428   8.586  21.395  0.00  0.00    +0.000 A 
ATOM      5  C   UNL     1       0.376   9.907  20.930  0.00  0.00    +0.000 A 
ATOM      6  C   UNL     1       1.072  10.265  19.779  0.00  0.00    +0.000 A 
ATOM      7  I   UNL     1       0.997  12.221  19.087  0.00  0.00    +0.000 I 
ATOM      8  C   UNL     1       1.813   9.311  19.087  0.00  0.00    +0.000 A 
ATOM      9  C   UNL     1       1.842   7.982  19.565  0.00  0.00    +0.000 A 
ATOM     10  C   UNL     1       2.554   6.953  18.904  0.00  0.00    +0.000 A 
ATOM     11  N   UNL     1       3.335   6.993  17.774  0.00  0.00    +0.000 N 
ATOM     12  C   UNL     1       3.859   5.758  17.486  0.00  0.00    +0.000 A 
ATOM     13  C   UNL     1       4.715   5.367  16.449  0.00  0.00    +0.000 A 
ATOM     14 CL   UNL     1       5.275   6.502  15.287  0.00  0.00    +0.000 Cl
ATOM     15  C   UNL     1       5.112   4.031  16.382  0.00  0.00    +0.000 A 
ATOM     16  C   UNL     1       4.664   3.122  17.331  0.00  0.00    +0.000 A 
ATOM     17  C   UNL     1       3.810   3.529  18.366  0.00  0.00    +0.000 A 
ATOM     18  C   UNL     1       3.385   4.874  18.455  0.00  0.00    +0.000 A 
ATOM     19  C   UNL     1       2.547   5.627  19.357  0.00  0.00    +0.000 A 
ATOM     20  H   UNL     1       3.526   7.820  17.225  0.00  0.00    +0.000 HD
ENDROOT
BRANCH   1  22
ATOM     21  O   UNL     1       2.328   3.531  22.031  0.00  0.00    +0.000 OA
ATOM     22  C   UNL     1       1.659   4.004  21.132  0.00  0.00    +0.000 C 
BRANCH  22  23
ATOM     23  OXT UNL     1       0.652   3.330  20.521  0.00  0.00    +0.000 OA
ATOM     24  HXT UNL     1      -0.108   3.254  21.142  0.00  0.00    +0.000 HD
ENDBRANCH  22  23
ENDBRANCH   1  22
TORSDOF 2
ENDMDL
MODEL 2
REMARK VINA RESULT:      -7.3      4.989      7.523
REMARK  Name = 
REMARK  2 active torsions:
REMARK  status: ('A' for Active; 'I' for Inactive)
REMARK    1  A    between atoms: C_2  and  OXT_3
REMARK    2  A    between atoms: C_2  and  CA_4
REMARK                            x       y       z     vdW  Elec       q    Type
REMARK                         _______ _______ _______ _____ _____    ______ ____
ROOT
ATOM      1  CA  UNL     1       6.810   5.997  16.743  0.00  0.00    +0.000 A 
ATOM      2  N   UNL     1       7.518   5.856  15.572  0.00  0.00    +0.000 NA
ATOM      3  C   UNL     1       7.060   5.057  14.599  0.00  0.00    +0.000 A 
ATOM      4  C   UNL     1       7.738   4.992  13.389  0.00  0.00    +0.000 A 
ATOM      5  C   UNL     1       7.296   4.181  12.336  0.00  0.00    +0.000 A 
ATOM      6  C   UNL     1       6.150   3.405  12.492  0.00  0.00    +0.000 A 
ATOM      7  I   UNL     1       5.491   2.202  10.934  0.00  0.00    +0.000 I 
ATOM      8  C   UNL     1       5.443   3.440  13.691  0.00  0.00    +0.000 A 
ATOM      9  C   UNL     1       5.899   4.274  14.736  0.00  0.00    +0.000 A 
ATOM     10  C   UNL     1       5.221   4.380  15.973  0.00  0.00    +0.000 A 
ATOM     11  N   UNL     1       4.091   3.743  16.428  0.00  0.00    +0.000 N 
ATOM     12  C   UNL     1       3.782   4.129  17.708  0.00  0.00    +0.000 A 
ATOM     13  C   UNL     1       2.739   3.712  18.544  0.00  0.00    +0.000 A 
ATOM     14 CL   UNL     1       1.596   2.542  18.017  0.00  0.00    +0.000 Cl
ATOM     15  C   UNL     1       2.650   4.262  19.823  0.00  0.00    +0.000 A 
ATOM     16  C   UNL     1       3.584   5.198  20.246  0.00  0.00    +0.000 A 
ATOM     17  C   UNL     1       4.626   5.603  19.399  0.00  0.00    +0.000 A 
ATOM     18  C   UNL     1       4.737   5.069  18.095  0.00  0.00    +0.000 A 
ATOM     19  C   UNL     1       5.651   5.240  16.993  0.00  0.00    +0.000 A 
ATOM     20  H   UNL     1       3.556   3.061  15.909  0.00  0.00    +0.000 HD
ENDROOT
BRANCH   1  22
ATOM     21  O   UNL     1       7.927   6.740  18.761  0.00  0.00    +0.000 OA
ATOM     22  C   UNL     1       7.400   6.979  17.692  0.00  0.00    +0.000 C 
BRANCH  22  23
ATOM     23  OXT UNL     1       7.253   8.237  17.200  0.00  0.00    +0.000 OA
ATOM     24  HXT UNL     1       7.333   8.882  17.940  0.00  0.00    +0.000 HD
ENDBRANCH  22  23
ENDBRANCH   1  22
TORSDOF 2
ENDMDL
MODEL 3
REMARK VINA RESULT:      -7.1      3.098      4.158
REMARK  Name = 
REMARK  2 active torsions:
REMARK  status: ('A' for Active; 'I' for Inactive)
REMARK    1  A    between atoms: C_2  and  OXT_3
REMARK    2  A    between atoms: C_2  and  CA_4
REMARK                            x       y       z     vdW  Elec       q    Type
REMARK                         _______ _______ _______ _____ _____    ______ ____
ROOT
ATOM      1  CA  UNL     1       3.989   6.860  17.418  0.00  0.00    +0.000 A 
ATOM      2  N   UNL     1       3.502   8.129  17.204  0.00  0.00    +0.000 NA
ATOM      3  C   UNL     1       2.625   8.668  18.061  0.00  0.00    +0.000 A 
ATOM      4  C   UNL     1       2.209   9.981  17.881  0.00  0.00    +0.000 A 
ATOM      5  C   UNL     1       1.303  10.596  18.755  0.00  0.00    +0.000 A 
ATOM      6  C   UNL     1       0.789   9.884  19.835  0.00  0.00    +0.000 A 
ATOM      7  I   UNL     1      -0.554  10.791  21.133  0.00  0.00    +0.000 I 
ATOM      8  C   UNL     1       1.180   8.564  20.050  0.00  0.00    +0.000 A 
ATOM      9  C   UNL     1       2.104   7.967  19.164  0.00  0.00    +0.000 A 
ATOM     10  C   UNL     1       2.565   6.640  19.330  0.00  0.00    +0.000 A 
ATOM     11  N   UNL     1       2.239   5.694  20.272  0.00  0.00    +0.000 N 
ATOM     12  C   UNL     1       2.913   4.519  20.053  0.00  0.00    +0.000 A 
ATOM     13  C   UNL     1       2.857   3.308  20.755  0.00  0.00    +0.000 A 
ATOM     14 CL   UNL     1       1.832   3.124  22.121  0.00  0.00    +0.000 Cl
ATOM     15  C   UNL     1       3.650   2.247  20.317  0.00  0.00    +0.000 A 
ATOM     16  C   UNL     1       4.468   2.401  19.206  0.00  0.00    +0.000 A 
ATOM     17  C   UNL     1       4.510   3.617  18.509  0.00  0.00    +0.000 A 
ATOM     18  C   UNL     1       3.724   4.713  18.935  0.00  0.00    +0.000 A 
ATOM     19  C   UNL     1       3.514   6.063  18.474  0.00  0.00    +0.000 A 
ATOM     20  H   UNL     1       1.577   5.823  21.025  0.00  0.00    +0.000 HD
ENDROOT
BRANCH   1  22
ATOM     21  O   UNL     1       4.926   5.516  15.633  0.00  0.00    +0.000 OA
ATOM     22  C   UNL     1       5.014   6.431  16.428  0.00  0.00    +0.000 C 
BRANCH  22  23
ATOM     23  OXT UNL     1       6.118   7.214  16.543  0.00  0.00    +0.000 OA
ATOM     24  HXT UNL     1       6.899   6.721  16.202  0.00  0.00    +0.000 HD
ENDBRANCH  22  23
ENDBRANCH   1  22
TORSDOF 2
ENDMDL
MODEL 4
REMARK VINA RESULT:      -7.0      4.531      6.016
REMARK  Name = 
REMARK  2 active torsions:
REMARK  status: ('A' for Active; 'I' for Inactive)
REMARK    1  A    between atoms: C_2  and  OXT_3
REMARK    2  A    between atoms: C_2  and  CA_4
REMARK                            x       y       z     vdW  Elec       q    Type
REMARK                         _______ _______ _______ _____ _____    ______ ____
ROOT
ATOM      1  CA  UNL     1       6.453   6.097  17.466  0.00  0.00    +0.000 A 
ATOM      2  N   UNL     1       5.635   6.078  18.572  0.00  0.00    +0.000 NA
ATOM      3  C   UNL     1       4.592   5.237  18.624  0.00  0.00    +0.000 A 
ATOM      4  C   UNL     1       3.827   5.167  19.781  0.00  0.00    +0.000 A 
ATOM      5  C   UNL     1       2.734   4.297  19.892  0.00  0.00    +0.000 A 
ATOM      6  C   UNL     1       2.385   3.480  18.820  0.00  0.00    +0.000 A 
ATOM      7  I   UNL     1       0.766   2.191  18.980  0.00  0.00    +0.000 I 
ATOM      8  C   UNL     1       3.126   3.523  17.641  0.00  0.00    +0.000 A 
ATOM      9  C   UNL     1       4.232   4.397  17.555  0.00  0.00    +0.000 A 
ATOM     10  C   UNL     1       5.046   4.480  16.400  0.00  0.00    +0.000 A 
ATOM     11  N   UNL     1       4.952   3.825  15.195  0.00  0.00    +0.000 N 
ATOM     12  C   UNL     1       5.947   4.218  14.336  0.00  0.00    +0.000 A 
ATOM     13  C   UNL     1       6.203   3.821  13.017  0.00  0.00    +0.000 A 
ATOM     14 CL   UNL     1       5.197   2.673  12.228  0.00  0.00    +0.000 Cl
ATOM     15  C   UNL     1       7.291   4.385  12.351  0.00  0.00    +0.000 A 
ATOM     16  C   UNL     1       8.092   5.320  12.991  0.00  0.00    +0.000 A 
ATOM     17  C   UNL     1       7.822   5.712  14.311  0.00  0.00    +0.000 A 
ATOM     18  C   UNL     1       6.731   5.151  15.014  0.00  0.00    +0.000 A 
ATOM     19  C   UNL     1       6.168   5.317  16.331  0.00  0.00    +0.000 A 
ATOM     20  H   UNL     1       4.240   3.152  14.950  0.00  0.00    +0.000 HD
ENDROOT
BRANCH   1  22
ATOM     21  O   UNL     1       7.951   7.881  16.799  0.00  0.00    +0.000 OA
ATOM     22  C   UNL     1       7.613   7.020  17.589  0.00  0.00    +0.000 C 
BRANCH  22  23
ATOM     23  OXT UNL     1       8.289   6.757  18.737  0.00  0.00    +0.000 OA
ATOM     24  HXT UNL     1       7.884   7.270  19.473  0.00  0.00    +0.000 HD
ENDBRANCH  22  23
ENDBRANCH   1  22
TORSDOF 2
ENDMDL
MODEL 5
REMARK VINA RESULT:      -6.7      2.758      5.535
REMARK  Name = 
REMARK  2 active torsions:
REMARK  status: ('A' for Active; 'I' for Inactive)
REMARK    1  A    between atoms: C_2  and  OXT_3
REMARK    2  A    between atoms: C_2  and  CA_4
REMARK                            x       y       z     vdW  Elec       q    Type
REMARK                         _______ _______ _______ _____ _____    ______ ____
ROOT
ATOM      1  CA  UNL     1       2.577   4.265  19.965  0.00  0.00    +0.000 A 
ATOM      2  N   UNL     1       3.254   3.322  19.228  0.00  0.00    +0.000 NA
ATOM      3  C   UNL     1       3.940   3.685  18.135  0.00  0.00    +0.000 A 
ATOM      4  C   UNL     1       4.689   2.738  17.450  0.00  0.00    +0.000 A 
ATOM      5  C   UNL     1       5.434   3.068  16.310  0.00  0.00    +0.000 A 
ATOM      6  C   UNL     1       5.427   4.375  15.831  0.00  0.00    +0.000 A 
ATOM      7  I   UNL     1       6.528   4.868  14.141  0.00  0.00    +0.000 I 
ATOM      8  C   UNL     1       4.686   5.354  16.489  0.00  0.00    +0.000 A 
ATOM      9  C   UNL     1       3.952   5.003  17.644  0.00  0.00    +0.000 A 
ATOM     10  C   UNL     1       3.195   5.947  18.377  0.00  0.00    +0.000 A 
ATOM     11  N   UNL     1       2.982   7.286  18.154  0.00  0.00    +0.000 N 
ATOM     12  C   UNL     1       2.160   7.826  19.111  0.00  0.00    +0.000 A 
ATOM     13  C   UNL     1       1.677   9.134  19.244  0.00  0.00    +0.000 A 
ATOM     14 CL   UNL     1       2.096  10.353  18.108  0.00  0.00    +0.000 Cl
ATOM     15  C   UNL     1       0.838   9.428  20.319  0.00  0.00    +0.000 A 
ATOM     16  C   UNL     1       0.494   8.435  21.227  0.00  0.00    +0.000 A 
ATOM     17  C   UNL     1       0.982   7.128  21.079  0.00  0.00    +0.000 A 
ATOM     18  C   UNL     1       1.841   6.803  20.004  0.00  0.00    +0.000 A 
ATOM     19  C   UNL     1       2.503   5.606  19.547  0.00  0.00    +0.000 A 
ATOM     20  H   UNL     1       3.358   7.817  17.381  0.00  0.00    +0.000 HD
ENDROOT
BRANCH   1  22
ATOM     21  O   UNL     1       2.436   3.606  22.293  0.00  0.00    +0.000 OA
ATOM     22  C   UNL     1       1.933   3.725  21.193  0.00  0.00    +0.000 C 
BRANCH  22  23
ATOM     23  OXT UNL     1       0.659   3.344  20.913  0.00  0.00    +0.000 OA
ATOM     24  HXT UNL     1       0.281   3.957  20.242  0.00  0.00    +0.000 HD
ENDBRANCH  22  23
ENDBRANCH   1  22
TORSDOF 2
ENDMDL
MODEL 6
REMARK VINA RESULT:      -6.7      4.824      7.023
REMARK  Name = 
REMARK  2 active torsions:
REMARK  status: ('A' for Active; 'I' for Inactive)
REMARK    1  A    between atoms: C_2  and  OXT_3
REMARK    2  A    between atoms: C_2  and  CA_4
REMARK                            x       y       z     vdW  Elec       q    Type
REMARK                         _______ _______ _______ _____ _____    ______ ____
ROOT
ATOM      1  CA  UNL     1       6.554   5.229  17.723  0.00  0.00    +0.000 A 
ATOM      2  N   UNL     1       7.285   5.193  16.559  0.00  0.00    +0.000 NA
ATOM      3  C   UNL     1       6.734   4.724  15.431  0.00  0.00    +0.000 A 
ATOM      4  C   UNL     1       7.454   4.774  14.244  0.00  0.00    +0.000 A 
ATOM      5  C   UNL     1       6.920   4.309  13.035  0.00  0.00    +0.000 A 
ATOM      6  C   UNL     1       5.636   3.770  13.006  0.00  0.00    +0.000 A 
ATOM      7  I   UNL     1       4.841   3.079  11.217  0.00  0.00    +0.000 I 
ATOM      8  C   UNL     1       4.882   3.700  14.175  0.00  0.00    +0.000 A 
ATOM      9  C   UNL     1       5.435   4.187  15.380  0.00  0.00    +0.000 A 
ATOM     10  C   UNL     1       4.722   4.170  16.602  0.00  0.00    +0.000 A 
ATOM     11  N   UNL     1       3.464   3.699  16.895  0.00  0.00    +0.000 N 
ATOM     12  C   UNL     1       3.166   3.866  18.224  0.00  0.00    +0.000 A 
ATOM     13  C   UNL     1       2.015   3.508  18.936  0.00  0.00    +0.000 A 
ATOM     14 CL   UNL     1       0.694   2.735  18.155  0.00  0.00    +0.000 Cl
ATOM     15  C   UNL     1       1.963   3.787  20.302  0.00  0.00    +0.000 A 
ATOM     16  C   UNL     1       3.039   4.402  20.929  0.00  0.00    +0.000 A 
ATOM     17  C   UNL     1       4.188   4.751  20.204  0.00  0.00    +0.000 A 
ATOM     18  C   UNL     1       4.264   4.488  18.817  0.00  0.00    +0.000 A 
ATOM     19  C   UNL     1       5.256   4.692  17.789  0.00  0.00    +0.000 A 
ATOM     20  H   UNL     1       2.835   3.266  16.234  0.00  0.00    +0.000 HD
ENDROOT
BRANCH   1  22
ATOM     21  O   UNL     1       7.328   5.434  20.010  0.00  0.00    +0.000 OA
ATOM     22  C   UNL     1       7.272   5.850  18.869  0.00  0.00    +0.000 C 
BRANCH  22  23
ATOM     23  OXT UNL     1       7.868   7.002  18.466  0.00  0.00    +0.000 OA
ATOM     24  HXT UNL     1       8.629   7.195  19.061  0.00  0.00    +0.000 HD
ENDBRANCH  22  23
ENDBRANCH   1  22
TORSDOF 2
ENDMDL
MODEL 7
REMARK VINA RESULT:      -6.5      6.183      8.114
REMARK  Name = 
REMARK  2 active torsions:
REMARK  status: ('A' for Active; 'I' for Inactive)
REMARK    1  A    between atoms: C_2  and  OXT_3
REMARK    2  A    between atoms: C_2  and  CA_4
REMARK                            x       y       z     vdW  Elec       q    Type
REMARK                         _______ _______ _______ _____ _____    ______ ____
ROOT
ATOM      1  CA  UNL     1      -0.422  11.243  19.883  0.00  0.00    +0.000 A 
ATOM      2  N   UNL     1      -0.086  11.894  21.047  0.00  0.00    +0.000 NA
ATOM      3  C   UNL     1      -0.976  12.690  21.655  0.00  0.00    +0.000 A 
ATOM      4  C   UNL     1      -0.654  13.272  22.874  0.00  0.00    +0.000 A 
ATOM      5  C   UNL     1      -1.552  14.102  23.557  0.00  0.00    +0.000 A 
ATOM      6  C   UNL     1      -2.803  14.370  23.009  0.00  0.00    +0.000 A 
ATOM      7  I   UNL     1      -4.137  15.601  24.018  0.00  0.00    +0.000 I 
ATOM      8  C   UNL     1      -3.164  13.807  21.787  0.00  0.00    +0.000 A 
ATOM      9  C   UNL     1      -2.248  12.963  21.121  0.00  0.00    +0.000 A 
ATOM     10  C   UNL     1      -2.551  12.337  19.888  0.00  0.00    +0.000 A 
ATOM     11  N   UNL     1      -3.677  12.414  19.103  0.00  0.00    +0.000 N 
ATOM     12  C   UNL     1      -3.545  11.653  17.968  0.00  0.00    +0.000 A 
ATOM     13  C   UNL     1      -4.435  11.470  16.903  0.00  0.00    +0.000 A 
ATOM     14 CL   UNL     1      -5.962  12.257  16.880  0.00  0.00    +0.000 Cl
ATOM     15  C   UNL     1      -4.053  10.637  15.851  0.00  0.00    +0.000 A 
ATOM     16  C   UNL     1      -2.812  10.013  15.871  0.00  0.00    +0.000 A 
ATOM     17  C   UNL     1      -1.929  10.209  16.943  0.00  0.00    +0.000 A 
ATOM     18  C   UNL     1      -2.293  11.041  18.027  0.00  0.00    +0.000 A 
ATOM     19  C   UNL     1      -1.658  11.466  19.250  0.00  0.00    +0.000 A 
ATOM     20  H   UNL     1      -4.496  12.969  19.308  0.00  0.00    +0.000 HD
ENDROOT
BRANCH   1  22
ATOM     21  O   UNL     1       0.946   9.244  19.816  0.00  0.00    +0.000 OA
ATOM     22  C   UNL     1       0.638  10.333  19.371  0.00  0.00    +0.000 C 
BRANCH  22  23
ATOM     23  OXT UNL     1       1.261  10.905  18.309  0.00  0.00    +0.000 OA
ATOM     24  HXT UNL     1       0.734  10.731  17.495  0.00  0.00    +0.000 HD
ENDBRANCH  22  23
ENDBRANCH   1  22
TORSDOF 2
ENDMDL
MODEL 8
REMARK VINA RESULT:      -6.4      6.735      8.283
REMARK  Name = 
REMARK  2 active torsions:
REMARK  status: ('A' for Active; 'I' for Inactive)
REMARK    1  A    between atoms: C_2  and  OXT_3
REMARK    2  A    between atoms: C_2  and  CA_4
REMARK                            x       y       z     vdW  Elec       q    Type
REMARK                         _______ _______ _______ _____ _____    ______ ____
ROOT
ATOM      1  CA  UNL     1      -0.405  11.775  21.007  0.00  0.00    +0.000 A 
ATOM      2  N   UNL     1      -0.294  12.576  22.120  0.00  0.00    +0.000 NA
ATOM      3  C   UNL     1      -1.308  13.373  22.482  0.00  0.00    +0.000 A 
ATOM      4  C   UNL     1      -1.216  14.110  23.655  0.00  0.00    +0.000 A 
ATOM      5  C   UNL     1      -2.253  14.949  24.084  0.00  0.00    +0.000 A 
ATOM      6  C   UNL     1      -3.411  15.067  23.321  0.00  0.00    +0.000 A 
ATOM      7  I   UNL     1      -4.950  16.310  23.953  0.00  0.00    +0.000 I 
ATOM      8  C   UNL     1      -3.542  14.346  22.136  0.00  0.00    +0.000 A 
ATOM      9  C   UNL     1      -2.490  13.496  21.728  0.00  0.00    +0.000 A 
ATOM     10  C   UNL     1      -2.559  12.715  20.550  0.00  0.00    +0.000 A 
ATOM     11  N   UNL     1      -3.545  12.626  19.597  0.00  0.00    +0.000 N 
ATOM     12  C   UNL     1      -3.195  11.752  18.598  0.00  0.00    +0.000 A 
ATOM     13  C   UNL     1      -3.892  11.388  17.439  0.00  0.00    +0.000 A 
ATOM     14 CL   UNL     1      -5.432  12.062  17.085  0.00  0.00    +0.000 Cl
ATOM     15  C   UNL     1      -3.304  10.470  16.569  0.00  0.00    +0.000 A 
ATOM     16  C   UNL     1      -2.054   9.939  16.857  0.00  0.00    +0.000 A 
ATOM     17  C   UNL     1      -1.365  10.315  18.020  0.00  0.00    +0.000 A 
ATOM     18  C   UNL     1      -1.940  11.237  18.924  0.00  0.00    +0.000 A 
ATOM     19  C   UNL     1      -1.533  11.841  20.169  0.00  0.00    +0.000 A 
ATOM     20  H   UNL     1      -4.413  13.142  19.604  0.00  0.00    +0.000 HD
ENDROOT
BRANCH   1  22
ATOM     21  O   UNL     1       1.368  10.719  19.737  0.00  0.00    +0.000 OA
ATOM     22  C   UNL     1       0.767  10.888  20.781  0.00  0.00    +0.000 C 
BRANCH  22  23
ATOM     23  OXT UNL     1       1.086  10.246  21.935  0.00  0.00    +0.000 OA
ATOM     24  HXT UNL     1       0.993   9.275  21.799  0.00  0.00    +0.000 HD
ENDBRANCH  22  23
ENDBRANCH   1  22
TORSDOF 2
ENDMDL
MODEL 9
REMARK VINA RESULT:      -6.2      6.987     10.166
REMARK  Name = 
REMARK  2 active torsions:
REMARK  status: ('A' for Active; 'I' for Inactive)
REMARK    1  A    between atoms: C_2  and  OXT_3
REMARK    2  A    between atoms: C_2  and  CA_4
REMARK                            x       y       z     vdW  Elec       q    Type
REMARK                         _______ _______ _______ _____ _____    ______ ____
ROOT
ATOM      1  CA  UNL     1      -1.557  12.084  21.445  0.00  0.00    +0.000 A 
ATOM      2  N   UNL     1      -0.973  11.199  20.569  0.00  0.00    +0.000 NA
ATOM      3  C   UNL     1      -1.502  11.008  19.352  0.00  0.00    +0.000 A 
ATOM      4  C   UNL     1      -0.854  10.179  18.446  0.00  0.00    +0.000 A 
ATOM      5  C   UNL     1      -1.357   9.954  17.158  0.00  0.00    +0.000 A 
ATOM      6  C   UNL     1      -2.544  10.564  16.761  0.00  0.00    +0.000 A 
ATOM      7  I   UNL     1      -3.295  10.233  14.854  0.00  0.00    +0.000 I 
ATOM      8  C   UNL     1      -3.226  11.401  17.641  0.00  0.00    +0.000 A 
ATOM      9  C   UNL     1      -2.694  11.624  18.931  0.00  0.00    +0.000 A 
ATOM     10  C   UNL     1      -3.317  12.479  19.871  0.00  0.00    +0.000 A 
ATOM     11  N   UNL     1      -4.484  13.199  19.784  0.00  0.00    +0.000 N 
ATOM     12  C   UNL     1      -4.731  13.889  20.945  0.00  0.00    +0.000 A 
ATOM     13  C   UNL     1      -5.809  14.717  21.284  0.00  0.00    +0.000 A 
ATOM     14 CL   UNL     1      -7.089  15.003  20.175  0.00  0.00    +0.000 Cl
ATOM     15  C   UNL     1      -5.826  15.303  22.550  0.00  0.00    +0.000 A 
ATOM     16  C   UNL     1      -4.793  15.059  23.445  0.00  0.00    +0.000 A 
ATOM     17  C   UNL     1      -3.722  14.224  23.093  0.00  0.00    +0.000 A 
ATOM     18  C   UNL     1      -3.674  13.623  21.814  0.00  0.00    +0.000 A 
ATOM     19  C   UNL     1      -2.766  12.732  21.134  0.00  0.00    +0.000 A 
ATOM     20  H   UNL     1      -5.103  13.216  18.985  0.00  0.00    +0.000 HD
ENDROOT
BRANCH   1  22
ATOM     21  O   UNL     1      -0.400  13.290  23.200  0.00  0.00    +0.000 OA
ATOM     22  C   UNL     1      -0.812  12.250  22.722  0.00  0.00    +0.000 C 
BRANCH  22  23
ATOM     23  OXT UNL     1      -0.623  11.038  23.305  0.00  0.00    +0.000 OA
ATOM     24  HXT UNL     1      -0.845  10.332  22.656  0.00  0.00    +0.000 HD
ENDBRANCH  22  23
ENDBRANCH   1  22
TORSDOF 2
ENDMDL
