MODEL 1
REMARK VINA RESULT:      -8.3      0.000      0.000
REMARK  Name = 
REMARK  5 active torsions:
REMARK  status: ('A' for Active; 'I' for Inactive)
REMARK    1  A    between atoms: C_1  and  S_2
REMARK    2  A    between atoms: S_2  and  C_3
REMARK    3  A    between atoms: N_9  and  C_10
REMARK    4  A    between atoms: C_13  and  C_14
REMARK    5  A    between atoms: C_19  and  C_20
REMARK                            x       y       z     vdW  Elec       q    Type
REMARK                         _______ _______ _______ _____ _____    ______ ____
ROOT
ATOM      1  C   UNL     1       3.538   4.180  19.270  0.00  0.00    +0.000 A 
ATOM      2  N   UNL     1       3.139   5.468  19.031  0.00  0.00    +0.000 NA
ATOM      3  C   UNL     1       3.552   6.067  17.967  0.00  0.00    +0.000 A 
ATOM      4  N   UNL     1       3.193   7.337  17.573  0.00  0.00    +0.000 N 
ATOM      5  C   UNL     1       2.277   8.071  18.300  0.00  0.00    +0.000 C 
ATOM      6  O   UNL     1       1.755   7.635  19.323  0.00  0.00    +0.000 OA
ATOM      7  N   UNL     1       1.997   9.319  17.776  0.00  0.00    +0.000 N 
ATOM      8  N   UNL     1       4.406   5.413  17.109  0.00  0.00    +0.000 N 
ATOM      9  N   UNL     1       4.948   5.893  15.976  0.00  0.00    +0.000 NA
ATOM     10  C   UNL     1       5.634   4.806  15.566  0.00  0.00    +0.000 A 
ATOM     11  N   UNL     1       5.524   3.703  16.389  0.00  0.00    +0.000 NA
ATOM     12  C   UNL     1       4.764   4.121  17.374  0.00  0.00    +0.000 A 
ATOM     13  N   UNL     1       4.320   3.492  18.495  0.00  0.00    +0.000 NA
ATOM     14  H   UNL     1       3.607   7.718  16.730  0.00  0.00    +0.000 HD
ATOM     15  H   UNL     1       2.176   9.475  16.793  0.00  0.00    +0.000 HD
ENDROOT
BRANCH   7  16
ATOM     16  C   UNL     1       1.188  10.283  18.441  0.00  0.00    +0.000 A 
ATOM     17  C   UNL     1       1.731  11.329  19.200  0.00  0.00    +0.000 A 
ATOM     18  C   UNL     1       0.920  12.252  19.861  0.00  0.00    +0.000 A 
ATOM     19  C   UNL     1      -0.466  12.170  19.757  0.00  0.00    +0.000 A 
ATOM     20  C   UNL     1      -1.330  13.181  20.449  0.00  0.00    +0.000 C 
ATOM     21  C   UNL     1      -1.023  11.138  18.990  0.00  0.00    +0.000 A 
ATOM     22  C   UNL     1      -0.204  10.206  18.331  0.00  0.00    +0.000 A 
ENDBRANCH   7  16
BRANCH  10  23
ATOM     23  C   UNL     1       6.471   4.774  14.330  0.00  0.00    +0.000 A 
ATOM     24  C   UNL     1       6.262   3.937  13.248  0.00  0.00    +0.000 A 
ATOM     25  C   UNL     1       7.290   4.208  12.314  0.00  0.00    +0.000 A 
ATOM     26  C   UNL     1       8.067   5.190  12.882  0.00  0.00    +0.000 A 
ATOM     27  O   UNL     1       7.571   5.553  14.093  0.00  0.00    +0.000 OA
ENDBRANCH  10  23
BRANCH   1  29
ATOM     28  C   UNL     1       1.134   3.432  20.372  0.00  0.00    +0.000 C 
ATOM     29  S   UNL     1       2.914   3.418  20.725  0.00  0.00    +0.000 S 
ENDBRANCH   1  29
TORSDOF 3
ENDMDL
MODEL 2
REMARK VINA RESULT:      -8.2      0.574      1.077
REMARK  Name = 
REMARK  5 active torsions:
REMARK  status: ('A' for Active; 'I' for Inactive)
REMARK    1  A    between atoms: C_1  and  S_2
REMARK    2  A    between atoms: S_2  and  C_3
REMARK    3  A    between atoms: N_9  and  C_10
REMARK    4  A    between atoms: C_13  and  C_14
REMARK    5  A    between atoms: C_19  and  C_20
REMARK                            x       y       z     vdW  Elec       q    Type
REMARK                         _______ _______ _______ _____ _____    ______ ____
ROOT
ATOM      1  C   UNL     1       3.211   4.631  19.671  0.00  0.00    +0.000 A 
ATOM      2  N   UNL     1       2.857   5.913  19.346  0.00  0.00    +0.000 NA
ATOM      3  C   UNL     1       3.294   6.427  18.248  0.00  0.00    +0.000 A 
ATOM      4  N   UNL     1       2.981   7.680  17.770  0.00  0.00    +0.000 N 
ATOM      5  C   UNL     1       2.088   8.490  18.442  0.00  0.00    +0.000 C 
ATOM      6  O   UNL     1       1.547   8.141  19.487  0.00  0.00    +0.000 OA
ATOM      7  N   UNL     1       1.852   9.710  17.835  0.00  0.00    +0.000 N 
ATOM      8  N   UNL     1       4.129   5.690  17.439  0.00  0.00    +0.000 N 
ATOM      9  N   UNL     1       4.692   6.076  16.281  0.00  0.00    +0.000 NA
ATOM     10  C   UNL     1       5.342   4.942  15.947  0.00  0.00    +0.000 A 
ATOM     11  N   UNL     1       5.191   3.900  16.839  0.00  0.00    +0.000 NA
ATOM     12  C   UNL     1       4.441   4.406  17.791  0.00  0.00    +0.000 A 
ATOM     13  N   UNL     1       3.971   3.868  18.947  0.00  0.00    +0.000 NA
ATOM     14  H   UNL     1       3.411   7.991  16.906  0.00  0.00    +0.000 HD
ATOM     15  H   UNL     1       2.040   9.795  16.846  0.00  0.00    +0.000 HD
ENDROOT
BRANCH   7  16
ATOM     16  C   UNL     1       1.074  10.743  18.431  0.00  0.00    +0.000 A 
ATOM     17  C   UNL     1      -0.317  10.653  18.572  0.00  0.00    +0.000 A 
ATOM     18  C   UNL     1      -1.063  11.686  19.139  0.00  0.00    +0.000 A 
ATOM     19  C   UNL     1      -0.431  12.833  19.609  0.00  0.00    +0.000 A 
ATOM     20  C   UNL     1      -1.237  13.929  20.242  0.00  0.00    +0.000 C 
ATOM     21  C   UNL     1       0.962  12.931  19.488  0.00  0.00    +0.000 A 
ATOM     22  C   UNL     1       1.710  11.892  18.910  0.00  0.00    +0.000 A 
ENDBRANCH   7  16
BRANCH  10  23
ATOM     23  C   UNL     1       6.182   4.800  14.721  0.00  0.00    +0.000 A 
ATOM     24  C   UNL     1       5.902   3.962  13.656  0.00  0.00    +0.000 A 
ATOM     25  C   UNL     1       6.959   4.111  12.727  0.00  0.00    +0.000 A 
ATOM     26  C   UNL     1       7.822   5.026  13.281  0.00  0.00    +0.000 A 
ATOM     27  O   UNL     1       7.354   5.464  14.478  0.00  0.00    +0.000 OA
ENDBRANCH  10  23
BRANCH   1  29
ATOM     28  C   UNL     1       1.077   3.136  20.548  0.00  0.00    +0.000 C 
ATOM     29  S   UNL     1       2.556   3.987  21.169  0.00  0.00    +0.000 S 
ENDBRANCH   1  29
TORSDOF 3
ENDMDL
MODEL 3
REMARK VINA RESULT:      -7.8      5.033      7.474
REMARK  Name = 
REMARK  5 active torsions:
REMARK  status: ('A' for Active; 'I' for Inactive)
REMARK    1  A    between atoms: C_1  and  S_2
REMARK    2  A    between atoms: S_2  and  C_3
REMARK    3  A    between atoms: N_9  and  C_10
REMARK    4  A    between atoms: C_13  and  C_14
REMARK    5  A    between atoms: C_19  and  C_20
REMARK                            x       y       z     vdW  Elec       q    Type
REMARK                         _______ _______ _______ _____ _____    ______ ____
ROOT
ATOM      1  C   UNL     1       6.657   4.979  15.253  0.00  0.00    +0.000 A 
ATOM      2  N   UNL     1       7.017   6.071  15.997  0.00  0.00    +0.000 NA
ATOM      3  C   UNL     1       6.494   6.238  17.163  0.00  0.00    +0.000 A 
ATOM      4  N   UNL     1       6.799   7.257  18.038  0.00  0.00    +0.000 N 
ATOM      5  C   UNL     1       7.775   8.184  17.732  0.00  0.00    +0.000 C 
ATOM      6  O   UNL     1       8.400   8.150  16.675  0.00  0.00    +0.000 OA
ATOM      7  N   UNL     1       7.989   9.135  18.711  0.00  0.00    +0.000 N 
ATOM      8  N   UNL     1       5.566   5.334  17.626  0.00  0.00    +0.000 N 
ATOM      9  N   UNL     1       4.909   5.368  18.799  0.00  0.00    +0.000 NA
ATOM     10  C   UNL     1       4.197   4.227  18.702  0.00  0.00    +0.000 A 
ATOM     11  N   UNL     1       4.400   3.511  17.540  0.00  0.00    +0.000 NA
ATOM     12  C   UNL     1       5.250   4.246  16.861  0.00  0.00    +0.000 A 
ATOM     13  N   UNL     1       5.809   4.072  15.634  0.00  0.00    +0.000 NA
ATOM     14  H   UNL     1       6.300   7.305  18.919  0.00  0.00    +0.000 HD
ATOM     15  H   UNL     1       7.712   8.916  19.658  0.00  0.00    +0.000 HD
ENDROOT
BRANCH   7  16
ATOM     16  C   UNL     1       8.850  10.256  18.539  0.00  0.00    +0.000 A 
ATOM     17  C   UNL     1       8.548  11.313  17.669  0.00  0.00    +0.000 A 
ATOM     18  C   UNL     1       9.416  12.392  17.499  0.00  0.00    +0.000 A 
ATOM     19  C   UNL     1      10.604  12.458  18.221  0.00  0.00    +0.000 A 
ATOM     20  C   UNL     1      11.519  13.634  18.052  0.00  0.00    +0.000 C 
ATOM     21  C   UNL     1      10.913  11.416  19.106  0.00  0.00    +0.000 A 
ATOM     22  C   UNL     1      10.040  10.327  19.269  0.00  0.00    +0.000 A 
ENDBRANCH   7  16
BRANCH  10  23
ATOM     23  C   UNL     1       3.242   3.756  19.749  0.00  0.00    +0.000 A 
ATOM     24  C   UNL     1       1.986   4.288  19.980  0.00  0.00    +0.000 A 
ATOM     25  C   UNL     1       1.433   3.577  21.071  0.00  0.00    +0.000 A 
ATOM     26  C   UNL     1       2.384   2.657  21.444  0.00  0.00    +0.000 A 
ATOM     27  O   UNL     1       3.475   2.743  20.640  0.00  0.00    +0.000 OA
ENDBRANCH  10  23
BRANCH   1  29
ATOM     28  C   UNL     1       6.259   3.683  12.862  0.00  0.00    +0.000 C 
ATOM     29  S   UNL     1       7.430   4.801  13.685  0.00  0.00    +0.000 S 
ENDBRANCH   1  29
TORSDOF 3
ENDMDL
MODEL 4
REMARK VINA RESULT:      -7.6      0.603      1.199
REMARK  Name = 
REMARK  5 active torsions:
REMARK  status: ('A' for Active; 'I' for Inactive)
REMARK    1  A    between atoms: C_1  and  S_2
REMARK    2  A    between atoms: S_2  and  C_3
REMARK    3  A    between atoms: N_9  and  C_10
REMARK    4  A    between atoms: C_13  and  C_14
REMARK    5  A    between atoms: C_19  and  C_20
REMARK                            x       y       z     vdW  Elec       q    Type
REMARK                         _______ _______ _______ _____ _____    ______ ____
ROOT
ATOM      1  C   UNL     1       3.556   4.008  19.294  0.00  0.00    +0.000 A 
ATOM      2  N   UNL     1       3.152   5.291  19.041  0.00  0.00    +0.000 NA
ATOM      3  C   UNL     1       3.524   5.865  17.948  0.00  0.00    +0.000 A 
ATOM      4  N   UNL     1       3.154   7.126  17.539  0.00  0.00    +0.000 N 
ATOM      5  C   UNL     1       2.268   7.879  18.284  0.00  0.00    +0.000 C 
ATOM      6  O   UNL     1       1.785   7.469  19.336  0.00  0.00    +0.000 OA
ATOM      7  N   UNL     1       1.971   9.116  17.743  0.00  0.00    +0.000 N 
ATOM      8  N   UNL     1       4.343   5.188  17.073  0.00  0.00    +0.000 N 
ATOM      9  N   UNL     1       4.842   5.640  15.909  0.00  0.00    +0.000 NA
ATOM     10  C   UNL     1       5.510   4.542  15.499  0.00  0.00    +0.000 A 
ATOM     11  N   UNL     1       5.428   3.459  16.350  0.00  0.00    +0.000 NA
ATOM     12  C   UNL     1       4.708   3.901  17.354  0.00  0.00    +0.000 A 
ATOM     13  N   UNL     1       4.306   3.300  18.505  0.00  0.00    +0.000 NA
ATOM     14  H   UNL     1       3.536   7.487  16.672  0.00  0.00    +0.000 HD
ATOM     15  H   UNL     1       2.112   9.249  16.750  0.00  0.00    +0.000 HD
ENDROOT
BRANCH   7  16
ATOM     16  C   UNL     1       1.191  10.098  18.416  0.00  0.00    +0.000 A 
ATOM     17  C   UNL     1      -0.210  10.106  18.375  0.00  0.00    +0.000 A 
ATOM     18  C   UNL     1      -0.955  11.091  19.025  0.00  0.00    +0.000 A 
ATOM     19  C   UNL     1      -0.316  12.084  19.761  0.00  0.00    +0.000 A 
ATOM     20  C   UNL     1      -1.125  13.124  20.477  0.00  0.00    +0.000 C 
ATOM     21  C   UNL     1       1.083  12.081  19.823  0.00  0.00    +0.000 A 
ATOM     22  C   UNL     1       1.832  11.092  19.161  0.00  0.00    +0.000 A 
ENDBRANCH   7  16
BRANCH  10  23
ATOM     23  C   UNL     1       6.297   4.478  14.232  0.00  0.00    +0.000 A 
ATOM     24  C   UNL     1       7.401   5.260  13.939  0.00  0.00    +0.000 A 
ATOM     25  C   UNL     1       7.823   4.904  12.636  0.00  0.00    +0.000 A 
ATOM     26  C   UNL     1       6.951   3.930  12.209  0.00  0.00    +0.000 A 
ATOM     27  O   UNL     1       6.035   3.652  13.173  0.00  0.00    +0.000 OA
ENDBRANCH  10  23
BRANCH   1  29
ATOM     28  C   UNL     1       1.240   3.773  20.756  0.00  0.00    +0.000 C 
ATOM     29  S   UNL     1       2.987   3.281  20.790  0.00  0.00    +0.000 S 
ENDBRANCH   1  29
TORSDOF 3
ENDMDL
MODEL 5
REMARK VINA RESULT:      -7.4      1.116      1.256
REMARK  Name = 
REMARK  5 active torsions:
REMARK  status: ('A' for Active; 'I' for Inactive)
REMARK    1  A    between atoms: C_1  and  S_2
REMARK    2  A    between atoms: S_2  and  C_3
REMARK    3  A    between atoms: N_9  and  C_10
REMARK    4  A    between atoms: C_13  and  C_14
REMARK    5  A    between atoms: C_19  and  C_20
REMARK                            x       y       z     vdW  Elec       q    Type
REMARK                         _______ _______ _______ _____ _____    ______ ____
ROOT
ATOM      1  C   UNL     1       2.754   4.723  19.856  0.00  0.00    +0.000 A 
ATOM      2  N   UNL     1       2.504   6.024  19.509  0.00  0.00    +0.000 NA
ATOM      3  C   UNL     1       2.975   6.481  18.399  0.00  0.00    +0.000 A 
ATOM      4  N   UNL     1       2.761   7.747  17.900  0.00  0.00    +0.000 N 
ATOM      5  C   UNL     1       1.940   8.638  18.561  0.00  0.00    +0.000 C 
ATOM      6  O   UNL     1       1.379   8.352  19.615  0.00  0.00    +0.000 OA
ATOM      7  N   UNL     1       1.801   9.862  17.934  0.00  0.00    +0.000 N 
ATOM      8  N   UNL     1       3.743   5.665  17.601  0.00  0.00    +0.000 N 
ATOM      9  N   UNL     1       4.328   5.983  16.433  0.00  0.00    +0.000 NA
ATOM     10  C   UNL     1       4.883   4.795  16.118  0.00  0.00    +0.000 A 
ATOM     11  N   UNL     1       4.653   3.784  17.029  0.00  0.00    +0.000 NA
ATOM     12  C   UNL     1       3.952   4.366  17.975  0.00  0.00    +0.000 A 
ATOM     13  N   UNL     1       3.447   3.888  19.143  0.00  0.00    +0.000 NA
ATOM     14  H   UNL     1       3.210   8.006  17.029  0.00  0.00    +0.000 HD
ATOM     15  H   UNL     1       1.989   9.914  16.942  0.00  0.00    +0.000 HD
ENDROOT
BRANCH   7  16
ATOM     16  C   UNL     1       1.112  10.965  18.513  0.00  0.00    +0.000 A 
ATOM     17  C   UNL     1       1.777  12.105  18.986  0.00  0.00    +0.000 A 
ATOM     18  C   UNL     1       1.084  13.166  19.570  0.00  0.00    +0.000 A 
ATOM     19  C   UNL     1      -0.303  13.129  19.672  0.00  0.00    +0.000 A 
ATOM     20  C   UNL     1      -1.042  14.284  20.278  0.00  0.00    +0.000 C 
ATOM     21  C   UNL     1      -0.982  12.002  19.191  0.00  0.00    +0.000 A 
ATOM     22  C   UNL     1      -0.282  10.931  18.610  0.00  0.00    +0.000 A 
ENDBRANCH   7  16
BRANCH  10  23
ATOM     23  C   UNL     1       5.701   4.564  14.891  0.00  0.00    +0.000 A 
ATOM     24  C   UNL     1       6.913   5.171  14.615  0.00  0.00    +0.000 A 
ATOM     25  C   UNL     1       7.331   4.700  13.347  0.00  0.00    +0.000 A 
ATOM     26  C   UNL     1       6.348   3.837  12.923  0.00  0.00    +0.000 A 
ATOM     27  O   UNL     1       5.366   3.733  13.856  0.00  0.00    +0.000 OA
ENDBRANCH  10  23
BRANCH   1  29
ATOM     28  C   UNL     1       2.907   2.567  21.554  0.00  0.00    +0.000 C 
ATOM     29  S   UNL     1       2.058   4.161  21.368  0.00  0.00    +0.000 S 
ENDBRANCH   1  29
TORSDOF 3
ENDMDL
MODEL 6
REMARK VINA RESULT:      -7.3      1.000      1.112
REMARK  Name = 
REMARK  5 active torsions:
REMARK  status: ('A' for Active; 'I' for Inactive)
REMARK    1  A    between atoms: C_1  and  S_2
REMARK    2  A    between atoms: S_2  and  C_3
REMARK    3  A    between atoms: N_9  and  C_10
REMARK    4  A    between atoms: C_13  and  C_14
REMARK    5  A    between atoms: C_19  and  C_20
REMARK                            x       y       z     vdW  Elec       q    Type
REMARK                         _______ _______ _______ _____ _____    ______ ____
ROOT
ATOM      1  C   UNL     1       3.771   3.552  19.376  0.00  0.00    +0.000 A 
ATOM      2  N   UNL     1       3.304   4.830  19.224  0.00  0.00    +0.000 NA
ATOM      3  C   UNL     1       3.620   5.494  18.165  0.00  0.00    +0.000 A 
ATOM      4  N   UNL     1       3.183   6.763  17.856  0.00  0.00    +0.000 N 
ATOM      5  C   UNL     1       2.287   7.421  18.674  0.00  0.00    +0.000 C 
ATOM      6  O   UNL     1       1.852   6.918  19.706  0.00  0.00    +0.000 OA
ATOM      7  N   UNL     1       1.920   8.677  18.228  0.00  0.00    +0.000 N 
ATOM      8  N   UNL     1       4.442   4.918  17.224  0.00  0.00    +0.000 N 
ATOM      9  N   UNL     1       4.888   5.472  16.082  0.00  0.00    +0.000 NA
ATOM     10  C   UNL     1       5.591   4.437  15.579  0.00  0.00    +0.000 A 
ATOM     11  N   UNL     1       5.581   3.294  16.354  0.00  0.00    +0.000 NA
ATOM     12  C   UNL     1       4.871   3.633  17.405  0.00  0.00    +0.000 A 
ATOM     13  N   UNL     1       4.529   2.935  18.520  0.00  0.00    +0.000 NA
ATOM     14  H   UNL     1       3.524   7.199  17.007  0.00  0.00    +0.000 HD
ATOM     15  H   UNL     1       2.027   8.885  17.245  0.00  0.00    +0.000 HD
ENDROOT
BRANCH   7  16
ATOM     16  C   UNL     1       1.117   9.574  18.988  0.00  0.00    +0.000 A 
ATOM     17  C   UNL     1       1.348   9.826  20.348  0.00  0.00    +0.000 A 
ATOM     18  C   UNL     1       0.535  10.693  21.080  0.00  0.00    +0.000 A 
ATOM     19  C   UNL     1      -0.519  11.357  20.461  0.00  0.00    +0.000 A 
ATOM     20  C   UNL     1      -1.372  12.307  21.248  0.00  0.00    +0.000 C 
ATOM     21  C   UNL     1      -0.753  11.127  19.099  0.00  0.00    +0.000 A 
ATOM     22  C   UNL     1       0.063  10.248  18.365  0.00  0.00    +0.000 A 
ENDBRANCH   7  16
BRANCH  10  23
ATOM     23  C   UNL     1       6.344   4.497  14.291  0.00  0.00    +0.000 A 
ATOM     24  C   UNL     1       7.406   5.344  14.028  0.00  0.00    +0.000 A 
ATOM     25  C   UNL     1       7.806   5.100  12.693  0.00  0.00    +0.000 A 
ATOM     26  C   UNL     1       6.962   4.122  12.219  0.00  0.00    +0.000 A 
ATOM     27  O   UNL     1       6.086   3.737  13.183  0.00  0.00    +0.000 OA
ENDBRANCH  10  23
BRANCH   1  29
ATOM     28  C   UNL     1       2.016   3.835  21.472  0.00  0.00    +0.000 C 
ATOM     29  S   UNL     1       3.278   2.698  20.830  0.00  0.00    +0.000 S 
ENDBRANCH   1  29
TORSDOF 3
ENDMDL
MODEL 7
REMARK VINA RESULT:      -6.7      1.879      8.349
REMARK  Name = 
REMARK  5 active torsions:
REMARK  status: ('A' for Active; 'I' for Inactive)
REMARK    1  A    between atoms: C_1  and  S_2
REMARK    2  A    between atoms: S_2  and  C_3
REMARK    3  A    between atoms: N_9  and  C_10
REMARK    4  A    between atoms: C_13  and  C_14
REMARK    5  A    between atoms: C_19  and  C_20
REMARK                            x       y       z     vdW  Elec       q    Type
REMARK                         _______ _______ _______ _____ _____    ______ ____
ROOT
ATOM      1  C   UNL     1       2.685   4.209  20.359  0.00  0.00    +0.000 A 
ATOM      2  N   UNL     1       3.224   4.480  19.130  0.00  0.00    +0.000 NA
ATOM      3  C   UNL     1       3.122   5.670  18.647  0.00  0.00    +0.000 A 
ATOM      4  N   UNL     1       3.657   6.098  17.452  0.00  0.00    +0.000 N 
ATOM      5  C   UNL     1       4.427   5.252  16.679  0.00  0.00    +0.000 C 
ATOM      6  O   UNL     1       4.657   4.092  17.010  0.00  0.00    +0.000 OA
ATOM      7  N   UNL     1       4.916   5.822  15.519  0.00  0.00    +0.000 N 
ATOM      8  N   UNL     1       2.450   6.636  19.360  0.00  0.00    +0.000 N 
ATOM      9  N   UNL     1       2.230   7.912  18.998  0.00  0.00    +0.000 NA
ATOM     10  C   UNL     1       1.581   8.358  20.093  0.00  0.00    +0.000 A 
ATOM     11  N   UNL     1       1.410   7.420  21.091  0.00  0.00    +0.000 NA
ATOM     12  C   UNL     1       1.944   6.329  20.592  0.00  0.00    +0.000 A 
ATOM     13  N   UNL     1       2.060   5.073  21.099  0.00  0.00    +0.000 NA
ATOM     14  H   UNL     1       3.486   7.053  17.158  0.00  0.00    +0.000 HD
ATOM     15  H   UNL     1       4.988   6.830  15.476  0.00  0.00    +0.000 HD
ENDROOT
BRANCH   7  16
ATOM     16  C   UNL     1       5.614   5.087  14.519  0.00  0.00    +0.000 A 
ATOM     17  C   UNL     1       6.983   5.259  14.274  0.00  0.00    +0.000 A 
ATOM     18  C   UNL     1       7.643   4.544  13.274  0.00  0.00    +0.000 A 
ATOM     19  C   UNL     1       6.953   3.610  12.506  0.00  0.00    +0.000 A 
ATOM     20  C   UNL     1       7.675   2.826  11.451  0.00  0.00    +0.000 C 
ATOM     21  C   UNL     1       5.587   3.417  12.750  0.00  0.00    +0.000 A 
ATOM     22  C   UNL     1       4.923   4.144  13.752  0.00  0.00    +0.000 A 
ENDBRANCH   7  16
BRANCH  10  23
ATOM     23  C   UNL     1       1.063   9.751  20.238  0.00  0.00    +0.000 A 
ATOM     24  C   UNL     1       0.434  10.475  19.240  0.00  0.00    +0.000 A 
ATOM     25  C   UNL     1       0.133  11.747  19.782  0.00  0.00    +0.000 A 
ATOM     26  C   UNL     1       0.599  11.726  21.076  0.00  0.00    +0.000 A 
ATOM     27  O   UNL     1       1.146  10.517  21.368  0.00  0.00    +0.000 OA
ENDBRANCH  10  23
BRANCH   1  29
ATOM     28  C   UNL     1       4.415   2.087  20.116  0.00  0.00    +0.000 C 
ATOM     29  S   UNL     1       2.886   2.572  20.966  0.00  0.00    +0.000 S 
ENDBRANCH   1  29
TORSDOF 3
ENDMDL
MODEL 8
REMARK VINA RESULT:      -6.7      1.032      1.044
REMARK  Name = 
REMARK  5 active torsions:
REMARK  status: ('A' for Active; 'I' for Inactive)
REMARK    1  A    between atoms: C_1  and  S_2
REMARK    2  A    between atoms: S_2  and  C_3
REMARK    3  A    between atoms: N_9  and  C_10
REMARK    4  A    between atoms: C_13  and  C_14
REMARK    5  A    between atoms: C_19  and  C_20
REMARK                            x       y       z     vdW  Elec       q    Type
REMARK                         _______ _______ _______ _____ _____    ______ ____
ROOT
ATOM      1  C   UNL     1       2.659   3.711  19.197  0.00  0.00    +0.000 A 
ATOM      2  N   UNL     1       2.431   5.061  19.162  0.00  0.00    +0.000 NA
ATOM      3  C   UNL     1       3.023   5.776  18.268  0.00  0.00    +0.000 A 
ATOM      4  N   UNL     1       2.851   7.130  18.082  0.00  0.00    +0.000 N 
ATOM      5  C   UNL     1       1.942   7.837  18.843  0.00  0.00    +0.000 C 
ATOM      6  O   UNL     1       1.264   7.303  19.716  0.00  0.00    +0.000 OA
ATOM      7  N   UNL     1       1.858   9.182  18.532  0.00  0.00    +0.000 N 
ATOM      8  N   UNL     1       3.894   5.176  17.387  0.00  0.00    +0.000 N 
ATOM      9  N   UNL     1       4.610   5.770  16.416  0.00  0.00    +0.000 NA
ATOM     10  C   UNL     1       5.217   4.691  15.880  0.00  0.00    +0.000 A 
ATOM     11  N   UNL     1       4.896   3.487  16.473  0.00  0.00    +0.000 NA
ATOM     12  C   UNL     1       4.078   3.822  17.444  0.00  0.00    +0.000 A 
ATOM     13  N   UNL     1       3.445   3.073  18.385  0.00  0.00    +0.000 NA
ATOM     14  H   UNL     1       3.396   7.594  17.365  0.00  0.00    +0.000 HD
ATOM     15  H   UNL     1       2.163   9.480  17.615  0.00  0.00    +0.000 HD
ENDROOT
BRANCH   7  16
ATOM     16  C   UNL     1       1.088  10.113  19.284  0.00  0.00    +0.000 A 
ATOM     17  C   UNL     1       1.167  10.203  20.681  0.00  0.00    +0.000 A 
ATOM     18  C   UNL     1       0.386  11.109  21.401  0.00  0.00    +0.000 A 
ATOM     19  C   UNL     1      -0.478  11.974  20.737  0.00  0.00    +0.000 A 
ATOM     20  C   UNL     1      -1.294  12.962  21.516  0.00  0.00    +0.000 C 
ATOM     21  C   UNL     1      -0.557  11.905  19.340  0.00  0.00    +0.000 A 
ATOM     22  C   UNL     1       0.225  10.987  18.617  0.00  0.00    +0.000 A 
ENDBRANCH   7  16
BRANCH  10  23
ATOM     23  C   UNL     1       6.180   4.765  14.741  0.00  0.00    +0.000 A 
ATOM     24  C   UNL     1       6.082   4.041  13.567  0.00  0.00    +0.000 A 
ATOM     25  C   UNL     1       7.205   4.385  12.777  0.00  0.00    +0.000 A 
ATOM     26  C   UNL     1       7.924   5.294  13.517  0.00  0.00    +0.000 A 
ATOM     27  O   UNL     1       7.304   5.546  14.699  0.00  0.00    +0.000 OA
ENDBRANCH  10  23
BRANCH   1  29
ATOM     28  C   UNL     1       3.162   2.365  21.541  0.00  0.00    +0.000 C 
ATOM     29  S   UNL     1       1.796   2.796  20.425  0.00  0.00    +0.000 S 
ENDBRANCH   1  29
TORSDOF 3
ENDMDL
MODEL 9
REMARK VINA RESULT:      -6.7      3.930      9.055
REMARK  Name = 
REMARK  5 active torsions:
REMARK  status: ('A' for Active; 'I' for Inactive)
REMARK    1  A    between atoms: C_1  and  S_2
REMARK    2  A    between atoms: S_2  and  C_3
REMARK    3  A    between atoms: N_9  and  C_10
REMARK    4  A    between atoms: C_13  and  C_14
REMARK    5  A    between atoms: C_19  and  C_20
REMARK                            x       y       z     vdW  Elec       q    Type
REMARK                         _______ _______ _______ _____ _____    ______ ____
ROOT
ATOM      1  C   UNL     1      -0.104  11.130  21.813  0.00  0.00    +0.000 A 
ATOM      2  N   UNL     1       0.494  10.244  20.957  0.00  0.00    +0.000 NA
ATOM      3  C   UNL     1       1.182  10.693  19.964  0.00  0.00    +0.000 A 
ATOM      4  N   UNL     1       1.876   9.924  19.057  0.00  0.00    +0.000 N 
ATOM      5  C   UNL     1       1.932   8.551  19.191  0.00  0.00    +0.000 C 
ATOM      6  O   UNL     1       1.363   7.960  20.105  0.00  0.00    +0.000 OA
ATOM      7  N   UNL     1       2.682   7.911  18.223  0.00  0.00    +0.000 N 
ATOM      8  N   UNL     1       1.278  12.052  19.766  0.00  0.00    +0.000 N 
ATOM      9  N   UNL     1       1.929  12.687  18.776  0.00  0.00    +0.000 NA
ATOM     10  C   UNL     1       1.708  13.969  19.135  0.00  0.00    +0.000 A 
ATOM     11  N   UNL     1       0.968  14.131  20.289  0.00  0.00    +0.000 NA
ATOM     12  C   UNL     1       0.683  12.903  20.656  0.00  0.00    +0.000 A 
ATOM     13  N   UNL     1      -0.035  12.422  21.705  0.00  0.00    +0.000 NA
ATOM     14  H   UNL     1       2.358  10.389  18.296  0.00  0.00    +0.000 HD
ATOM     15  H   UNL     1       3.383   8.448  17.730  0.00  0.00    +0.000 HD
ENDROOT
BRANCH   7  16
ATOM     16  C   UNL     1       2.755   6.495  18.098  0.00  0.00    +0.000 A 
ATOM     17  C   UNL     1       1.625   5.699  17.865  0.00  0.00    +0.000 A 
ATOM     18  C   UNL     1       1.716   4.310  17.767  0.00  0.00    +0.000 A 
ATOM     19  C   UNL     1       2.951   3.678  17.872  0.00  0.00    +0.000 A 
ATOM     20  C   UNL     1       3.044   2.187  17.740  0.00  0.00    +0.000 C 
ATOM     21  C   UNL     1       4.092   4.462  18.090  0.00  0.00    +0.000 A 
ATOM     22  C   UNL     1       3.997   5.860  18.196  0.00  0.00    +0.000 A 
ENDBRANCH   7  16
BRANCH  10  23
ATOM     23  C   UNL     1       2.200  15.143  18.355  0.00  0.00    +0.000 A 
ATOM     24  C   UNL     1       3.361  15.170  17.603  0.00  0.00    +0.000 A 
ATOM     25  C   UNL     1       3.467  16.472  17.058  0.00  0.00    +0.000 A 
ATOM     26  C   UNL     1       2.368  17.162  17.512  0.00  0.00    +0.000 A 
ATOM     27  O   UNL     1       1.585  16.364  18.282  0.00  0.00    +0.000 OA
ENDBRANCH  10  23
BRANCH   1  29
ATOM     28  C   UNL     1      -2.313  11.687  23.351  0.00  0.00    +0.000 C 
ATOM     29  S   UNL     1      -1.002  10.446  23.159  0.00  0.00    +0.000 S 
ENDBRANCH   1  29
TORSDOF 3
ENDMDL
