MODEL 1
REMARK VINA RESULT:      -8.6      0.000      0.000
REMARK  Name = 
REMARK  9 active torsions:
REMARK  status: ('A' for Active; 'I' for Inactive)
REMARK    1  A    between atoms: C_1  and  C_2
REMARK    2  A    between atoms: C_2  and  O_3
REMARK    3  A    between atoms: O_3  and  C_4
REMARK    4  A    between atoms: C_4  and  C_6
REMARK    5  A    between atoms: N_8  and  C_9
REMARK    6  A    between atoms: C_9  and  C_10
REMARK    7  A    between atoms: C_14  and  O_15
REMARK    8  A    between atoms: O_15  and  C_16
REMARK    9  A    between atoms: C_22  and  C_24
REMARK                            x       y       z     vdW  Elec       q    Type
REMARK                         _______ _______ _______ _____ _____    ______ ____
ROOT
ATOM      1  C   UNL     1       0.496   9.350  21.690  0.00  0.00    +0.000 A 
ATOM      2  N   UNL     1       1.453   8.422  21.461  0.00  0.00    +0.000 NA
ATOM      3  N   UNL     1       1.629   8.391  20.134  0.00  0.00    +0.000 N 
ATOM      4  C   UNL     1       0.847   9.318  19.503  0.00  0.00    +0.000 A 
ATOM      5  C   UNL     1       0.053   9.903  20.459  0.00  0.00    +0.000 A 
ATOM      6  C   UNL     1      -0.962  10.993  20.151  0.00  0.00    +0.000 C 
ATOM      7  N   UNL     1      -0.973  11.250  18.706  0.00  0.00    +0.000 N 
ATOM      8  C   UNL     1      -2.104  11.397  17.894  0.00  0.00    +0.000 C 
ATOM      9  O   UNL     1      -1.976  11.391  16.669  0.00  0.00    +0.000 OA
ATOM     10  C   UNL     1       0.321  11.156  18.010  0.00  0.00    +0.000 C 
ATOM     11  C   UNL     1       0.848   9.698  18.064  0.00  0.00    +0.000 C 
ENDROOT
BRANCH   8  12
ATOM     12  C   UNL     1      -3.425  11.547  18.461  0.00  0.00    +0.000 A 
ATOM     13  C   UNL     1      -4.581  10.931  18.004  0.00  0.00    +0.000 A 
ATOM     14  C   UNL     1      -5.650  11.589  18.622  0.00  0.00    +0.000 A 
ATOM     15  C   UNL     1      -7.043  11.463  18.547  0.00  0.00    +0.000 A 
ATOM     16  C   UNL     1      -7.517  11.146  19.812  0.00  0.00    +0.000 A 
ATOM     17  C   UNL     1      -7.014  11.816  20.938  0.00  0.00    +0.000 A 
ATOM     18  C   UNL     1      -5.824  12.559  20.847  0.00  0.00    +0.000 A 
ATOM     19  C   UNL     1      -5.086  12.259  19.703  0.00  0.00    +0.000 A 
ATOM     20  O   UNL     1      -3.737  12.388  19.504  0.00  0.00    +0.000 OA
ENDBRANCH   8  12
BRANCH   1  21
ATOM     21  C   UNL     1       0.070   9.745  23.046  0.00  0.00    +0.000 C 
ATOM     22  O   UNL     1       0.766   9.543  24.041  0.00  0.00    +0.000 OA
BRANCH  21  23
ATOM     23  O   UNL     1      -1.202  10.233  23.082  0.00  0.00    +0.000 OA
BRANCH  23  25
ATOM     24  C   UNL     1      -2.802  12.007  23.172  0.00  0.00    +0.000 C 
ATOM     25  C   UNL     1      -1.334  11.641  23.305  0.00  0.00    +0.000 C 
ENDBRANCH  23  25
ENDBRANCH  21  23
ENDBRANCH   1  21
BRANCH   3  26
ATOM     26  C   UNL     1       2.601   7.471  19.546  0.00  0.00    +0.000 C 
BRANCH  26  27
ATOM     27  C   UNL     1       1.994   6.103  19.353  0.00  0.00    +0.000 A 
ATOM     28  C   UNL     1       1.923   5.527  18.076  0.00  0.00    +0.000 A 
ATOM     29  C   UNL     1       1.536   4.198  17.924  0.00  0.00    +0.000 A 
ATOM     30  C   UNL     1       1.235   3.431  19.049  0.00  0.00    +0.000 A 
ATOM     31  C   UNL     1       1.259   3.999  20.324  0.00  0.00    +0.000 A 
ATOM     32  C   UNL     1       1.588   5.348  20.465  0.00  0.00    +0.000 A 
BRANCH  31  33
ATOM     33  O   UNL     1       0.992   3.130  21.346  0.00  0.00    +0.000 OA
ATOM     34  C   UNL     1       2.060   2.300  21.788  0.00  0.00    +0.000 C 
ENDBRANCH  31  33
ENDBRANCH  26  27
ENDBRANCH   3  26
TORSDOF 7
ENDMDL
MODEL 2
REMARK VINA RESULT:      -8.2      2.554      4.904
REMARK  Name = 
REMARK  9 active torsions:
REMARK  status: ('A' for Active; 'I' for Inactive)
REMARK    1  A    between atoms: C_1  and  C_2
REMARK    2  A    between atoms: C_2  and  O_3
REMARK    3  A    between atoms: O_3  and  C_4
REMARK    4  A    between atoms: C_4  and  C_6
REMARK    5  A    between atoms: N_8  and  C_9
REMARK    6  A    between atoms: C_9  and  C_10
REMARK    7  A    between atoms: C_14  and  O_15
REMARK    8  A    between atoms: O_15  and  C_16
REMARK    9  A    between atoms: C_22  and  C_24
REMARK                            x       y       z     vdW  Elec       q    Type
REMARK                         _______ _______ _______ _____ _____    ______ ____
ROOT
ATOM      1  C   UNL     1      -0.187   9.962  18.000  0.00  0.00    +0.000 A 
ATOM      2  N   UNL     1       0.880   9.398  17.391  0.00  0.00    +0.000 NA
ATOM      3  N   UNL     1       1.612   8.841  18.364  0.00  0.00    +0.000 N 
ATOM      4  C   UNL     1       1.012   8.984  19.584  0.00  0.00    +0.000 A 
ATOM      5  C   UNL     1      -0.106   9.759  19.404  0.00  0.00    +0.000 A 
ATOM      6  C   UNL     1      -1.048  10.147  20.533  0.00  0.00    +0.000 C 
ATOM      7  N   UNL     1      -0.532   9.610  21.799  0.00  0.00    +0.000 N 
ATOM      8  C   UNL     1      -0.443  10.291  23.019  0.00  0.00    +0.000 C 
ATOM      9  O   UNL     1       0.207   9.799  23.942  0.00  0.00    +0.000 OA
ATOM     10  C   UNL     1       0.129   8.296  21.737  0.00  0.00    +0.000 C 
ATOM     11  C   UNL     1       1.424   8.393  20.888  0.00  0.00    +0.000 C 
ENDROOT
BRANCH   8  12
ATOM     12  C   UNL     1      -1.091  11.567  23.218  0.00  0.00    +0.000 A 
ATOM     13  C   UNL     1      -2.458  11.775  23.339  0.00  0.00    +0.000 A 
ATOM     14  C   UNL     1      -2.662  13.152  23.197  0.00  0.00    +0.000 A 
ATOM     15  C   UNL     1      -3.798  13.971  23.185  0.00  0.00    +0.000 A 
ATOM     16  C   UNL     1      -3.689  14.879  24.230  0.00  0.00    +0.000 A 
ATOM     17  C   UNL     1      -2.464  15.519  24.476  0.00  0.00    +0.000 A 
ATOM     18  C   UNL     1      -1.279  15.027  23.903  0.00  0.00    +0.000 A 
ATOM     19  C   UNL     1      -1.414  13.727  23.417  0.00  0.00    +0.000 A 
ATOM     20  O   UNL     1      -0.440  12.778  23.247  0.00  0.00    +0.000 OA
ENDBRANCH   8  12
BRANCH   1  21
ATOM     21  C   UNL     1      -1.285  10.610  17.258  0.00  0.00    +0.000 C 
ATOM     22  O   UNL     1      -1.549  11.806  17.382  0.00  0.00    +0.000 OA
BRANCH  21  23
ATOM     23  O   UNL     1      -2.030   9.728  16.534  0.00  0.00    +0.000 OA
BRANCH  23  25
ATOM     24  C   UNL     1      -2.979  10.061  14.365  0.00  0.00    +0.000 C 
ATOM     25  C   UNL     1      -3.170  10.269  15.857  0.00  0.00    +0.000 C 
ENDBRANCH  23  25
ENDBRANCH  21  23
ENDBRANCH   1  21
BRANCH   3  26
ATOM     26  C   UNL     1       2.857   8.149  18.039  0.00  0.00    +0.000 C 
BRANCH  26  27
ATOM     27  C   UNL     1       2.724   6.666  18.287  0.00  0.00    +0.000 A 
ATOM     28  C   UNL     1       1.663   5.941  17.723  0.00  0.00    +0.000 A 
ATOM     29  C   UNL     1       1.645   4.550  17.798  0.00  0.00    +0.000 A 
ATOM     30  C   UNL     1       2.695   3.875  18.418  0.00  0.00    +0.000 A 
ATOM     31  C   UNL     1       3.738   4.581  19.020  0.00  0.00    +0.000 A 
ATOM     32  C   UNL     1       3.720   5.977  18.997  0.00  0.00    +0.000 A 
BRANCH  31  33
ATOM     33  O   UNL     1       4.729   3.803  19.551  0.00  0.00    +0.000 OA
ATOM     34  C   UNL     1       4.399   2.454  19.862  0.00  0.00    +0.000 C 
ENDBRANCH  31  33
ENDBRANCH  26  27
ENDBRANCH   3  26
TORSDOF 7
ENDMDL
MODEL 3
REMARK VINA RESULT:      -8.0      0.948      1.170
REMARK  Name = 
REMARK  9 active torsions:
REMARK  status: ('A' for Active; 'I' for Inactive)
REMARK    1  A    between atoms: C_1  and  C_2
REMARK    2  A    between atoms: C_2  and  O_3
REMARK    3  A    between atoms: O_3  and  C_4
REMARK    4  A    between atoms: C_4  and  C_6
REMARK    5  A    between atoms: N_8  and  C_9
REMARK    6  A    between atoms: C_9  and  C_10
REMARK    7  A    between atoms: C_14  and  O_15
REMARK    8  A    between atoms: O_15  and  C_16
REMARK    9  A    between atoms: C_22  and  C_24
REMARK                            x       y       z     vdW  Elec       q    Type
REMARK                         _______ _______ _______ _____ _____    ______ ____
ROOT
ATOM      1  C   UNL     1       0.554   9.250  21.597  0.00  0.00    +0.000 A 
ATOM      2  N   UNL     1       1.512   8.327  21.354  0.00  0.00    +0.000 NA
ATOM      3  N   UNL     1       1.675   8.302  20.026  0.00  0.00    +0.000 N 
ATOM      4  C   UNL     1       0.884   9.230  19.407  0.00  0.00    +0.000 A 
ATOM      5  C   UNL     1       0.098   9.807  20.373  0.00  0.00    +0.000 A 
ATOM      6  C   UNL     1      -0.924  10.895  20.080  0.00  0.00    +0.000 C 
ATOM      7  N   UNL     1      -0.949  11.160  18.636  0.00  0.00    +0.000 N 
ATOM      8  C   UNL     1      -2.088  11.307  17.836  0.00  0.00    +0.000 C 
ATOM      9  O   UNL     1      -1.973  11.307  16.609  0.00  0.00    +0.000 OA
ATOM     10  C   UNL     1       0.338  11.073  17.927  0.00  0.00    +0.000 C 
ATOM     11  C   UNL     1       0.870   9.617  17.969  0.00  0.00    +0.000 C 
ENDROOT
BRANCH   8  12
ATOM     12  C   UNL     1      -3.405  11.450  18.416  0.00  0.00    +0.000 A 
ATOM     13  C   UNL     1      -4.537  10.736  18.048  0.00  0.00    +0.000 A 
ATOM     14  C   UNL     1      -5.626  11.401  18.623  0.00  0.00    +0.000 A 
ATOM     15  C   UNL     1      -7.012  11.203  18.593  0.00  0.00    +0.000 A 
ATOM     16  C   UNL     1      -7.447  10.990  19.894  0.00  0.00    +0.000 A 
ATOM     17  C   UNL     1      -6.956  11.791  20.937  0.00  0.00    +0.000 A 
ATOM     18  C   UNL     1      -5.807  12.578  20.746  0.00  0.00    +0.000 A 
ATOM     19  C   UNL     1      -5.076  12.201  19.620  0.00  0.00    +0.000 A 
ATOM     20  O   UNL     1      -3.739  12.373  19.378  0.00  0.00    +0.000 OA
ENDBRANCH   8  12
BRANCH   1  21
ATOM     21  C   UNL     1       0.139   9.637  22.959  0.00  0.00    +0.000 C 
ATOM     22  O   UNL     1       0.837   9.416  23.948  0.00  0.00    +0.000 OA
BRANCH  21  23
ATOM     23  O   UNL     1      -1.126  10.141  23.006  0.00  0.00    +0.000 OA
BRANCH  23  25
ATOM     24  C   UNL     1      -2.707  11.925  23.189  0.00  0.00    +0.000 C 
ATOM     25  C   UNL     1      -1.241  11.541  23.282  0.00  0.00    +0.000 C 
ENDBRANCH  23  25
ENDBRANCH  21  23
ENDBRANCH   1  21
BRANCH   3  26
ATOM     26  C   UNL     1       2.645   7.389  19.424  0.00  0.00    +0.000 C 
BRANCH  26  27
ATOM     27  C   UNL     1       2.393   5.970  19.874  0.00  0.00    +0.000 A 
ATOM     28  C   UNL     1       1.111   5.565  20.271  0.00  0.00    +0.000 A 
ATOM     29  C   UNL     1       0.841   4.219  20.507  0.00  0.00    +0.000 A 
ATOM     30  C   UNL     1       1.845   3.268  20.328  0.00  0.00    +0.000 A 
ATOM     31  C   UNL     1       3.137   3.658  19.974  0.00  0.00    +0.000 A 
ATOM     32  C   UNL     1       3.419   5.014  19.799  0.00  0.00    +0.000 A 
BRANCH  31  33
ATOM     33  O   UNL     1       4.017   2.629  19.783  0.00  0.00    +0.000 OA
ATOM     34  C   UNL     1       3.623   1.596  18.886  0.00  0.00    +0.000 C 
ENDBRANCH  31  33
ENDBRANCH  26  27
ENDBRANCH   3  26
TORSDOF 7
ENDMDL
MODEL 4
REMARK VINA RESULT:      -8.0      2.474      4.922
REMARK  Name = 
REMARK  9 active torsions:
REMARK  status: ('A' for Active; 'I' for Inactive)
REMARK    1  A    between atoms: C_1  and  C_2
REMARK    2  A    between atoms: C_2  and  O_3
REMARK    3  A    between atoms: O_3  and  C_4
REMARK    4  A    between atoms: C_4  and  C_6
REMARK    5  A    between atoms: N_8  and  C_9
REMARK    6  A    between atoms: C_9  and  C_10
REMARK    7  A    between atoms: C_14  and  O_15
REMARK    8  A    between atoms: O_15  and  C_16
REMARK    9  A    between atoms: C_22  and  C_24
REMARK                            x       y       z     vdW  Elec       q    Type
REMARK                         _______ _______ _______ _____ _____    ______ ____
ROOT
ATOM      1  C   UNL     1      -0.150   9.874  17.975  0.00  0.00    +0.000 A 
ATOM      2  N   UNL     1       0.927   9.349  17.346  0.00  0.00    +0.000 NA
ATOM      3  N   UNL     1       1.692   8.814  18.305  0.00  0.00    +0.000 N 
ATOM      4  C   UNL     1       1.107   8.932  19.535  0.00  0.00    +0.000 A 
ATOM      5  C   UNL     1      -0.040   9.669  19.375  0.00  0.00    +0.000 A 
ATOM      6  C   UNL     1      -0.977  10.019  20.521  0.00  0.00    +0.000 C 
ATOM      7  N   UNL     1      -0.424   9.495  21.776  0.00  0.00    +0.000 N 
ATOM      8  C   UNL     1      -0.339  10.174  22.998  0.00  0.00    +0.000 C 
ATOM      9  O   UNL     1       0.342   9.701  23.909  0.00  0.00    +0.000 OA
ATOM     10  C   UNL     1       0.281   8.205  21.698  0.00  0.00    +0.000 C 
ATOM     11  C   UNL     1       1.559   8.350  20.830  0.00  0.00    +0.000 C 
ENDROOT
BRANCH   8  12
ATOM     12  C   UNL     1      -1.027  11.427  23.213  0.00  0.00    +0.000 A 
ATOM     13  C   UNL     1      -2.396  11.585  23.377  0.00  0.00    +0.000 A 
ATOM     14  C   UNL     1      -2.654  12.953  23.236  0.00  0.00    +0.000 A 
ATOM     15  C   UNL     1      -3.820  13.730  23.258  0.00  0.00    +0.000 A 
ATOM     16  C   UNL     1      -3.710  14.647  24.294  0.00  0.00    +0.000 A 
ATOM     17  C   UNL     1      -2.503  15.333  24.498  0.00  0.00    +0.000 A 
ATOM     18  C   UNL     1      -1.320  14.881  23.889  0.00  0.00    +0.000 A 
ATOM     19  C   UNL     1      -1.422  13.575  23.413  0.00  0.00    +0.000 A 
ATOM     20  O   UNL     1      -0.420  12.661  23.216  0.00  0.00    +0.000 OA
ENDBRANCH   8  12
BRANCH   1  21
ATOM     21  C   UNL     1      -1.280  10.488  17.252  0.00  0.00    +0.000 C 
ATOM     22  O   UNL     1      -1.690  11.620  17.508  0.00  0.00    +0.000 OA
BRANCH  21  23
ATOM     23  O   UNL     1      -1.880   9.631  16.378  0.00  0.00    +0.000 OA
BRANCH  23  25
ATOM     24  C   UNL     1      -3.120   9.991  14.366  0.00  0.00    +0.000 C 
ATOM     25  C   UNL     1      -3.164  10.027  15.884  0.00  0.00    +0.000 C 
ENDBRANCH  23  25
ENDBRANCH  21  23
ENDBRANCH   1  21
BRANCH   3  26
ATOM     26  C   UNL     1       2.955   8.166  17.959  0.00  0.00    +0.000 C 
BRANCH  26  27
ATOM     27  C   UNL     1       2.937   6.711  18.360  0.00  0.00    +0.000 A 
ATOM     28  C   UNL     1       3.772   6.244  19.386  0.00  0.00    +0.000 A 
ATOM     29  C   UNL     1       3.623   4.949  19.878  0.00  0.00    +0.000 A 
ATOM     30  C   UNL     1       2.626   4.121  19.363  0.00  0.00    +0.000 A 
ATOM     31  C   UNL     1       1.814   4.555  18.313  0.00  0.00    +0.000 A 
ATOM     32  C   UNL     1       2.008   5.831  17.781  0.00  0.00    +0.000 A 
BRANCH  31  33
ATOM     33  O   UNL     1       0.846   3.668  17.931  0.00  0.00    +0.000 OA
ATOM     34  C   UNL     1       0.752   2.453  18.666  0.00  0.00    +0.000 C 
ENDBRANCH  31  33
ENDBRANCH  26  27
ENDBRANCH   3  26
TORSDOF 7
ENDMDL
MODEL 5
REMARK VINA RESULT:      -8.0      0.657      1.104
REMARK  Name = 
REMARK  9 active torsions:
REMARK  status: ('A' for Active; 'I' for Inactive)
REMARK    1  A    between atoms: C_1  and  C_2
REMARK    2  A    between atoms: C_2  and  O_3
REMARK    3  A    between atoms: O_3  and  C_4
REMARK    4  A    between atoms: C_4  and  C_6
REMARK    5  A    between atoms: N_8  and  C_9
REMARK    6  A    between atoms: C_9  and  C_10
REMARK    7  A    between atoms: C_14  and  O_15
REMARK    8  A    between atoms: O_15  and  C_16
REMARK    9  A    between atoms: C_22  and  C_24
REMARK                            x       y       z     vdW  Elec       q    Type
REMARK                         _______ _______ _______ _____ _____    ______ ____
ROOT
ATOM      1  C   UNL     1       0.572   9.432  21.627  0.00  0.00    +0.000 A 
ATOM      2  N   UNL     1       1.527   8.490  21.454  0.00  0.00    +0.000 NA
ATOM      3  N   UNL     1       1.701   8.376  20.132  0.00  0.00    +0.000 N 
ATOM      4  C   UNL     1       0.918   9.263  19.446  0.00  0.00    +0.000 A 
ATOM      5  C   UNL     1       0.128   9.907  20.365  0.00  0.00    +0.000 A 
ATOM      6  C   UNL     1      -0.887  10.978  19.992  0.00  0.00    +0.000 C 
ATOM      7  N   UNL     1      -0.901  11.145  18.534  0.00  0.00    +0.000 N 
ATOM      8  C   UNL     1      -2.033  11.243  17.716  0.00  0.00    +0.000 C 
ATOM      9  O   UNL     1      -1.908  11.160  16.494  0.00  0.00    +0.000 OA
ATOM     10  C   UNL     1       0.391  11.006  17.842  0.00  0.00    +0.000 C 
ATOM     11  C   UNL     1       0.917   9.553  17.985  0.00  0.00    +0.000 C 
ENDROOT
BRANCH   8  12
ATOM     12  C   UNL     1      -3.353  11.429  18.276  0.00  0.00    +0.000 A 
ATOM     13  C   UNL     1      -3.676  12.267  19.334  0.00  0.00    +0.000 A 
ATOM     14  C   UNL     1      -4.964  11.905  19.744  0.00  0.00    +0.000 A 
ATOM     15  C   UNL     1      -5.818  12.340  20.767  0.00  0.00    +0.000 A 
ATOM     16  C   UNL     1      -6.978  12.828  20.183  0.00  0.00    +0.000 A 
ATOM     17  C   UNL     1      -7.581  12.125  19.128  0.00  0.00    +0.000 A 
ATOM     18  C   UNL     1      -6.867  11.126  18.443  0.00  0.00    +0.000 A 
ATOM     19  C   UNL     1      -5.495  11.185  18.678  0.00  0.00    +0.000 A 
ATOM     20  O   UNL     1      -4.475  10.742  17.877  0.00  0.00    +0.000 OA
ENDBRANCH   8  12
BRANCH   1  21
ATOM     21  C   UNL     1       0.149   9.911  22.957  0.00  0.00    +0.000 C 
ATOM     22  O   UNL     1       0.164   9.189  23.953  0.00  0.00    +0.000 OA
BRANCH  21  23
ATOM     23  O   UNL     1      -0.362  11.174  22.928  0.00  0.00    +0.000 OA
BRANCH  23  25
ATOM     24  C   UNL     1      -2.159  12.747  23.047  0.00  0.00    +0.000 C 
ATOM     25  C   UNL     1      -1.742  11.307  23.288  0.00  0.00    +0.000 C 
ENDBRANCH  23  25
ENDBRANCH  21  23
ENDBRANCH   1  21
BRANCH   3  26
ATOM     26  C   UNL     1       2.670   7.421  19.600  0.00  0.00    +0.000 C 
BRANCH  26  27
ATOM     27  C   UNL     1       2.026   6.075  19.374  0.00  0.00    +0.000 A 
ATOM     28  C   UNL     1       1.930   5.538  18.081  0.00  0.00    +0.000 A 
ATOM     29  C   UNL     1       1.506   4.224  17.895  0.00  0.00    +0.000 A 
ATOM     30  C   UNL     1       1.194   3.433  19.000  0.00  0.00    +0.000 A 
ATOM     31  C   UNL     1       1.244   3.963  20.290  0.00  0.00    +0.000 A 
ATOM     32  C   UNL     1       1.610   5.299  20.467  0.00  0.00    +0.000 A 
BRANCH  31  33
ATOM     33  O   UNL     1       0.963   3.073  21.289  0.00  0.00    +0.000 OA
ATOM     34  C   UNL     1       2.029   2.247  21.742  0.00  0.00    +0.000 C 
ENDBRANCH  31  33
ENDBRANCH  26  27
ENDBRANCH   3  26
TORSDOF 7
ENDMDL
MODEL 6
REMARK VINA RESULT:      -7.8      2.189      4.588
REMARK  Name = 
REMARK  9 active torsions:
REMARK  status: ('A' for Active; 'I' for Inactive)
REMARK    1  A    between atoms: C_1  and  C_2
REMARK    2  A    between atoms: C_2  and  O_3
REMARK    3  A    between atoms: O_3  and  C_4
REMARK    4  A    between atoms: C_4  and  C_6
REMARK    5  A    between atoms: N_8  and  C_9
REMARK    6  A    between atoms: C_9  and  C_10
REMARK    7  A    between atoms: C_14  and  O_15
REMARK    8  A    between atoms: O_15  and  C_16
REMARK    9  A    between atoms: C_22  and  C_24
REMARK                            x       y       z     vdW  Elec       q    Type
REMARK                         _______ _______ _______ _____ _____    ______ ____
ROOT
ATOM      1  C   UNL     1      -0.242   9.752  18.036  0.00  0.00    +0.000 A 
ATOM      2  N   UNL     1       0.825   9.199  17.415  0.00  0.00    +0.000 NA
ATOM      3  N   UNL     1       1.597   8.695  18.386  0.00  0.00    +0.000 N 
ATOM      4  C   UNL     1       1.026   8.860  19.617  0.00  0.00    +0.000 A 
ATOM      5  C   UNL     1      -0.118   9.597  19.442  0.00  0.00    +0.000 A 
ATOM      6  C   UNL     1      -1.041   9.994  20.584  0.00  0.00    +0.000 C 
ATOM      7  N   UNL     1      -0.477   9.513  21.851  0.00  0.00    +0.000 N 
ATOM      8  C   UNL     1      -0.376  10.235  23.046  0.00  0.00    +0.000 C 
ATOM      9  O   UNL     1       0.312   9.791  23.967  0.00  0.00    +0.000 OA
ATOM     10  C   UNL     1       0.220   8.217  21.812  0.00  0.00    +0.000 C 
ATOM     11  C   UNL     1       1.489   8.323  20.926  0.00  0.00    +0.000 C 
ENDROOT
BRANCH   8  12
ATOM     12  C   UNL     1      -1.055  11.498  23.224  0.00  0.00    +0.000 A 
ATOM     13  C   UNL     1      -2.424  11.672  23.375  0.00  0.00    +0.000 A 
ATOM     14  C   UNL     1      -2.670  13.038  23.195  0.00  0.00    +0.000 A 
ATOM     15  C   UNL     1      -3.830  13.824  23.188  0.00  0.00    +0.000 A 
ATOM     16  C   UNL     1      -3.719  14.767  24.201  0.00  0.00    +0.000 A 
ATOM     17  C   UNL     1      -2.507  15.449  24.394  0.00  0.00    +0.000 A 
ATOM     18  C   UNL     1      -1.324  14.972  23.805  0.00  0.00    +0.000 A 
ATOM     19  C   UNL     1      -1.434  13.654  23.363  0.00  0.00    +0.000 A 
ATOM     20  O   UNL     1      -0.438  12.727  23.197  0.00  0.00    +0.000 OA
ENDBRANCH   8  12
BRANCH   1  21
ATOM     21  C   UNL     1      -1.377  10.346  17.303  0.00  0.00    +0.000 C 
ATOM     22  O   UNL     1      -1.866   9.818  16.305  0.00  0.00    +0.000 OA
BRANCH  21  23
ATOM     23  O   UNL     1      -1.728  11.576  17.775  0.00  0.00    +0.000 OA
BRANCH  23  25
ATOM     24  C   UNL     1      -3.203  12.367  19.481  0.00  0.00    +0.000 C 
ATOM     25  C   UNL     1      -3.112  11.761  18.092  0.00  0.00    +0.000 C 
ENDBRANCH  23  25
ENDBRANCH  21  23
ENDBRANCH   1  21
BRANCH   3  26
ATOM     26  C   UNL     1       2.853   8.027  18.049  0.00  0.00    +0.000 C 
BRANCH  26  27
ATOM     27  C   UNL     1       2.747   6.540  18.281  0.00  0.00    +0.000 A 
ATOM     28  C   UNL     1       1.699   5.802  17.710  0.00  0.00    +0.000 A 
ATOM     29  C   UNL     1       1.706   4.410  17.770  0.00  0.00    +0.000 A 
ATOM     30  C   UNL     1       2.767   3.747  18.384  0.00  0.00    +0.000 A 
ATOM     31  C   UNL     1       3.796   4.466  18.994  0.00  0.00    +0.000 A 
ATOM     32  C   UNL     1       3.754   5.861  18.985  0.00  0.00    +0.000 A 
BRANCH  31  33
ATOM     33  O   UNL     1       4.801   3.700  19.518  0.00  0.00    +0.000 OA
ATOM     34  C   UNL     1       4.469   2.373  19.909  0.00  0.00    +0.000 C 
ENDBRANCH  31  33
ENDBRANCH  26  27
ENDBRANCH   3  26
TORSDOF 7
ENDMDL
MODEL 7
REMARK VINA RESULT:      -7.7      1.926      4.497
REMARK  Name = 
REMARK  9 active torsions:
REMARK  status: ('A' for Active; 'I' for Inactive)
REMARK    1  A    between atoms: C_1  and  C_2
REMARK    2  A    between atoms: C_2  and  O_3
REMARK    3  A    between atoms: O_3  and  C_4
REMARK    4  A    between atoms: C_4  and  C_6
REMARK    5  A    between atoms: N_8  and  C_9
REMARK    6  A    between atoms: C_9  and  C_10
REMARK    7  A    between atoms: C_14  and  O_15
REMARK    8  A    between atoms: O_15  and  C_16
REMARK    9  A    between atoms: C_22  and  C_24
REMARK                            x       y       z     vdW  Elec       q    Type
REMARK                         _______ _______ _______ _____ _____    ______ ____
ROOT
ATOM      1  C   UNL     1      -0.274   9.805  17.981  0.00  0.00    +0.000 A 
ATOM      2  N   UNL     1       0.877   9.433  17.378  0.00  0.00    +0.000 NA
ATOM      3  N   UNL     1       1.708   9.062  18.361  0.00  0.00    +0.000 N 
ATOM      4  C   UNL     1       1.099   9.132  19.583  0.00  0.00    +0.000 A 
ATOM      5  C   UNL     1      -0.147   9.673  19.389  0.00  0.00    +0.000 A 
ATOM      6  C   UNL     1      -1.139   9.915  20.517  0.00  0.00    +0.000 C 
ATOM      7  N   UNL     1      -0.523   9.532  21.793  0.00  0.00    +0.000 N 
ATOM      8  C   UNL     1      -0.559  10.261  22.988  0.00  0.00    +0.000 C 
ATOM      9  O   UNL     1       0.179   9.937  23.920  0.00  0.00    +0.000 OA
ATOM     10  C   UNL     1       0.376   8.367  21.769  0.00  0.00    +0.000 C 
ATOM     11  C   UNL     1       1.624   8.678  20.900  0.00  0.00    +0.000 C 
ENDROOT
BRANCH   8  12
ATOM     12  C   UNL     1      -1.437  11.398  23.152  0.00  0.00    +0.000 A 
ATOM     13  C   UNL     1      -1.090  12.728  22.961  0.00  0.00    +0.000 A 
ATOM     14  C   UNL     1      -2.119  13.489  23.526  0.00  0.00    +0.000 A 
ATOM     15  C   UNL     1      -2.336  14.864  23.685  0.00  0.00    +0.000 A 
ATOM     16  C   UNL     1      -3.506  15.197  23.016  0.00  0.00    +0.000 A 
ATOM     17  C   UNL     1      -4.636  14.373  23.127  0.00  0.00    +0.000 A 
ATOM     18  C   UNL     1      -4.513  13.066  23.629  0.00  0.00    +0.000 A 
ATOM     19  C   UNL     1      -3.194  12.614  23.642  0.00  0.00    +0.000 A 
ATOM     20  O   UNL     1      -2.737  11.324  23.593  0.00  0.00    +0.000 OA
ENDBRANCH   8  12
BRANCH   1  21
ATOM     21  C   UNL     1      -1.480  10.206  17.231  0.00  0.00    +0.000 C 
ATOM     22  O   UNL     1      -1.918   9.548  16.287  0.00  0.00    +0.000 OA
BRANCH  21  23
ATOM     23  O   UNL     1      -1.964  11.421  17.614  0.00  0.00    +0.000 OA
BRANCH  23  25
ATOM     24  C   UNL     1      -3.552  12.206  19.219  0.00  0.00    +0.000 C 
ATOM     25  C   UNL     1      -3.366  11.482  17.897  0.00  0.00    +0.000 C 
ENDBRANCH  23  25
ENDBRANCH  21  23
ENDBRANCH   1  21
BRANCH   3  26
ATOM     26  C   UNL     1       3.060   8.608  18.044  0.00  0.00    +0.000 C 
BRANCH  26  27
ATOM     27  C   UNL     1       3.081   7.119  17.799  0.00  0.00    +0.000 A 
ATOM     28  C   UNL     1       4.157   6.522  17.125  0.00  0.00    +0.000 A 
ATOM     29  C   UNL     1       4.264   5.134  17.063  0.00  0.00    +0.000 A 
ATOM     30  C   UNL     1       3.309   4.336  17.691  0.00  0.00    +0.000 A 
ATOM     31  C   UNL     1       2.210   4.912  18.329  0.00  0.00    +0.000 A 
ATOM     32  C   UNL     1       2.073   6.301  18.336  0.00  0.00    +0.000 A 
BRANCH  31  33
ATOM     33  O   UNL     1       1.372   4.024  18.946  0.00  0.00    +0.000 OA
ATOM     34  C   UNL     1       1.046   4.277  20.308  0.00  0.00    +0.000 C 
ENDBRANCH  31  33
ENDBRANCH  26  27
ENDBRANCH   3  26
TORSDOF 7
ENDMDL
MODEL 8
REMARK VINA RESULT:      -7.7      1.072      1.562
REMARK  Name = 
REMARK  9 active torsions:
REMARK  status: ('A' for Active; 'I' for Inactive)
REMARK    1  A    between atoms: C_1  and  C_2
REMARK    2  A    between atoms: C_2  and  O_3
REMARK    3  A    between atoms: O_3  and  C_4
REMARK    4  A    between atoms: C_4  and  C_6
REMARK    5  A    between atoms: N_8  and  C_9
REMARK    6  A    between atoms: C_9  and  C_10
REMARK    7  A    between atoms: C_14  and  O_15
REMARK    8  A    between atoms: O_15  and  C_16
REMARK    9  A    between atoms: C_22  and  C_24
REMARK                            x       y       z     vdW  Elec       q    Type
REMARK                         _______ _______ _______ _____ _____    ______ ____
ROOT
ATOM      1  C   UNL     1       0.508   9.253  21.650  0.00  0.00    +0.000 A 
ATOM      2  N   UNL     1       1.454   8.313  21.428  0.00  0.00    +0.000 NA
ATOM      3  N   UNL     1       1.638   8.277  20.103  0.00  0.00    +0.000 N 
ATOM      4  C   UNL     1       0.872   9.214  19.466  0.00  0.00    +0.000 A 
ATOM      5  C   UNL     1       0.081   9.810  20.416  0.00  0.00    +0.000 A 
ATOM      6  C   UNL     1      -0.918  10.913  20.102  0.00  0.00    +0.000 C 
ATOM      7  N   UNL     1      -0.917  11.169  18.656  0.00  0.00    +0.000 N 
ATOM      8  C   UNL     1      -2.042  11.330  17.837  0.00  0.00    +0.000 C 
ATOM      9  O   UNL     1      -1.907  11.320  16.613  0.00  0.00    +0.000 OA
ATOM     10  C   UNL     1       0.379  11.057  17.967  0.00  0.00    +0.000 C 
ATOM     11  C   UNL     1       0.886   9.592  18.026  0.00  0.00    +0.000 C 
ENDROOT
BRANCH   8  12
ATOM     12  C   UNL     1      -3.364  11.498  18.396  0.00  0.00    +0.000 A 
ATOM     13  C   UNL     1      -3.716  12.393  19.397  0.00  0.00    +0.000 A 
ATOM     14  C   UNL     1      -4.983  12.005  19.845  0.00  0.00    +0.000 A 
ATOM     15  C   UNL     1      -5.847  12.473  20.844  0.00  0.00    +0.000 A 
ATOM     16  C   UNL     1      -7.033  12.868  20.240  0.00  0.00    +0.000 A 
ATOM     17  C   UNL     1      -7.612  12.067  19.243  0.00  0.00    +0.000 A 
ATOM     18  C   UNL     1      -6.860  11.055  18.622  0.00  0.00    +0.000 A 
ATOM     19  C   UNL     1      -5.490  11.190  18.838  0.00  0.00    +0.000 A 
ATOM     20  O   UNL     1      -4.458  10.736  18.059  0.00  0.00    +0.000 OA
ENDBRANCH   8  12
BRANCH   1  21
ATOM     21  C   UNL     1       0.080   9.656  23.004  0.00  0.00    +0.000 C 
ATOM     22  O   UNL     1       0.756   9.424  24.005  0.00  0.00    +0.000 OA
BRANCH  21  23
ATOM     23  O   UNL     1      -1.175  10.187  23.027  0.00  0.00    +0.000 OA
BRANCH  23  25
ATOM     24  C   UNL     1      -2.728  11.989  23.255  0.00  0.00    +0.000 C 
ATOM     25  C   UNL     1      -1.263  11.594  23.278  0.00  0.00    +0.000 C 
ENDBRANCH  23  25
ENDBRANCH  21  23
ENDBRANCH   1  21
BRANCH   3  26
ATOM     26  C   UNL     1       2.601   7.344  19.521  0.00  0.00    +0.000 C 
BRANCH  26  27
ATOM     27  C   UNL     1       2.312   5.931  19.966  0.00  0.00    +0.000 A 
ATOM     28  C   UNL     1       1.010   5.548  20.321  0.00  0.00    +0.000 A 
ATOM     29  C   UNL     1       0.711   4.207  20.551  0.00  0.00    +0.000 A 
ATOM     30  C   UNL     1       1.705   3.240  20.409  0.00  0.00    +0.000 A 
ATOM     31  C   UNL     1       3.015   3.608  20.097  0.00  0.00    +0.000 A 
ATOM     32  C   UNL     1       3.324   4.958  19.928  0.00  0.00    +0.000 A 
BRANCH  31  33
ATOM     33  O   UNL     1       3.883   2.563  19.938  0.00  0.00    +0.000 OA
ATOM     34  C   UNL     1       3.741   1.774  18.763  0.00  0.00    +0.000 C 
ENDBRANCH  31  33
ENDBRANCH  26  27
ENDBRANCH   3  26
TORSDOF 7
ENDMDL
MODEL 9
REMARK VINA RESULT:      -7.6      2.019      4.520
REMARK  Name = 
REMARK  9 active torsions:
REMARK  status: ('A' for Active; 'I' for Inactive)
REMARK    1  A    between atoms: C_1  and  C_2
REMARK    2  A    between atoms: C_2  and  O_3
REMARK    3  A    between atoms: O_3  and  C_4
REMARK    4  A    between atoms: C_4  and  C_6
REMARK    5  A    between atoms: N_8  and  C_9
REMARK    6  A    between atoms: C_9  and  C_10
REMARK    7  A    between atoms: C_14  and  O_15
REMARK    8  A    between atoms: O_15  and  C_16
REMARK    9  A    between atoms: C_22  and  C_24
REMARK                            x       y       z     vdW  Elec       q    Type
REMARK                         _______ _______ _______ _____ _____    ______ ____
ROOT
ATOM      1  C   UNL     1      -0.095   9.708  17.993  0.00  0.00    +0.000 A 
ATOM      2  N   UNL     1       1.019   9.268  17.365  0.00  0.00    +0.000 NA
ATOM      3  N   UNL     1       1.842   8.836  18.328  0.00  0.00    +0.000 N 
ATOM      4  C   UNL     1       1.262   8.935  19.563  0.00  0.00    +0.000 A 
ATOM      5  C   UNL     1       0.050   9.556  19.398  0.00  0.00    +0.000 A 
ATOM      6  C   UNL     1      -0.903   9.851  20.546  0.00  0.00    +0.000 C 
ATOM      7  N   UNL     1      -0.289   9.419  21.807  0.00  0.00    +0.000 N 
ATOM      8  C   UNL     1      -0.255  10.139  23.008  0.00  0.00    +0.000 C 
ATOM      9  O   UNL     1       0.477   9.760  23.923  0.00  0.00    +0.000 OA
ATOM     10  C   UNL     1       0.533   8.199  21.756  0.00  0.00    +0.000 C 
ATOM     11  C   UNL     1       1.781   8.437  20.867  0.00  0.00    +0.000 C 
ENDROOT
BRANCH   8  12
ATOM     12  C   UNL     1      -1.055  11.328  23.197  0.00  0.00    +0.000 A 
ATOM     13  C   UNL     1      -2.427  11.359  23.408  0.00  0.00    +0.000 A 
ATOM     14  C   UNL     1      -2.824  12.688  23.220  0.00  0.00    +0.000 A 
ATOM     15  C   UNL     1      -4.060  13.347  23.254  0.00  0.00    +0.000 A 
ATOM     16  C   UNL     1      -4.005  14.317  24.246  0.00  0.00    +0.000 A 
ATOM     17  C   UNL     1      -2.865  15.126  24.373  0.00  0.00    +0.000 A 
ATOM     18  C   UNL     1      -1.665  14.764  23.738  0.00  0.00    +0.000 A 
ATOM     19  C   UNL     1      -1.654  13.434  23.322  0.00  0.00    +0.000 A 
ATOM     20  O   UNL     1      -0.574  12.614  23.124  0.00  0.00    +0.000 OA
ENDBRANCH   8  12
BRANCH   1  21
ATOM     21  C   UNL     1      -1.286  10.192  17.269  0.00  0.00    +0.000 C 
ATOM     22  O   UNL     1      -1.781   9.574  16.327  0.00  0.00    +0.000 OA
BRANCH  21  23
ATOM     23  O   UNL     1      -1.688  11.430  17.674  0.00  0.00    +0.000 OA
BRANCH  23  25
ATOM     24  C   UNL     1      -3.152  12.263  19.370  0.00  0.00    +0.000 C 
ATOM     25  C   UNL     1      -3.069  11.564  18.024  0.00  0.00    +0.000 C 
ENDBRANCH  23  25
ENDBRANCH  21  23
ENDBRANCH   1  21
BRANCH   3  26
ATOM     26  C   UNL     1       3.156   8.300  17.983  0.00  0.00    +0.000 C 
BRANCH  26  27
ATOM     27  C   UNL     1       3.085   6.807  17.768  0.00  0.00    +0.000 A 
ATOM     28  C   UNL     1       4.135   6.127  17.134  0.00  0.00    +0.000 A 
ATOM     29  C   UNL     1       4.153   4.734  17.103  0.00  0.00    +0.000 A 
ATOM     30  C   UNL     1       3.132   4.014  17.721  0.00  0.00    +0.000 A 
ATOM     31  C   UNL     1       2.058   4.674  18.320  0.00  0.00    +0.000 A 
ATOM     32  C   UNL     1       2.013   6.069  18.295  0.00  0.00    +0.000 A 
BRANCH  31  33
ATOM     33  O   UNL     1       1.148   3.857  18.932  0.00  0.00    +0.000 OA
ATOM     34  C   UNL     1       0.968   4.022  20.333  0.00  0.00    +0.000 C 
ENDBRANCH  31  33
ENDBRANCH  26  27
ENDBRANCH   3  26
TORSDOF 7
ENDMDL
