MODEL 1
REMARK VINA RESULT:      -6.8      0.000      0.000
REMARK  Name = 
REMARK  6 active torsions:
REMARK  status: ('A' for Active; 'I' for Inactive)
REMARK    1  A    between atoms: C_1  and  C_2
REMARK    2  A    between atoms: C_2  and  C_3
REMARK    3  A    between atoms: C_10  and  C_12
REMARK    4  A    between atoms: C_12  and  C_13
REMARK    5  A    between atoms: C_13  and  C_14
REMARK    6  A    between atoms: C_14  and  O_16
REMARK                            x       y       z     vdW  Elec       q    Type
REMARK                         _______ _______ _______ _____ _____    ______ ____
ROOT
ATOM      1  C   UNL     1       5.029   6.926  17.504  0.00  0.00    +0.000 C 
ATOM      2  C   UNL     1       6.085   5.795  17.480  0.00  0.00    +0.000 C 
ATOM      3  C   UNL     1       7.468   6.469  17.387  0.00  0.00    +0.000 C 
ATOM      4  C   UNL     1       6.004   5.091  18.880  0.00  0.00    +0.000 C 
ATOM      5  O   UNL     1       6.632   5.459  19.872  0.00  0.00    +0.000 OA
ATOM      6  N   UNL     1       5.008   4.156  19.057  0.00  0.00    +0.000 N 
ATOM      7  C   UNL     1       4.592   3.304  17.969  0.00  0.00    +0.000 C 
ATOM      8  C   UNL     1       4.506   4.041  16.639  0.00  0.00    +0.000 C 
ATOM      9  N   UNL     1       5.742   4.808  16.388  0.00  0.00    +0.000 N 
ATOM     10  C   UNL     1       6.482   4.659  15.203  0.00  0.00    +0.000 C 
ATOM     11  O   UNL     1       7.494   5.296  14.928  0.00  0.00    +0.000 OA
ATOM     12  H   UNL     1       5.012   3.764  19.992  0.00  0.00    +0.000 HD
ENDROOT
BRANCH  10  13
ATOM     13  C   UNL     1       5.956   3.616  14.230  0.00  0.00    +0.000 C 
BRANCH  13  14
ATOM     14  C   UNL     1       6.329   3.834  12.768  0.00  0.00    +0.000 C 
BRANCH  14  15
ATOM     15  C   UNL     1       5.429   2.980  11.900  0.00  0.00    +0.000 C 
ATOM     16  O   UNL     1       4.345   3.332  11.458  0.00  0.00    +0.000 OA
BRANCH  15  17
ATOM     17  O   UNL     1       5.946   1.758  11.650  0.00  0.00    +0.000 OA
ATOM     18  H   UNL     1       6.122   1.593  10.704  0.00  0.00    +0.000 HD
ENDBRANCH  15  17
ENDBRANCH  14  15
ENDBRANCH  13  14
ENDBRANCH  10  13
TORSDOF 4
ENDMDL
MODEL 2
REMARK VINA RESULT:      -6.6      3.206      5.850
REMARK  Name = 
REMARK  6 active torsions:
REMARK  status: ('A' for Active; 'I' for Inactive)
REMARK    1  A    between atoms: C_1  and  C_2
REMARK    2  A    between atoms: C_2  and  C_3
REMARK    3  A    between atoms: C_10  and  C_12
REMARK    4  A    between atoms: C_12  and  C_13
REMARK    5  A    between atoms: C_13  and  C_14
REMARK    6  A    between atoms: C_14  and  O_16
REMARK                            x       y       z     vdW  Elec       q    Type
REMARK                         _______ _______ _______ _____ _____    ______ ____
ROOT
ATOM      1  C   UNL     1       5.385   6.350  16.010  0.00  0.00    +0.000 C 
ATOM      2  C   UNL     1       5.528   4.944  16.639  0.00  0.00    +0.000 C 
ATOM      3  C   UNL     1       5.264   3.918  15.519  0.00  0.00    +0.000 C 
ATOM      4  C   UNL     1       7.035   4.801  17.053  0.00  0.00    +0.000 C 
ATOM      5  O   UNL     1       7.920   4.397  16.300  0.00  0.00    +0.000 OA
ATOM      6  N   UNL     1       7.416   5.373  18.247  0.00  0.00    +0.000 N 
ATOM      7  C   UNL     1       6.517   5.396  19.376  0.00  0.00    +0.000 C 
ATOM      8  C   UNL     1       5.079   5.707  18.983  0.00  0.00    +0.000 C 
ATOM      9  N   UNL     1       4.648   4.847  17.863  0.00  0.00    +0.000 N 
ATOM     10  C   UNL     1       3.484   4.063  17.934  0.00  0.00    +0.000 C 
ATOM     11  O   UNL     1       3.061   3.360  17.021  0.00  0.00    +0.000 OA
ATOM     12  H   UNL     1       8.406   5.254  18.431  0.00  0.00    +0.000 HD
ENDROOT
BRANCH  10  13
ATOM     13  C   UNL     1       2.737   4.119  19.256  0.00  0.00    +0.000 C 
BRANCH  13  14
ATOM     14  C   UNL     1       2.757   2.834  20.076  0.00  0.00    +0.000 C 
BRANCH  14  15
ATOM     15  C   UNL     1       1.561   2.826  21.005  0.00  0.00    +0.000 C 
ATOM     16  O   UNL     1       1.579   2.442  22.165  0.00  0.00    +0.000 OA
BRANCH  15  17
ATOM     17  O   UNL     1       0.438   3.295  20.419  0.00  0.00    +0.000 OA
ATOM     18  H   UNL     1      -0.339   2.717  20.543  0.00  0.00    +0.000 HD
ENDBRANCH  15  17
ENDBRANCH  14  15
ENDBRANCH  13  14
ENDBRANCH  10  13
TORSDOF 4
ENDMDL
MODEL 3
REMARK VINA RESULT:      -6.6      3.759      5.404
REMARK  Name = 
REMARK  6 active torsions:
REMARK  status: ('A' for Active; 'I' for Inactive)
REMARK    1  A    between atoms: C_1  and  C_2
REMARK    2  A    between atoms: C_2  and  C_3
REMARK    3  A    between atoms: C_10  and  C_12
REMARK    4  A    between atoms: C_12  and  C_13
REMARK    5  A    between atoms: C_13  and  C_14
REMARK    6  A    between atoms: C_14  and  O_16
REMARK                            x       y       z     vdW  Elec       q    Type
REMARK                         _______ _______ _______ _____ _____    ______ ____
ROOT
ATOM      1  C   UNL     1       1.031   3.378  19.261  0.00  0.00    +0.000 C 
ATOM      2  C   UNL     1       2.204   4.138  19.923  0.00  0.00    +0.000 C 
ATOM      3  C   UNL     1       1.623   5.435  20.521  0.00  0.00    +0.000 C 
ATOM      4  C   UNL     1       2.681   3.247  21.123  0.00  0.00    +0.000 C 
ATOM      5  O   UNL     1       2.197   3.300  22.254  0.00  0.00    +0.000 OA
ATOM      6  N   UNL     1       3.527   2.200  20.832  0.00  0.00    +0.000 N 
ATOM      7  C   UNL     1       4.512   2.315  19.785  0.00  0.00    +0.000 C 
ATOM      8  C   UNL     1       3.984   3.033  18.550  0.00  0.00    +0.000 C 
ATOM      9  N   UNL     1       3.328   4.301  18.926  0.00  0.00    +0.000 N 
ATOM     10  C   UNL     1       3.694   5.528  18.348  0.00  0.00    +0.000 C 
ATOM     11  O   UNL     1       3.158   6.603  18.597  0.00  0.00    +0.000 OA
ATOM     12  H   UNL     1       3.771   1.663  21.657  0.00  0.00    +0.000 HD
ENDROOT
BRANCH  10  13
ATOM     13  C   UNL     1       4.845   5.467  17.357  0.00  0.00    +0.000 C 
BRANCH  13  14
ATOM     14  C   UNL     1       6.116   6.194  17.781  0.00  0.00    +0.000 C 
BRANCH  14  15
ATOM     15  C   UNL     1       7.004   5.228  18.536  0.00  0.00    +0.000 C 
ATOM     16  O   UNL     1       7.771   4.431  18.015  0.00  0.00    +0.000 OA
BRANCH  15  17
ATOM     17  O   UNL     1       6.870   5.329  19.876  0.00  0.00    +0.000 OA
ATOM     18  H   UNL     1       7.288   4.596  20.367  0.00  0.00    +0.000 HD
ENDBRANCH  15  17
ENDBRANCH  14  15
ENDBRANCH  13  14
ENDBRANCH  10  13
TORSDOF 4
ENDMDL
MODEL 4
REMARK VINA RESULT:      -6.6      2.842      5.872
REMARK  Name = 
REMARK  6 active torsions:
REMARK  status: ('A' for Active; 'I' for Inactive)
REMARK    1  A    between atoms: C_1  and  C_2
REMARK    2  A    between atoms: C_2  and  C_3
REMARK    3  A    between atoms: C_10  and  C_12
REMARK    4  A    between atoms: C_12  and  C_13
REMARK    5  A    between atoms: C_13  and  C_14
REMARK    6  A    between atoms: C_14  and  O_16
REMARK                            x       y       z     vdW  Elec       q    Type
REMARK                         _______ _______ _______ _____ _____    ______ ____
ROOT
ATOM      1  C   UNL     1       4.674   6.596  16.678  0.00  0.00    +0.000 C 
ATOM      2  C   UNL     1       5.447   5.264  16.815  0.00  0.00    +0.000 C 
ATOM      3  C   UNL     1       5.131   4.425  15.560  0.00  0.00    +0.000 C 
ATOM      4  C   UNL     1       6.971   5.633  16.754  0.00  0.00    +0.000 C 
ATOM      5  O   UNL     1       7.612   5.733  15.709  0.00  0.00    +0.000 OA
ATOM      6  N   UNL     1       7.554   6.090  17.915  0.00  0.00    +0.000 N 
ATOM      7  C   UNL     1       7.148   5.573  19.199  0.00  0.00    +0.000 C 
ATOM      8  C   UNL     1       5.641   5.378  19.310  0.00  0.00    +0.000 C 
ATOM      9  N   UNL     1       5.126   4.628  18.148  0.00  0.00    +0.000 N 
ATOM     10  C   UNL     1       4.356   3.462  18.297  0.00  0.00    +0.000 C 
ATOM     11  O   UNL     1       3.874   2.821  17.368  0.00  0.00    +0.000 OA
ATOM     12  H   UNL     1       8.532   6.325  17.786  0.00  0.00    +0.000 HD
ENDROOT
BRANCH  10  13
ATOM     13  C   UNL     1       4.142   2.998  19.729  0.00  0.00    +0.000 C 
BRANCH  13  14
ATOM     14  C   UNL     1       2.727   2.546  20.068  0.00  0.00    +0.000 C 
BRANCH  14  15
ATOM     15  C   UNL     1       2.220   3.358  21.242  0.00  0.00    +0.000 C 
ATOM     16  O   UNL     1       2.310   4.573  21.341  0.00  0.00    +0.000 OA
BRANCH  15  17
ATOM     17  O   UNL     1       1.645   2.598  22.198  0.00  0.00    +0.000 OA
ATOM     18  H   UNL     1       0.797   2.200  21.924  0.00  0.00    +0.000 HD
ENDBRANCH  15  17
ENDBRANCH  14  15
ENDBRANCH  13  14
ENDBRANCH  10  13
TORSDOF 4
ENDMDL
MODEL 5
REMARK VINA RESULT:      -6.5      3.514      5.151
REMARK  Name = 
REMARK  6 active torsions:
REMARK  status: ('A' for Active; 'I' for Inactive)
REMARK    1  A    between atoms: C_1  and  C_2
REMARK    2  A    between atoms: C_2  and  C_3
REMARK    3  A    between atoms: C_10  and  C_12
REMARK    4  A    between atoms: C_12  and  C_13
REMARK    5  A    between atoms: C_13  and  C_14
REMARK    6  A    between atoms: C_14  and  O_16
REMARK                            x       y       z     vdW  Elec       q    Type
REMARK                         _______ _______ _______ _____ _____    ______ ____
ROOT
ATOM      1  C   UNL     1       1.437   4.524  17.758  0.00  0.00    +0.000 C 
ATOM      2  C   UNL     1       2.349   4.161  18.953  0.00  0.00    +0.000 C 
ATOM      3  C   UNL     1       2.086   5.203  20.058  0.00  0.00    +0.000 C 
ATOM      4  C   UNL     1       1.839   2.777  19.489  0.00  0.00    +0.000 C 
ATOM      5  O   UNL     1       0.941   2.652  20.321  0.00  0.00    +0.000 OA
ATOM      6  N   UNL     1       2.263   1.649  18.823  0.00  0.00    +0.000 N 
ATOM      7  C   UNL     1       3.587   1.582  18.252  0.00  0.00    +0.000 C 
ATOM      8  C   UNL     1       4.009   2.882  17.579  0.00  0.00    +0.000 C 
ATOM      9  N   UNL     1       3.777   4.032  18.476  0.00  0.00    +0.000 N 
ATOM     10  C   UNL     1       4.798   4.944  18.793  0.00  0.00    +0.000 C 
ATOM     11  O   UNL     1       4.651   5.934  19.503  0.00  0.00    +0.000 OA
ATOM     12  H   UNL     1       1.873   0.801  19.218  0.00  0.00    +0.000 HD
ENDROOT
BRANCH  10  13
ATOM     13  C   UNL     1       6.162   4.633  18.199  0.00  0.00    +0.000 C 
BRANCH  13  14
ATOM     14  C   UNL     1       7.274   5.610  18.561  0.00  0.00    +0.000 C 
BRANCH  14  15
ATOM     15  C   UNL     1       7.436   6.607  17.433  0.00  0.00    +0.000 C 
ATOM     16  O   UNL     1       7.559   7.815  17.579  0.00  0.00    +0.000 OA
BRANCH  15  17
ATOM     17  O   UNL     1       7.431   6.027  16.213  0.00  0.00    +0.000 OA
ATOM     18  H   UNL     1       8.085   6.407  15.596  0.00  0.00    +0.000 HD
ENDBRANCH  15  17
ENDBRANCH  14  15
ENDBRANCH  13  14
ENDBRANCH  10  13
TORSDOF 4
ENDMDL
MODEL 6
REMARK VINA RESULT:      -6.5      3.216      4.939
REMARK  Name = 
REMARK  6 active torsions:
REMARK  status: ('A' for Active; 'I' for Inactive)
REMARK    1  A    between atoms: C_1  and  C_2
REMARK    2  A    between atoms: C_2  and  C_3
REMARK    3  A    between atoms: C_10  and  C_12
REMARK    4  A    between atoms: C_12  and  C_13
REMARK    5  A    between atoms: C_13  and  C_14
REMARK    6  A    between atoms: C_14  and  O_16
REMARK                            x       y       z     vdW  Elec       q    Type
REMARK                         _______ _______ _______ _____ _____    ______ ____
ROOT
ATOM      1  C   UNL     1       1.059   3.237  19.297  0.00  0.00    +0.000 C 
ATOM      2  C   UNL     1       2.216   4.038  19.937  0.00  0.00    +0.000 C 
ATOM      3  C   UNL     1       1.624   5.372  20.434  0.00  0.00    +0.000 C 
ATOM      4  C   UNL     1       2.661   3.227  21.205  0.00  0.00    +0.000 C 
ATOM      5  O   UNL     1       2.150   3.355  22.317  0.00  0.00    +0.000 OA
ATOM      6  N   UNL     1       3.511   2.163  21.004  0.00  0.00    +0.000 N 
ATOM      7  C   UNL     1       4.523   2.208  19.976  0.00  0.00    +0.000 C 
ATOM      8  C   UNL     1       4.028   2.844  18.684  0.00  0.00    +0.000 C 
ATOM      9  N   UNL     1       3.365   4.134  18.960  0.00  0.00    +0.000 N 
ATOM     10  C   UNL     1       3.748   5.320  18.312  0.00  0.00    +0.000 C 
ATOM     11  O   UNL     1       3.209   6.410  18.476  0.00  0.00    +0.000 OA
ATOM     12  H   UNL     1       3.733   1.681  21.868  0.00  0.00    +0.000 HD
ENDROOT
BRANCH  10  13
ATOM     13  C   UNL     1       4.924   5.194  17.356  0.00  0.00    +0.000 C 
BRANCH  13  14
ATOM     14  C   UNL     1       6.302   5.367  17.984  0.00  0.00    +0.000 C 
BRANCH  14  15
ATOM     15  C   UNL     1       7.337   4.739  17.074  0.00  0.00    +0.000 C 
ATOM     16  O   UNL     1       7.353   4.844  15.856  0.00  0.00    +0.000 OA
BRANCH  15  17
ATOM     17  O   UNL     1       8.269   4.031  17.748  0.00  0.00    +0.000 OA
ATOM     18  H   UNL     1       7.990   3.774  18.647  0.00  0.00    +0.000 HD
ENDBRANCH  15  17
ENDBRANCH  14  15
ENDBRANCH  13  14
ENDBRANCH  10  13
TORSDOF 4
ENDMDL
MODEL 7
REMARK VINA RESULT:      -6.5      3.222      5.214
REMARK  Name = 
REMARK  6 active torsions:
REMARK  status: ('A' for Active; 'I' for Inactive)
REMARK    1  A    between atoms: C_1  and  C_2
REMARK    2  A    between atoms: C_2  and  C_3
REMARK    3  A    between atoms: C_10  and  C_12
REMARK    4  A    between atoms: C_12  and  C_13
REMARK    5  A    between atoms: C_13  and  C_14
REMARK    6  A    between atoms: C_14  and  O_16
REMARK                            x       y       z     vdW  Elec       q    Type
REMARK                         _______ _______ _______ _____ _____    ______ ____
ROOT
ATOM      1  C   UNL     1       3.862   2.458  20.077  0.00  0.00    +0.000 C 
ATOM      2  C   UNL     1       3.200   3.174  18.877  0.00  0.00    +0.000 C 
ATOM      3  C   UNL     1       3.158   2.164  17.713  0.00  0.00    +0.000 C 
ATOM      4  C   UNL     1       1.715   3.456  19.300  0.00  0.00    +0.000 C 
ATOM      5  O   UNL     1       0.793   2.656  19.147  0.00  0.00    +0.000 OA
ATOM      6  N   UNL     1       1.484   4.563  20.086  0.00  0.00    +0.000 N 
ATOM      7  C   UNL     1       2.263   5.766  19.916  0.00  0.00    +0.000 C 
ATOM      8  C   UNL     1       3.741   5.486  19.676  0.00  0.00    +0.000 C 
ATOM      9  N   UNL     1       3.914   4.479  18.611  0.00  0.00    +0.000 N 
ATOM     10  C   UNL     1       4.726   4.716  17.489  0.00  0.00    +0.000 C 
ATOM     11  O   UNL     1       4.932   3.902  16.594  0.00  0.00    +0.000 OA
ATOM     12  H   UNL     1       0.506   4.662  20.332  0.00  0.00    +0.000 HD
ENDROOT
BRANCH  10  13
ATOM     13  C   UNL     1       5.362   6.095  17.420  0.00  0.00    +0.000 C 
BRANCH  13  14
ATOM     14  C   UNL     1       6.882   6.111  17.303  0.00  0.00    +0.000 C 
BRANCH  14  15
ATOM     15  C   UNL     1       7.464   5.180  18.346  0.00  0.00    +0.000 C 
ATOM     16  O   UNL     1       7.484   5.401  19.548  0.00  0.00    +0.000 OA
BRANCH  15  17
ATOM     17  O   UNL     1       7.976   4.049  17.813  0.00  0.00    +0.000 OA
ATOM     18  H   UNL     1       8.525   4.203  17.021  0.00  0.00    +0.000 HD
ENDBRANCH  15  17
ENDBRANCH  14  15
ENDBRANCH  13  14
ENDBRANCH  10  13
TORSDOF 4
ENDMDL
MODEL 8
REMARK VINA RESULT:      -6.5      3.298      5.619
REMARK  Name = 
REMARK  6 active torsions:
REMARK  status: ('A' for Active; 'I' for Inactive)
REMARK    1  A    between atoms: C_1  and  C_2
REMARK    2  A    between atoms: C_2  and  C_3
REMARK    3  A    between atoms: C_10  and  C_12
REMARK    4  A    between atoms: C_12  and  C_13
REMARK    5  A    between atoms: C_13  and  C_14
REMARK    6  A    between atoms: C_14  and  O_16
REMARK                            x       y       z     vdW  Elec       q    Type
REMARK                         _______ _______ _______ _____ _____    ______ ____
ROOT
ATOM      1  C   UNL     1       5.188   6.439  16.063  0.00  0.00    +0.000 C 
ATOM      2  C   UNL     1       5.483   5.019  16.601  0.00  0.00    +0.000 C 
ATOM      3  C   UNL     1       5.127   4.025  15.478  0.00  0.00    +0.000 C 
ATOM      4  C   UNL     1       7.037   4.945  16.811  0.00  0.00    +0.000 C 
ATOM      5  O   UNL     1       7.834   4.621  15.932  0.00  0.00    +0.000 OA
ATOM      6  N   UNL     1       7.541   5.488  17.972  0.00  0.00    +0.000 N 
ATOM      7  C   UNL     1       6.798   5.415  19.207  0.00  0.00    +0.000 C 
ATOM      8  C   UNL     1       5.307   5.660  19.016  0.00  0.00    +0.000 C 
ATOM      9  N   UNL     1       4.777   4.823  17.922  0.00  0.00    +0.000 N 
ATOM     10  C   UNL     1       3.673   3.973  18.105  0.00  0.00    +0.000 C 
ATOM     11  O   UNL     1       3.170   3.284  17.222  0.00  0.00    +0.000 OA
ATOM     12  H   UNL     1       8.551   5.418  18.021  0.00  0.00    +0.000 HD
ENDROOT
BRANCH  10  13
ATOM     13  C   UNL     1       3.103   3.933  19.514  0.00  0.00    +0.000 C 
BRANCH  13  14
ATOM     14  C   UNL     1       1.638   4.333  19.642  0.00  0.00    +0.000 C 
BRANCH  14  15
ATOM     15  C   UNL     1       0.813   3.092  19.908  0.00  0.00    +0.000 C 
ATOM     16  O   UNL     1       0.234   2.440  19.052  0.00  0.00    +0.000 OA
BRANCH  15  17
ATOM     17  O   UNL     1       0.772   2.759  21.217  0.00  0.00    +0.000 OA
ATOM     18  H   UNL     1      -0.031   2.266  21.470  0.00  0.00    +0.000 HD
ENDBRANCH  15  17
ENDBRANCH  14  15
ENDBRANCH  13  14
ENDBRANCH  10  13
TORSDOF 4
ENDMDL
MODEL 9
REMARK VINA RESULT:      -6.5      2.713      4.498
REMARK  Name = 
REMARK  6 active torsions:
REMARK  status: ('A' for Active; 'I' for Inactive)
REMARK    1  A    between atoms: C_1  and  C_2
REMARK    2  A    between atoms: C_2  and  C_3
REMARK    3  A    between atoms: C_10  and  C_12
REMARK    4  A    between atoms: C_12  and  C_13
REMARK    5  A    between atoms: C_13  and  C_14
REMARK    6  A    between atoms: C_14  and  O_16
REMARK                            x       y       z     vdW  Elec       q    Type
REMARK                         _______ _______ _______ _____ _____    ______ ____
ROOT
ATOM      1  C   UNL     1       1.450   4.604  17.830  0.00  0.00    +0.000 C 
ATOM      2  C   UNL     1       2.357   4.211  19.020  0.00  0.00    +0.000 C 
ATOM      3  C   UNL     1       2.187   5.299  20.099  0.00  0.00    +0.000 C 
ATOM      4  C   UNL     1       1.760   2.881  19.604  0.00  0.00    +0.000 C 
ATOM      5  O   UNL     1       0.872   2.842  20.454  0.00  0.00    +0.000 OA
ATOM      6  N   UNL     1       2.093   1.708  18.964  0.00  0.00    +0.000 N 
ATOM      7  C   UNL     1       3.399   1.533  18.373  0.00  0.00    +0.000 C 
ATOM      8  C   UNL     1       3.898   2.781  17.657  0.00  0.00    +0.000 C 
ATOM      9  N   UNL     1       3.763   3.968  18.524  0.00  0.00    +0.000 N 
ATOM     10  C   UNL     1       4.851   4.814  18.799  0.00  0.00    +0.000 C 
ATOM     11  O   UNL     1       4.786   5.832  19.482  0.00  0.00    +0.000 OA
ATOM     12  H   UNL     1       1.652   0.901  19.389  0.00  0.00    +0.000 HD
ENDROOT
BRANCH  10  13
ATOM     13  C   UNL     1       6.179   4.392  18.192  0.00  0.00    +0.000 C 
BRANCH  13  14
ATOM     14  C   UNL     1       6.860   5.435  17.314  0.00  0.00    +0.000 C 
BRANCH  14  15
ATOM     15  C   UNL     1       7.051   4.858  15.927  0.00  0.00    +0.000 C 
ATOM     16  O   UNL     1       7.622   5.424  15.006  0.00  0.00    +0.000 OA
BRANCH  15  17
ATOM     17  O   UNL     1       6.518   3.624  15.793  0.00  0.00    +0.000 OA
ATOM     18  H   UNL     1       5.885   3.392  16.499  0.00  0.00    +0.000 HD
ENDBRANCH  15  17
ENDBRANCH  14  15
ENDBRANCH  13  14
ENDBRANCH  10  13
TORSDOF 4
ENDMDL
