MODEL 1
REMARK VINA RESULT:      -7.7      0.000      0.000
REMARK  Name = 
REMARK  8 active torsions:
REMARK  status: ('A' for Active; 'I' for Inactive)
REMARK    1  A    between atoms: C_1  and  C_2
REMARK    2  A    between atoms: C_2  and  N_3
REMARK    3  A    between atoms: C_2  and  C_26
REMARK    4  A    between atoms: C_4  and  C_6
REMARK    5  A    between atoms: C_9  and  O_10
REMARK    6  A    between atoms: O_10  and  C_11
REMARK    7  A    between atoms: C_11  and  C_12
REMARK    8  A    between atoms: C_16  and  C_17
REMARK                            x       y       z     vdW  Elec       q    Type
REMARK                         _______ _______ _______ _____ _____    ______ ____
ROOT
ATOM      1  C   UNL     1       1.397   8.944  18.867  0.00  0.00    +0.000 A 
ATOM      2  C   UNL     1       1.786   7.849  19.648  0.00  0.00    +0.000 A 
ATOM      3  C   UNL     1       2.897   7.100  19.269  0.00  0.00    +0.000 A 
ATOM      4  C   UNL     1       3.562   7.452  18.105  0.00  0.00    +0.000 A 
ATOM      5  N   UNL     1       3.202   8.494  17.323  0.00  0.00    +0.000 NA
ATOM      6  C   UNL     1       2.125   9.217  17.720  0.00  0.00    +0.000 A 
ENDROOT
BRANCH   1   8
ATOM      7  N   UNL     1      -0.145  10.716  18.249  0.00  0.00    +0.000 N 
ATOM      8  C   UNL     1       0.231   9.792  19.200  0.00  0.00    +0.000 C 
ATOM      9  O   UNL     1      -0.354   9.658  20.271  0.00  0.00    +0.000 OA
ATOM     10  H   UNL     1       0.142  10.551  17.293  0.00  0.00    +0.000 HD
BRANCH   7  12
ATOM     11  C   UNL     1      -0.886  13.030  18.228  0.00  0.00    +0.000 C 
ATOM     12  C   UNL     1      -1.319  11.584  18.459  0.00  0.00    +0.000 C 
BRANCH  12  13
ATOM     13  C   UNL     1      -2.560  11.211  17.608  0.00  0.00    +0.000 C 
ATOM     14  F   UNL     1      -3.663  11.886  18.012  0.00  0.00    +0.000 F 
ATOM     15  F   UNL     1      -2.379  11.513  16.300  0.00  0.00    +0.000 F 
ATOM     16  F   UNL     1      -2.844   9.894  17.692  0.00  0.00    +0.000 F 
ENDBRANCH  12  13
ENDBRANCH   7  12
ENDBRANCH   1   8
BRANCH   4  17
ATOM     17  O   UNL     1       4.662   6.691  17.770  0.00  0.00    +0.000 OA
BRANCH  17  18
ATOM     18  C   UNL     1       4.876   6.661  16.353  0.00  0.00    +0.000 C 
BRANCH  18  19
ATOM     19  C   UNL     1       5.308   5.320  15.879  0.00  0.00    +0.000 A 
ATOM     20  C   UNL     1       6.145   5.026  14.829  0.00  0.00    +0.000 A 
ATOM     21  O   UNL     1       6.301   3.690  14.724  0.00  0.00    +0.000 OA
ATOM     22  N   UNL     1       5.562   3.063  15.703  0.00  0.00    +0.000 NA
ATOM     23  C   UNL     1       4.940   4.035  16.394  0.00  0.00    +0.000 A 
BRANCH  23  24
ATOM     24  C   UNL     1       4.035   3.694  17.498  0.00  0.00    +0.000 A 
ATOM     25  C   UNL     1       2.646   3.691  17.292  0.00  0.00    +0.000 A 
ATOM     26  C   UNL     1       1.767   3.403  18.342  0.00  0.00    +0.000 A 
ATOM     27  C   UNL     1       2.268   3.111  19.607  0.00  0.00    +0.000 A 
ATOM     28 CL   UNL     1       1.190   2.778  20.904  0.00  0.00    +0.000 Cl
ATOM     29  C   UNL     1       3.643   3.104  19.829  0.00  0.00    +0.000 A 
ATOM     30  C   UNL     1       4.520   3.402  18.782  0.00  0.00    +0.000 A 
ENDBRANCH  23  24
ENDBRANCH  18  19
ENDBRANCH  17  18
ENDBRANCH   4  17
TORSDOF 7
ENDMDL
MODEL 2
REMARK VINA RESULT:      -7.7      2.792      3.908
REMARK  Name = 
REMARK  8 active torsions:
REMARK  status: ('A' for Active; 'I' for Inactive)
REMARK    1  A    between atoms: C_1  and  C_2
REMARK    2  A    between atoms: C_2  and  N_3
REMARK    3  A    between atoms: C_2  and  C_26
REMARK    4  A    between atoms: C_4  and  C_6
REMARK    5  A    between atoms: C_9  and  O_10
REMARK    6  A    between atoms: O_10  and  C_11
REMARK    7  A    between atoms: C_11  and  C_12
REMARK    8  A    between atoms: C_16  and  C_17
REMARK                            x       y       z     vdW  Elec       q    Type
REMARK                         _______ _______ _______ _____ _____    ______ ____
ROOT
ATOM      1  C   UNL     1       0.554   9.532  18.627  0.00  0.00    +0.000 A 
ATOM      2  C   UNL     1       1.364   8.888  17.683  0.00  0.00    +0.000 A 
ATOM      3  C   UNL     1       2.184   7.838  18.089  0.00  0.00    +0.000 A 
ATOM      4  C   UNL     1       2.190   7.488  19.430  0.00  0.00    +0.000 A 
ATOM      5  N   UNL     1       1.431   8.099  20.366  0.00  0.00    +0.000 NA
ATOM      6  C   UNL     1       0.630   9.110  19.945  0.00  0.00    +0.000 A 
ENDROOT
BRANCH   1   8
ATOM      7  N   UNL     1      -1.426  10.347  17.482  0.00  0.00    +0.000 N 
ATOM      8  C   UNL     1      -0.345  10.653  18.280  0.00  0.00    +0.000 C 
ATOM      9  O   UNL     1      -0.119  11.787  18.695  0.00  0.00    +0.000 OA
ATOM     10  H   UNL     1      -1.737   9.384  17.459  0.00  0.00    +0.000 HD
BRANCH   7  12
ATOM     11  C   UNL     1      -2.785  11.171  15.643  0.00  0.00    +0.000 C 
ATOM     12  C   UNL     1      -2.409  11.381  17.109  0.00  0.00    +0.000 C 
BRANCH  12  13
ATOM     13  C   UNL     1      -3.661  11.443  18.021  0.00  0.00    +0.000 C 
ATOM     14  F   UNL     1      -3.376  12.002  19.222  0.00  0.00    +0.000 F 
ATOM     15  F   UNL     1      -4.645  12.192  17.470  0.00  0.00    +0.000 F 
ATOM     16  F   UNL     1      -4.163  10.214  18.262  0.00  0.00    +0.000 F 
ENDBRANCH  12  13
ENDBRANCH   7  12
ENDBRANCH   1   8
BRANCH   4  17
ATOM     17  O   UNL     1       3.008   6.437  19.788  0.00  0.00    +0.000 OA
BRANCH  17  18
ATOM     18  C   UNL     1       2.441   5.173  19.418  0.00  0.00    +0.000 C 
BRANCH  18  19
ATOM     19  C   UNL     1       3.256   4.029  19.904  0.00  0.00    +0.000 A 
ATOM     20  C   UNL     1       3.064   3.280  21.041  0.00  0.00    +0.000 A 
ATOM     21  O   UNL     1       4.010   2.323  21.127  0.00  0.00    +0.000 OA
ATOM     22  N   UNL     1       4.860   2.419  20.047  0.00  0.00    +0.000 NA
ATOM     23  C   UNL     1       4.429   3.459  19.312  0.00  0.00    +0.000 A 
BRANCH  23  24
ATOM     24  C   UNL     1       5.150   3.854  18.097  0.00  0.00    +0.000 A 
ATOM     25  C   UNL     1       6.397   4.490  18.194  0.00  0.00    +0.000 A 
ATOM     26  C   UNL     1       7.082   4.907  17.047  0.00  0.00    +0.000 A 
ATOM     27  C   UNL     1       6.527   4.687  15.790  0.00  0.00    +0.000 A 
ATOM     28 CL   UNL     1       7.355   5.216  14.380  0.00  0.00    +0.000 Cl
ATOM     29  C   UNL     1       5.293   4.053  15.672  0.00  0.00    +0.000 A 
ATOM     30  C   UNL     1       4.605   3.647  16.820  0.00  0.00    +0.000 A 
ENDBRANCH  23  24
ENDBRANCH  18  19
ENDBRANCH  17  18
ENDBRANCH   4  17
TORSDOF 7
ENDMDL
MODEL 3
REMARK VINA RESULT:      -7.5      0.252      1.168
REMARK  Name = 
REMARK  8 active torsions:
REMARK  status: ('A' for Active; 'I' for Inactive)
REMARK    1  A    between atoms: C_1  and  C_2
REMARK    2  A    between atoms: C_2  and  N_3
REMARK    3  A    between atoms: C_2  and  C_26
REMARK    4  A    between atoms: C_4  and  C_6
REMARK    5  A    between atoms: C_9  and  O_10
REMARK    6  A    between atoms: O_10  and  C_11
REMARK    7  A    between atoms: C_11  and  C_12
REMARK    8  A    between atoms: C_16  and  C_17
REMARK                            x       y       z     vdW  Elec       q    Type
REMARK                         _______ _______ _______ _____ _____    ______ ____
ROOT
ATOM      1  C   UNL     1       1.411   8.870  18.973  0.00  0.00    +0.000 A 
ATOM      2  C   UNL     1       1.909   7.767  19.677  0.00  0.00    +0.000 A 
ATOM      3  C   UNL     1       3.044   7.111  19.207  0.00  0.00    +0.000 A 
ATOM      4  C   UNL     1       3.624   7.562  18.031  0.00  0.00    +0.000 A 
ATOM      5  N   UNL     1       3.158   8.614  17.322  0.00  0.00    +0.000 NA
ATOM      6  C   UNL     1       2.060   9.245  17.807  0.00  0.00    +0.000 A 
ENDROOT
BRANCH   1   8
ATOM      7  N   UNL     1      -0.307  10.518  18.496  0.00  0.00    +0.000 N 
ATOM      8  C   UNL     1       0.212   9.622  19.404  0.00  0.00    +0.000 C 
ATOM      9  O   UNL     1      -0.275   9.437  20.516  0.00  0.00    +0.000 OA
ATOM     10  H   UNL     1      -0.084  10.382  17.519  0.00  0.00    +0.000 HD
BRANCH   7  12
ATOM     11  C   UNL     1      -1.151  12.771  18.843  0.00  0.00    +0.000 C 
ATOM     12  C   UNL     1      -1.525  11.291  18.806  0.00  0.00    +0.000 C 
BRANCH  12  13
ATOM     13  C   UNL     1      -2.721  11.022  17.857  0.00  0.00    +0.000 C 
ATOM     14  F   UNL     1      -3.040   9.706  17.816  0.00  0.00    +0.000 F 
ATOM     15  F   UNL     1      -3.835  11.679  18.258  0.00  0.00    +0.000 F 
ATOM     16  F   UNL     1      -2.449  11.407  16.592  0.00  0.00    +0.000 F 
ENDBRANCH  12  13
ENDBRANCH   7  12
ENDBRANCH   1   8
BRANCH   4  17
ATOM     17  O   UNL     1       4.752   6.892  17.606  0.00  0.00    +0.000 OA
BRANCH  17  18
ATOM     18  C   UNL     1       4.762   6.720  16.183  0.00  0.00    +0.000 C 
BRANCH  18  19
ATOM     19  C   UNL     1       5.237   5.369  15.784  0.00  0.00    +0.000 A 
ATOM     20  C   UNL     1       6.096   5.045  14.761  0.00  0.00    +0.000 A 
ATOM     21  O   UNL     1       6.289   3.710  14.727  0.00  0.00    +0.000 OA
ATOM     22  N   UNL     1       5.555   3.114  15.729  0.00  0.00    +0.000 NA
ATOM     23  C   UNL     1       4.897   4.102  16.361  0.00  0.00    +0.000 A 
BRANCH  23  24
ATOM     24  C   UNL     1       3.987   3.793  17.470  0.00  0.00    +0.000 A 
ATOM     25  C   UNL     1       4.502   3.519  18.746  0.00  0.00    +0.000 A 
ATOM     26  C   UNL     1       3.651   3.187  19.806  0.00  0.00    +0.000 A 
ATOM     27  C   UNL     1       2.276   3.130  19.601  0.00  0.00    +0.000 A 
ATOM     28 CL   UNL     1       1.230   2.702  20.895  0.00  0.00    +0.000 Cl
ATOM     29  C   UNL     1       1.745   3.404  18.343  0.00  0.00    +0.000 A 
ATOM     30  C   UNL     1       2.598   3.725  17.282  0.00  0.00    +0.000 A 
ENDBRANCH  23  24
ENDBRANCH  18  19
ENDBRANCH  17  18
ENDBRANCH   4  17
TORSDOF 7
ENDMDL
MODEL 4
REMARK VINA RESULT:      -7.5      6.173      7.828
REMARK  Name = 
REMARK  8 active torsions:
REMARK  status: ('A' for Active; 'I' for Inactive)
REMARK    1  A    between atoms: C_1  and  C_2
REMARK    2  A    between atoms: C_2  and  N_3
REMARK    3  A    between atoms: C_2  and  C_26
REMARK    4  A    between atoms: C_4  and  C_6
REMARK    5  A    between atoms: C_9  and  O_10
REMARK    6  A    between atoms: O_10  and  C_11
REMARK    7  A    between atoms: C_11  and  C_12
REMARK    8  A    between atoms: C_16  and  C_17
REMARK                            x       y       z     vdW  Elec       q    Type
REMARK                         _______ _______ _______ _____ _____    ______ ____
ROOT
ATOM      1  C   UNL     1       8.001   8.720  18.088  0.00  0.00    +0.000 A 
ATOM      2  C   UNL     1       8.487   7.673  18.881  0.00  0.00    +0.000 A 
ATOM      3  C   UNL     1       7.940   6.400  18.743  0.00  0.00    +0.000 A 
ATOM      4  C   UNL     1       6.904   6.223  17.838  0.00  0.00    +0.000 A 
ATOM      5  N   UNL     1       6.405   7.216  17.070  0.00  0.00    +0.000 NA
ATOM      6  C   UNL     1       6.962   8.445  17.212  0.00  0.00    +0.000 A 
ENDROOT
BRANCH   1   8
ATOM      7  N   UNL     1       9.502  10.327  19.119  0.00  0.00    +0.000 N 
ATOM      8  C   UNL     1       8.526  10.100  18.173  0.00  0.00    +0.000 C 
ATOM      9  O   UNL     1       8.100  10.978  17.428  0.00  0.00    +0.000 OA
ATOM     10  H   UNL     1      10.033   9.531  19.448  0.00  0.00    +0.000 HD
BRANCH   7  12
ATOM     11  C   UNL     1      10.551  11.827  20.718  0.00  0.00    +0.000 C 
ATOM     12  C   UNL     1      10.125  11.656  19.261  0.00  0.00    +0.000 C 
BRANCH  12  13
ATOM     13  C   UNL     1      11.296  11.930  18.283  0.00  0.00    +0.000 C 
ATOM     14  F   UNL     1      11.892  10.781  17.882  0.00  0.00    +0.000 F 
ATOM     15  F   UNL     1      10.872  12.558  17.159  0.00  0.00    +0.000 F 
ATOM     16  F   UNL     1      12.249  12.698  18.850  0.00  0.00    +0.000 F 
ENDBRANCH  12  13
ENDBRANCH   7  12
ENDBRANCH   1   8
BRANCH   4  17
ATOM     17  O   UNL     1       6.398   4.946  17.724  0.00  0.00    +0.000 OA
BRANCH  17  18
ATOM     18  C   UNL     1       5.374   4.692  18.694  0.00  0.00    +0.000 C 
BRANCH  18  19
ATOM     19  C   UNL     1       4.117   4.205  18.068  0.00  0.00    +0.000 A 
ATOM     20  C   UNL     1       3.943   3.094  17.277  0.00  0.00    +0.000 A 
ATOM     21  O   UNL     1       2.650   2.985  16.912  0.00  0.00    +0.000 OA
ATOM     22  N   UNL     1       1.931   4.031  17.450  0.00  0.00    +0.000 NA
ATOM     23  C   UNL     1       2.809   4.787  18.132  0.00  0.00    +0.000 A 
BRANCH  23  24
ATOM     24  C   UNL     1       2.364   6.014  18.803  0.00  0.00    +0.000 A 
ATOM     25  C   UNL     1       2.380   7.237  18.114  0.00  0.00    +0.000 A 
ATOM     26  C   UNL     1       1.993   8.422  18.749  0.00  0.00    +0.000 A 
ATOM     27  C   UNL     1       1.581   8.396  20.078  0.00  0.00    +0.000 A 
ATOM     28 CL   UNL     1       1.125   9.853  20.867  0.00  0.00    +0.000 Cl
ATOM     29  C   UNL     1       1.553   7.191  20.777  0.00  0.00    +0.000 A 
ATOM     30  C   UNL     1       1.951   6.009  20.144  0.00  0.00    +0.000 A 
ENDBRANCH  23  24
ENDBRANCH  18  19
ENDBRANCH  17  18
ENDBRANCH   4  17
TORSDOF 7
ENDMDL
MODEL 5
REMARK VINA RESULT:      -7.5      3.310      4.344
REMARK  Name = 
REMARK  8 active torsions:
REMARK  status: ('A' for Active; 'I' for Inactive)
REMARK    1  A    between atoms: C_1  and  C_2
REMARK    2  A    between atoms: C_2  and  N_3
REMARK    3  A    between atoms: C_2  and  C_26
REMARK    4  A    between atoms: C_4  and  C_6
REMARK    5  A    between atoms: C_9  and  O_10
REMARK    6  A    between atoms: O_10  and  C_11
REMARK    7  A    between atoms: C_11  and  C_12
REMARK    8  A    between atoms: C_16  and  C_17
REMARK                            x       y       z     vdW  Elec       q    Type
REMARK                         _______ _______ _______ _____ _____    ______ ____
ROOT
ATOM      1  C   UNL     1       1.125   9.608  19.980  0.00  0.00    +0.000 A 
ATOM      2  C   UNL     1       1.267   8.531  20.863  0.00  0.00    +0.000 A 
ATOM      3  C   UNL     1       1.840   7.346  20.408  0.00  0.00    +0.000 A 
ATOM      4  C   UNL     1       2.224   7.268  19.079  0.00  0.00    +0.000 A 
ATOM      5  N   UNL     1       2.087   8.285  18.200  0.00  0.00    +0.000 NA
ATOM      6  C   UNL     1       1.538   9.434  18.669  0.00  0.00    +0.000 A 
ENDROOT
BRANCH   1   8
ATOM      7  N   UNL     1      -0.742  10.848  20.915  0.00  0.00    +0.000 N 
ATOM      8  C   UNL     1       0.528  10.900  20.382  0.00  0.00    +0.000 C 
ATOM      9  O   UNL     1       1.151  11.948  20.239  0.00  0.00    +0.000 OA
ATOM     10  H   UNL     1      -1.051   9.969  21.310  0.00  0.00    +0.000 HD
BRANCH   7  12
ATOM     11  C   UNL     1      -2.576  12.370  20.440  0.00  0.00    +0.000 C 
ATOM     12  C   UNL     1      -1.416  12.072  21.387  0.00  0.00    +0.000 C 
BRANCH  12  13
ATOM     13  C   UNL     1      -1.877  12.027  22.867  0.00  0.00    +0.000 C 
ATOM     14  F   UNL     1      -1.561  10.847  23.453  0.00  0.00    +0.000 F 
ATOM     15  F   UNL     1      -1.286  12.996  23.605  0.00  0.00    +0.000 F 
ATOM     16  F   UNL     1      -3.213  12.182  22.977  0.00  0.00    +0.000 F 
ENDBRANCH  12  13
ENDBRANCH   7  12
ENDBRANCH   1   8
BRANCH   4  17
ATOM     17  O   UNL     1       2.797   6.081  18.672  0.00  0.00    +0.000 OA
BRANCH  17  18
ATOM     18  C   UNL     1       2.077   4.946  19.169  0.00  0.00    +0.000 C 
BRANCH  18  19
ATOM     19  C   UNL     1       2.981   3.920  19.754  0.00  0.00    +0.000 A 
ATOM     20  C   UNL     1       2.798   3.192  20.905  0.00  0.00    +0.000 A 
ATOM     21  O   UNL     1       3.839   2.355  21.091  0.00  0.00    +0.000 OA
ATOM     22  N   UNL     1       4.745   2.513  20.065  0.00  0.00    +0.000 NA
ATOM     23  C   UNL     1       4.250   3.472  19.262  0.00  0.00    +0.000 A 
BRANCH  23  24
ATOM     24  C   UNL     1       5.003   3.908  18.081  0.00  0.00    +0.000 A 
ATOM     25  C   UNL     1       4.500   3.658  16.795  0.00  0.00    +0.000 A 
ATOM     26  C   UNL     1       5.222   4.035  15.656  0.00  0.00    +0.000 A 
ATOM     27  C   UNL     1       6.453   4.670  15.794  0.00  0.00    +0.000 A 
ATOM     28 CL   UNL     1       7.352   5.115  14.399  0.00  0.00    +0.000 Cl
ATOM     29  C   UNL     1       6.967   4.931  17.062  0.00  0.00    +0.000 A 
ATOM     30  C   UNL     1       6.249   4.544  18.198  0.00  0.00    +0.000 A 
ENDBRANCH  23  24
ENDBRANCH  18  19
ENDBRANCH  17  18
ENDBRANCH   4  17
TORSDOF 7
ENDMDL
MODEL 6
REMARK VINA RESULT:      -7.4      3.012      4.158
REMARK  Name = 
REMARK  8 active torsions:
REMARK  status: ('A' for Active; 'I' for Inactive)
REMARK    1  A    between atoms: C_1  and  C_2
REMARK    2  A    between atoms: C_2  and  N_3
REMARK    3  A    between atoms: C_2  and  C_26
REMARK    4  A    between atoms: C_4  and  C_6
REMARK    5  A    between atoms: C_9  and  O_10
REMARK    6  A    between atoms: O_10  and  C_11
REMARK    7  A    between atoms: C_11  and  C_12
REMARK    8  A    between atoms: C_16  and  C_17
REMARK                            x       y       z     vdW  Elec       q    Type
REMARK                         _______ _______ _______ _____ _____    ______ ____
ROOT
ATOM      1  C   UNL     1       0.637   9.912  19.089  0.00  0.00    +0.000 A 
ATOM      2  C   UNL     1       1.362   9.369  18.021  0.00  0.00    +0.000 A 
ATOM      3  C   UNL     1       2.116   8.216  18.224  0.00  0.00    +0.000 A 
ATOM      4  C   UNL     1       2.145   7.663  19.495  0.00  0.00    +0.000 A 
ATOM      5  N   UNL     1       1.468   8.172  20.547  0.00  0.00    +0.000 NA
ATOM      6  C   UNL     1       0.730   9.288  20.323  0.00  0.00    +0.000 A 
ENDROOT
BRANCH   1   8
ATOM      7  N   UNL     1      -1.525  11.003  19.269  0.00  0.00    +0.000 N 
ATOM      8  C   UNL     1      -0.189  11.132  18.959  0.00  0.00    +0.000 C 
ATOM      9  O   UNL     1       0.314  12.191  18.593  0.00  0.00    +0.000 OA
ATOM     10  H   UNL     1      -1.797  10.233  19.867  0.00  0.00    +0.000 HD
BRANCH   7  12
ATOM     11  C   UNL     1      -3.612  11.804  18.314  0.00  0.00    +0.000 C 
ATOM     12  C   UNL     1      -2.432  12.165  19.214  0.00  0.00    +0.000 C 
BRANCH  12  13
ATOM     13  C   UNL     1      -2.899  12.687  20.597  0.00  0.00    +0.000 C 
ATOM     14  F   UNL     1      -2.690  14.020  20.724  0.00  0.00    +0.000 F 
ATOM     15  F   UNL     1      -4.225  12.484  20.785  0.00  0.00    +0.000 F 
ATOM     16  F   UNL     1      -2.241  12.081  21.607  0.00  0.00    +0.000 F 
ENDBRANCH  12  13
ENDBRANCH   7  12
ENDBRANCH   1   8
BRANCH   4  17
ATOM     17  O   UNL     1       2.896   6.516  19.650  0.00  0.00    +0.000 OA
BRANCH  17  18
ATOM     18  C   UNL     1       2.078   5.340  19.622  0.00  0.00    +0.000 C 
BRANCH  18  19
ATOM     19  C   UNL     1       2.795   4.145  20.141  0.00  0.00    +0.000 A 
ATOM     20  C   UNL     1       2.513   3.418  21.272  0.00  0.00    +0.000 A 
ATOM     21  O   UNL     1       3.389   2.399  21.396  0.00  0.00    +0.000 OA
ATOM     22  N   UNL     1       4.281   2.431  20.347  0.00  0.00    +0.000 NA
ATOM     23  C   UNL     1       3.948   3.494  19.593  0.00  0.00    +0.000 A 
BRANCH  23  24
ATOM     24  C   UNL     1       4.736   3.832  18.403  0.00  0.00    +0.000 A 
ATOM     25  C   UNL     1       6.007   4.412  18.543  0.00  0.00    +0.000 A 
ATOM     26  C   UNL     1       6.757   4.775  17.418  0.00  0.00    +0.000 A 
ATOM     27  C   UNL     1       6.246   4.556  16.143  0.00  0.00    +0.000 A 
ATOM     28 CL   UNL     1       7.156   5.020  14.761  0.00  0.00    +0.000 Cl
ATOM     29  C   UNL     1       4.989   3.978  15.983  0.00  0.00    +0.000 A 
ATOM     30  C   UNL     1       4.236   3.626  17.108  0.00  0.00    +0.000 A 
ENDBRANCH  23  24
ENDBRANCH  18  19
ENDBRANCH  17  18
ENDBRANCH   4  17
TORSDOF 7
ENDMDL
MODEL 7
REMARK VINA RESULT:      -7.4      3.445      4.446
REMARK  Name = 
REMARK  8 active torsions:
REMARK  status: ('A' for Active; 'I' for Inactive)
REMARK    1  A    between atoms: C_1  and  C_2
REMARK    2  A    between atoms: C_2  and  N_3
REMARK    3  A    between atoms: C_2  and  C_26
REMARK    4  A    between atoms: C_4  and  C_6
REMARK    5  A    between atoms: C_9  and  O_10
REMARK    6  A    between atoms: O_10  and  C_11
REMARK    7  A    between atoms: C_11  and  C_12
REMARK    8  A    between atoms: C_16  and  C_17
REMARK                            x       y       z     vdW  Elec       q    Type
REMARK                         _______ _______ _______ _____ _____    ______ ____
ROOT
ATOM      1  C   UNL     1       1.030  10.047  19.744  0.00  0.00    +0.000 A 
ATOM      2  C   UNL     1       1.440  10.015  18.405  0.00  0.00    +0.000 A 
ATOM      3  C   UNL     1       1.994   8.846  17.888  0.00  0.00    +0.000 A 
ATOM      4  C   UNL     1       2.147   7.760  18.735  0.00  0.00    +0.000 A 
ATOM      5  N   UNL     1       1.775   7.765  20.034  0.00  0.00    +0.000 NA
ATOM      6  C   UNL     1       1.225   8.909  20.512  0.00  0.00    +0.000 A 
ENDROOT
BRANCH   1   8
ATOM      7  N   UNL     1      -0.881  11.136  20.773  0.00  0.00    +0.000 N 
ATOM      8  C   UNL     1       0.432  11.246  20.371  0.00  0.00    +0.000 C 
ATOM      9  O   UNL     1       1.093  12.271  20.514  0.00  0.00    +0.000 OA
ATOM     10  H   UNL     1      -1.247  10.207  20.938  0.00  0.00    +0.000 HD
BRANCH   7  12
ATOM     11  C   UNL     1      -2.867  12.535  20.702  0.00  0.00    +0.000 C 
ATOM     12  C   UNL     1      -1.563  12.257  21.447  0.00  0.00    +0.000 C 
BRANCH  12  13
ATOM     13  C   UNL     1      -1.799  12.052  22.966  0.00  0.00    +0.000 C 
ATOM     14  F   UNL     1      -3.119  11.970  23.259  0.00  0.00    +0.000 F 
ATOM     15  F   UNL     1      -1.232  10.905  23.410  0.00  0.00    +0.000 F 
ATOM     16  F   UNL     1      -1.291  13.070  23.691  0.00  0.00    +0.000 F 
ENDBRANCH  12  13
ENDBRANCH   7  12
ENDBRANCH   1   8
BRANCH   4  17
ATOM     17  O   UNL     1       2.690   6.619  18.181  0.00  0.00    +0.000 OA
BRANCH  17  18
ATOM     18  C   UNL     1       3.626   5.992  19.067  0.00  0.00    +0.000 C 
BRANCH  18  19
ATOM     19  C   UNL     1       3.620   4.511  18.932  0.00  0.00    +0.000 A 
ATOM     20  C   UNL     1       2.982   3.594  19.732  0.00  0.00    +0.000 A 
ATOM     21  O   UNL     1       3.211   2.346  19.276  0.00  0.00    +0.000 OA
ATOM     22  N   UNL     1       4.016   2.406  18.159  0.00  0.00    +0.000 NA
ATOM     23  C   UNL     1       4.289   3.707  17.953  0.00  0.00    +0.000 A 
BRANCH  23  24
ATOM     24  C   UNL     1       5.164   4.112  16.848  0.00  0.00    +0.000 A 
ATOM     25  C   UNL     1       4.688   4.085  15.528  0.00  0.00    +0.000 A 
ATOM     26  C   UNL     1       5.521   4.434  14.458  0.00  0.00    +0.000 A 
ATOM     27  C   UNL     1       6.836   4.818  14.699  0.00  0.00    +0.000 A 
ATOM     28 CL   UNL     1       7.867   5.227  13.386  0.00  0.00    +0.000 Cl
ATOM     29  C   UNL     1       7.326   4.856  16.002  0.00  0.00    +0.000 A 
ATOM     30  C   UNL     1       6.496   4.496  17.069  0.00  0.00    +0.000 A 
ENDBRANCH  23  24
ENDBRANCH  18  19
ENDBRANCH  17  18
ENDBRANCH   4  17
TORSDOF 7
ENDMDL
MODEL 8
REMARK VINA RESULT:      -7.4      6.266      8.807
REMARK  Name = 
REMARK  8 active torsions:
REMARK  status: ('A' for Active; 'I' for Inactive)
REMARK    1  A    between atoms: C_1  and  C_2
REMARK    2  A    between atoms: C_2  and  N_3
REMARK    3  A    between atoms: C_2  and  C_26
REMARK    4  A    between atoms: C_4  and  C_6
REMARK    5  A    between atoms: C_9  and  O_10
REMARK    6  A    between atoms: O_10  and  C_11
REMARK    7  A    between atoms: C_11  and  C_12
REMARK    8  A    between atoms: C_16  and  C_17
REMARK                            x       y       z     vdW  Elec       q    Type
REMARK                         _______ _______ _______ _____ _____    ______ ____
ROOT
ATOM      1  C   UNL     1       6.183   5.831  17.521  0.00  0.00    +0.000 A 
ATOM      2  C   UNL     1       7.132   5.526  18.504  0.00  0.00    +0.000 A 
ATOM      3  C   UNL     1       8.040   6.503  18.904  0.00  0.00    +0.000 A 
ATOM      4  C   UNL     1       7.989   7.743  18.286  0.00  0.00    +0.000 A 
ATOM      5  N   UNL     1       7.094   8.062  17.324  0.00  0.00    +0.000 NA
ATOM      6  C   UNL     1       6.211   7.099  16.960  0.00  0.00    +0.000 A 
ENDROOT
BRANCH   1   8
ATOM      7  N   UNL     1       4.165   4.539  17.912  0.00  0.00    +0.000 N 
ATOM      8  C   UNL     1       5.184   4.852  17.040  0.00  0.00    +0.000 C 
ATOM      9  O   UNL     1       5.280   4.361  15.918  0.00  0.00    +0.000 OA
ATOM     10  H   UNL     1       3.955   5.201  18.649  0.00  0.00    +0.000 HD
BRANCH   7  12
ATOM     11  C   UNL     1       3.512   2.198  17.936  0.00  0.00    +0.000 C 
ATOM     12  C   UNL     1       3.092   3.606  17.520  0.00  0.00    +0.000 C 
BRANCH  12  13
ATOM     13  C   UNL     1       1.686   3.971  18.063  0.00  0.00    +0.000 C 
ATOM     14  F   UNL     1       1.765   4.767  19.157  0.00  0.00    +0.000 F 
ATOM     15  F   UNL     1       0.956   4.648  17.144  0.00  0.00    +0.000 F 
ATOM     16  F   UNL     1       0.988   2.872  18.417  0.00  0.00    +0.000 F 
ENDBRANCH  12  13
ENDBRANCH   7  12
ENDBRANCH   1   8
BRANCH   4  17
ATOM     17  O   UNL     1       8.898   8.685  18.718  0.00  0.00    +0.000 OA
BRANCH  17  18
ATOM     18  C   UNL     1       8.491  10.014  18.369  0.00  0.00    +0.000 C 
BRANCH  18  19
ATOM     19  C   UNL     1       9.613  10.986  18.457  0.00  0.00    +0.000 A 
ATOM     20  C   UNL     1      10.687  11.113  17.609  0.00  0.00    +0.000 A 
ATOM     21  O   UNL     1      11.483  12.120  18.022  0.00  0.00    +0.000 OA
ATOM     22  N   UNL     1      10.956  12.684  19.163  0.00  0.00    +0.000 NA
ATOM     23  C   UNL     1       9.838  11.994  19.450  0.00  0.00    +0.000 A 
BRANCH  23  24
ATOM     24  C   UNL     1       9.050  12.326  20.642  0.00  0.00    +0.000 A 
ATOM     25  C   UNL     1       8.928  11.395  21.685  0.00  0.00    +0.000 A 
ATOM     26  C   UNL     1       8.150  11.680  22.813  0.00  0.00    +0.000 A 
ATOM     27  C   UNL     1       7.492  12.902  22.911  0.00  0.00    +0.000 A 
ATOM     28 CL   UNL     1       6.519  13.247  24.286  0.00  0.00    +0.000 Cl
ATOM     29  C   UNL     1       7.605  13.841  21.889  0.00  0.00    +0.000 A 
ATOM     30  C   UNL     1       8.372  13.550  20.757  0.00  0.00    +0.000 A 
ENDBRANCH  23  24
ENDBRANCH  18  19
ENDBRANCH  17  18
ENDBRANCH   4  17
TORSDOF 7
ENDMDL
MODEL 9
REMARK VINA RESULT:      -7.4      3.346      4.396
REMARK  Name = 
REMARK  8 active torsions:
REMARK  status: ('A' for Active; 'I' for Inactive)
REMARK    1  A    between atoms: C_1  and  C_2
REMARK    2  A    between atoms: C_2  and  N_3
REMARK    3  A    between atoms: C_2  and  C_26
REMARK    4  A    between atoms: C_4  and  C_6
REMARK    5  A    between atoms: C_9  and  O_10
REMARK    6  A    between atoms: O_10  and  C_11
REMARK    7  A    between atoms: C_11  and  C_12
REMARK    8  A    between atoms: C_16  and  C_17
REMARK                            x       y       z     vdW  Elec       q    Type
REMARK                         _______ _______ _______ _____ _____    ______ ____
ROOT
ATOM      1  C   UNL     1       1.177   9.712  18.955  0.00  0.00    +0.000 A 
ATOM      2  C   UNL     1       1.807   9.000  17.928  0.00  0.00    +0.000 A 
ATOM      3  C   UNL     1       2.346   7.744  18.197  0.00  0.00    +0.000 A 
ATOM      4  C   UNL     1       2.266   7.258  19.493  0.00  0.00    +0.000 A 
ATOM      5  N   UNL     1       1.678   7.928  20.508  0.00  0.00    +0.000 NA
ATOM      6  C   UNL     1       1.147   9.142  20.219  0.00  0.00    +0.000 A 
ENDROOT
BRANCH   1   8
ATOM      7  N   UNL     1       1.346  12.128  19.137  0.00  0.00    +0.000 N 
ATOM      8  C   UNL     1       0.579  11.049  18.754  0.00  0.00    +0.000 C 
ATOM      9  O   UNL     1      -0.543  11.165  18.268  0.00  0.00    +0.000 OA
ATOM     10  H   UNL     1       2.347  11.994  19.204  0.00  0.00    +0.000 HD
BRANCH   7  12
ATOM     11  C   UNL     1       0.010  13.887  20.151  0.00  0.00    +0.000 C 
ATOM     12  C   UNL     1       0.864  13.508  18.943  0.00  0.00    +0.000 C 
BRANCH  12  13
ATOM     13  C   UNL     1       1.979  14.551  18.675  0.00  0.00    +0.000 C 
ATOM     14  F   UNL     1       2.763  14.187  17.632  0.00  0.00    +0.000 F 
ATOM     15  F   UNL     1       1.464  15.765  18.367  0.00  0.00    +0.000 F 
ATOM     16  F   UNL     1       2.785  14.705  19.746  0.00  0.00    +0.000 F 
ENDBRANCH  12  13
ENDBRANCH   7  12
ENDBRANCH   1   8
BRANCH   4  17
ATOM     17  O   UNL     1       2.803   6.007  19.715  0.00  0.00    +0.000 OA
BRANCH  17  18
ATOM     18  C   UNL     1       1.835   4.970  19.508  0.00  0.00    +0.000 C 
BRANCH  18  19
ATOM     19  C   UNL     1       2.417   3.791  18.812  0.00  0.00    +0.000 A 
ATOM     20  C   UNL     1       1.882   2.530  18.700  0.00  0.00    +0.000 A 
ATOM     21  O   UNL     1       2.708   1.742  17.982  0.00  0.00    +0.000 OA
ATOM     22  N   UNL     1       3.819   2.464  17.604  0.00  0.00    +0.000 NA
ATOM     23  C   UNL     1       3.666   3.698  18.117  0.00  0.00    +0.000 A 
BRANCH  23  24
ATOM     24  C   UNL     1       4.707   4.713  17.923  0.00  0.00    +0.000 A 
ATOM     25  C   UNL     1       5.720   4.874  18.881  0.00  0.00    +0.000 A 
ATOM     26  C   UNL     1       6.700   5.861  18.730  0.00  0.00    +0.000 A 
ATOM     27  C   UNL     1       6.679   6.695  17.617  0.00  0.00    +0.000 A 
ATOM     28 CL   UNL     1       7.868   7.923  17.439  0.00  0.00    +0.000 Cl
ATOM     29  C   UNL     1       5.685   6.549  16.652  0.00  0.00    +0.000 A 
ATOM     30  C   UNL     1       4.700   5.569  16.810  0.00  0.00    +0.000 A 
ENDBRANCH  23  24
ENDBRANCH  18  19
ENDBRANCH  17  18
ENDBRANCH   4  17
TORSDOF 7
ENDMDL
