MODEL 1
REMARK VINA RESULT:      -7.0      0.000      0.000
REMARK  Name = 
REMARK  1 active torsions:
REMARK  status: ('A' for Active; 'I' for Inactive)
REMARK    1  A    between atoms: C_7  and  C_8
REMARK                            x       y       z     vdW  Elec       q    Type
REMARK                         _______ _______ _______ _____ _____    ______ ____
ROOT
ATOM      1 CL   UNL     1       1.491   2.785  21.706  0.00  0.00    +0.000 Cl
ATOM      2  C   UNL     1       2.310   3.742  20.528  0.00  0.00    +0.000 A 
ATOM      3  C   UNL     1       2.109   5.129  20.516  0.00  0.00    +0.000 A 
ATOM      4  C   UNL     1       2.764   5.946  19.585  0.00  0.00    +0.000 A 
ATOM      5  C   UNL     1       3.605   5.287  18.696  0.00  0.00    +0.000 A 
ATOM      6  O   UNL     1       4.362   5.843  17.713  0.00  0.00    +0.000 OA
ATOM      7  C   UNL     1       4.996   4.772  17.119  0.00  0.00    +0.000 A 
ATOM      8  N   UNL     1       4.686   3.602  17.664  0.00  0.00    +0.000 NA
ATOM      9  C   UNL     1       3.814   3.920  18.671  0.00  0.00    +0.000 A 
ATOM     10  C   UNL     1       3.160   3.111  19.610  0.00  0.00    +0.000 A 
ENDROOT
BRANCH   7  11
ATOM     11  C   UNL     1       5.954   4.915  15.968  0.00  0.00    +0.000 A 
ATOM     12  C   UNL     1       5.775   4.346  14.685  0.00  0.00    +0.000 A 
ATOM     13  C   UNL     1       6.884   4.727  13.967  0.00  0.00    +0.000 A 
ATOM     14  N   UNL     1       7.647   5.465  14.823  0.00  0.00    +0.000 N 
ATOM     15  N   UNL     1       7.100   5.610  16.042  0.00  0.00    +0.000 NA
ATOM     16  H   UNL     1       8.546   5.900  14.645  0.00  0.00    +0.000 HD
ENDBRANCH   7  11
TORSDOF 1
ENDMDL
MODEL 2
REMARK VINA RESULT:      -7.0      1.251      1.429
REMARK  Name = 
REMARK  1 active torsions:
REMARK  status: ('A' for Active; 'I' for Inactive)
REMARK    1  A    between atoms: C_7  and  C_8
REMARK                            x       y       z     vdW  Elec       q    Type
REMARK                         _______ _______ _______ _____ _____    ______ ____
ROOT
ATOM      1 CL   UNL     1       1.506   2.626  21.979  0.00  0.00    +0.000 Cl
ATOM      2  C   UNL     1       2.025   3.001  20.378  0.00  0.00    +0.000 A 
ATOM      3  C   UNL     1       1.079   3.034  19.345  0.00  0.00    +0.000 A 
ATOM      4  C   UNL     1       1.454   3.347  18.032  0.00  0.00    +0.000 A 
ATOM      5  C   UNL     1       2.805   3.614  17.841  0.00  0.00    +0.000 A 
ATOM      6  O   UNL     1       3.421   3.955  16.678  0.00  0.00    +0.000 OA
ATOM      7  C   UNL     1       4.749   4.099  17.021  0.00  0.00    +0.000 A 
ATOM      8  N   UNL     1       4.994   3.872  18.306  0.00  0.00    +0.000 NA
ATOM      9  C   UNL     1       3.766   3.575  18.836  0.00  0.00    +0.000 A 
ATOM     10  C   UNL     1       3.381   3.267  20.146  0.00  0.00    +0.000 A 
ENDROOT
BRANCH   7  11
ATOM     11  C   UNL     1       5.819   4.483  16.036  0.00  0.00    +0.000 A 
ATOM     12  C   UNL     1       5.758   4.258  14.639  0.00  0.00    +0.000 A 
ATOM     13  C   UNL     1       6.940   4.758  14.145  0.00  0.00    +0.000 A 
ATOM     14  N   UNL     1       7.626   5.228  15.226  0.00  0.00    +0.000 N 
ATOM     15  N   UNL     1       6.964   5.089  16.386  0.00  0.00    +0.000 NA
ATOM     16  H   UNL     1       8.546   5.656  15.246  0.00  0.00    +0.000 HD
ENDBRANCH   7  11
TORSDOF 1
ENDMDL
MODEL 3
REMARK VINA RESULT:      -7.0      3.353      6.101
REMARK  Name = 
REMARK  1 active torsions:
REMARK  status: ('A' for Active; 'I' for Inactive)
REMARK    1  A    between atoms: C_7  and  C_8
REMARK                            x       y       z     vdW  Elec       q    Type
REMARK                         _______ _______ _______ _____ _____    ______ ____
ROOT
ATOM      1 CL   UNL     1       7.139   4.918  13.883  0.00  0.00    +0.000 Cl
ATOM      2  C   UNL     1       6.546   4.659  15.480  0.00  0.00    +0.000 A 
ATOM      3  C   UNL     1       7.419   4.814  16.566  0.00  0.00    +0.000 A 
ATOM      4  C   UNL     1       6.976   4.625  17.882  0.00  0.00    +0.000 A 
ATOM      5  C   UNL     1       5.638   4.279  18.021  0.00  0.00    +0.000 A 
ATOM      6  O   UNL     1       4.960   4.055  19.179  0.00  0.00    +0.000 OA
ATOM      7  C   UNL     1       3.681   3.738  18.773  0.00  0.00    +0.000 A 
ATOM      8  N   UNL     1       3.522   3.750  17.455  0.00  0.00    +0.000 NA
ATOM      9  C   UNL     1       4.754   4.103  16.971  0.00  0.00    +0.000 A 
ATOM     10  C   UNL     1       5.204   4.300  15.659  0.00  0.00    +0.000 A 
ENDROOT
BRANCH   7  11
ATOM     11  C   UNL     1       2.568   3.415  19.732  0.00  0.00    +0.000 A 
ATOM     12  C   UNL     1       2.741   2.861  21.023  0.00  0.00    +0.000 A 
ATOM     13  C   UNL     1       1.470   2.733  21.530  0.00  0.00    +0.000 A 
ATOM     14  N   UNL     1       0.632   3.187  20.555  0.00  0.00    +0.000 N 
ATOM     15  N   UNL     1       1.271   3.623  19.457  0.00  0.00    +0.000 NA
ATOM     16  H   UNL     1      -0.382   3.231  20.570  0.00  0.00    +0.000 HD
ENDBRANCH   7  11
TORSDOF 1
ENDMDL
MODEL 4
REMARK VINA RESULT:      -6.8      3.345      6.094
REMARK  Name = 
REMARK  1 active torsions:
REMARK  status: ('A' for Active; 'I' for Inactive)
REMARK    1  A    between atoms: C_7  and  C_8
REMARK                            x       y       z     vdW  Elec       q    Type
REMARK                         _______ _______ _______ _____ _____    ______ ____
ROOT
ATOM      1 CL   UNL     1       6.837   4.512  13.728  0.00  0.00    +0.000 Cl
ATOM      2  C   UNL     1       6.447   4.392  15.403  0.00  0.00    +0.000 A 
ATOM      3  C   UNL     1       7.398   4.782  16.355  0.00  0.00    +0.000 A 
ATOM      4  C   UNL     1       7.118   4.713  17.726  0.00  0.00    +0.000 A 
ATOM      5  C   UNL     1       5.855   4.238  18.058  0.00  0.00    +0.000 A 
ATOM      6  O   UNL     1       5.332   4.089  19.304  0.00  0.00    +0.000 OA
ATOM      7  C   UNL     1       4.068   3.580  19.089  0.00  0.00    +0.000 A 
ATOM      8  N   UNL     1       3.777   3.406  17.805  0.00  0.00    +0.000 NA
ATOM      9  C   UNL     1       4.899   3.832  17.144  0.00  0.00    +0.000 A 
ATOM     10  C   UNL     1       5.185   3.909  15.775  0.00  0.00    +0.000 A 
ENDROOT
BRANCH   7  11
ATOM     11  C   UNL     1       3.108   3.258  20.200  0.00  0.00    +0.000 A 
ATOM     12  C   UNL     1       1.770   3.713  20.278  0.00  0.00    +0.000 A 
ATOM     13  C   UNL     1       1.280   3.186  21.449  0.00  0.00    +0.000 A 
ATOM     14  N   UNL     1       2.309   2.479  21.998  0.00  0.00    +0.000 N 
ATOM     15  N   UNL     1       3.428   2.492  21.255  0.00  0.00    +0.000 NA
ATOM     16  H   UNL     1       2.320   1.965  22.873  0.00  0.00    +0.000 HD
ENDBRANCH   7  11
TORSDOF 1
ENDMDL
MODEL 5
REMARK VINA RESULT:      -6.8      1.458      2.032
REMARK  Name = 
REMARK  1 active torsions:
REMARK  status: ('A' for Active; 'I' for Inactive)
REMARK    1  A    between atoms: C_7  and  C_8
REMARK                            x       y       z     vdW  Elec       q    Type
REMARK                         _______ _______ _______ _____ _____    ______ ____
ROOT
ATOM      1 CL   UNL     1       0.747   4.056  20.497  0.00  0.00    +0.000 Cl
ATOM      2  C   UNL     1       1.966   3.654  19.346  0.00  0.00    +0.000 A 
ATOM      3  C   UNL     1       2.263   2.305  19.110  0.00  0.00    +0.000 A 
ATOM      4  C   UNL     1       3.237   1.932  18.174  0.00  0.00    +0.000 A 
ATOM      5  C   UNL     1       3.870   2.981  17.517  0.00  0.00    +0.000 A 
ATOM      6  O   UNL     1       4.833   2.892  16.561  0.00  0.00    +0.000 OA
ATOM      7  C   UNL     1       5.128   4.203  16.248  0.00  0.00    +0.000 A 
ATOM      8  N   UNL     1       4.420   5.087  16.939  0.00  0.00    +0.000 NA
ATOM      9  C   UNL     1       3.611   4.322  17.738  0.00  0.00    +0.000 A 
ATOM     10  C   UNL     1       2.632   4.685  18.670  0.00  0.00    +0.000 A 
ENDROOT
BRANCH   7  11
ATOM     11  C   UNL     1       6.151   4.593  15.217  0.00  0.00    +0.000 A 
ATOM     12  C   UNL     1       6.202   4.097  13.892  0.00  0.00    +0.000 A 
ATOM     13  C   UNL     1       7.288   4.717  13.320  0.00  0.00    +0.000 A 
ATOM     14  N   UNL     1       7.819   5.512  14.293  0.00  0.00    +0.000 N 
ATOM     15  N   UNL     1       7.140   5.470  15.451  0.00  0.00    +0.000 NA
ATOM     16  H   UNL     1       8.638   6.108  14.237  0.00  0.00    +0.000 HD
ENDBRANCH   7  11
TORSDOF 1
ENDMDL
MODEL 6
REMARK VINA RESULT:      -6.6      3.632      5.613
REMARK  Name = 
REMARK  1 active torsions:
REMARK  status: ('A' for Active; 'I' for Inactive)
REMARK    1  A    between atoms: C_7  and  C_8
REMARK                            x       y       z     vdW  Elec       q    Type
REMARK                         _______ _______ _______ _____ _____    ______ ____
ROOT
ATOM      1 CL   UNL     1       8.175   8.731  17.286  0.00  0.00    +0.000 Cl
ATOM      2  C   UNL     1       7.411   7.310  17.896  0.00  0.00    +0.000 A 
ATOM      3  C   UNL     1       8.087   6.524  18.838  0.00  0.00    +0.000 A 
ATOM      4  C   UNL     1       7.499   5.368  19.370  0.00  0.00    +0.000 A 
ATOM      5  C   UNL     1       6.225   5.072  18.899  0.00  0.00    +0.000 A 
ATOM      6  O   UNL     1       5.436   4.025  19.260  0.00  0.00    +0.000 OA
ATOM      7  C   UNL     1       4.292   4.180  18.505  0.00  0.00    +0.000 A 
ATOM      8  N   UNL     1       4.321   5.241  17.708  0.00  0.00    +0.000 NA
ATOM      9  C   UNL     1       5.537   5.818  17.959  0.00  0.00    +0.000 A 
ATOM     10  C   UNL     1       6.130   6.975  17.437  0.00  0.00    +0.000 A 
ENDROOT
BRANCH   7  11
ATOM     11  C   UNL     1       3.121   3.240  18.581  0.00  0.00    +0.000 A 
ATOM     12  C   UNL     1       1.762   3.621  18.465  0.00  0.00    +0.000 A 
ATOM     13  C   UNL     1       1.051   2.452  18.601  0.00  0.00    +0.000 A 
ATOM     14  N   UNL     1       1.978   1.471  18.794  0.00  0.00    +0.000 N 
ATOM     15  N   UNL     1       3.245   1.917  18.771  0.00  0.00    +0.000 NA
ATOM     16  H   UNL     1       1.820   0.480  18.946  0.00  0.00    +0.000 HD
ENDBRANCH   7  11
TORSDOF 1
ENDMDL
MODEL 7
REMARK VINA RESULT:      -6.6      3.256      5.990
REMARK  Name = 
REMARK  1 active torsions:
REMARK  status: ('A' for Active; 'I' for Inactive)
REMARK    1  A    between atoms: C_7  and  C_8
REMARK                            x       y       z     vdW  Elec       q    Type
REMARK                         _______ _______ _______ _____ _____    ______ ____
ROOT
ATOM      1 CL   UNL     1       7.008   4.854  14.004  0.00  0.00    +0.000 Cl
ATOM      2  C   UNL     1       5.910   5.082  15.314  0.00  0.00    +0.000 A 
ATOM      3  C   UNL     1       5.489   6.380  15.633  0.00  0.00    +0.000 A 
ATOM      4  C   UNL     1       4.588   6.611  16.681  0.00  0.00    +0.000 A 
ATOM      5  C   UNL     1       4.158   5.479  17.362  0.00  0.00    +0.000 A 
ATOM      6  O   UNL     1       3.281   5.425  18.400  0.00  0.00    +0.000 OA
ATOM      7  C   UNL     1       3.202   4.085  18.716  0.00  0.00    +0.000 A 
ATOM      8  N   UNL     1       3.965   3.313  17.951  0.00  0.00    +0.000 NA
ATOM      9  C   UNL     1       4.565   4.186  17.083  0.00  0.00    +0.000 A 
ATOM     10  C   UNL     1       5.461   3.965  16.030  0.00  0.00    +0.000 A 
ENDROOT
BRANCH   7  11
ATOM     11  C   UNL     1       2.332   3.547  19.818  0.00  0.00    +0.000 A 
ATOM     12  C   UNL     1       2.803   2.904  20.988  0.00  0.00    +0.000 A 
ATOM     13  C   UNL     1       1.671   2.580  21.698  0.00  0.00    +0.000 A 
ATOM     14  N   UNL     1       0.621   3.017  20.946  0.00  0.00    +0.000 N 
ATOM     15  N   UNL     1       0.991   3.623  19.806  0.00  0.00    +0.000 NA
ATOM     16  H   UNL     1      -0.370   2.938  21.147  0.00  0.00    +0.000 HD
ENDBRANCH   7  11
TORSDOF 1
ENDMDL
MODEL 8
REMARK VINA RESULT:      -6.5      1.710      2.201
REMARK  Name = 
REMARK  1 active torsions:
REMARK  status: ('A' for Active; 'I' for Inactive)
REMARK    1  A    between atoms: C_7  and  C_8
REMARK                            x       y       z     vdW  Elec       q    Type
REMARK                         _______ _______ _______ _____ _____    ______ ____
ROOT
ATOM      1 CL   UNL     1       0.949   7.734  21.130  0.00  0.00    +0.000 Cl
ATOM      2  C   UNL     1       1.977   6.710  20.200  0.00  0.00    +0.000 A 
ATOM      3  C   UNL     1       2.056   5.348  20.522  0.00  0.00    +0.000 A 
ATOM      4  C   UNL     1       2.868   4.477  19.785  0.00  0.00    +0.000 A 
ATOM      5  C   UNL     1       3.573   5.056  18.736  0.00  0.00    +0.000 A 
ATOM      6  O   UNL     1       4.412   4.435  17.866  0.00  0.00    +0.000 OA
ATOM      7  C   UNL     1       4.855   5.443  17.035  0.00  0.00    +0.000 A 
ATOM      8  N   UNL     1       4.351   6.635  17.331  0.00  0.00    +0.000 NA
ATOM      9  C   UNL     1       3.529   6.397  18.401  0.00  0.00    +0.000 A 
ATOM     10  C   UNL     1       2.709   7.260  19.139  0.00  0.00    +0.000 A 
ENDROOT
BRANCH   7  11
ATOM     11  C   UNL     1       5.813   5.215  15.899  0.00  0.00    +0.000 A 
ATOM     12  C   UNL     1       5.550   4.414  14.761  0.00  0.00    +0.000 A 
ATOM     13  C   UNL     1       6.693   4.489  14.000  0.00  0.00    +0.000 A 
ATOM     14  N   UNL     1       7.552   5.288  14.695  0.00  0.00    +0.000 N 
ATOM     15  N   UNL     1       7.040   5.757  15.845  0.00  0.00    +0.000 NA
ATOM     16  H   UNL     1       8.499   5.556  14.446  0.00  0.00    +0.000 HD
ENDBRANCH   7  11
TORSDOF 1
ENDMDL
MODEL 9
REMARK VINA RESULT:      -6.5      1.424      1.642
REMARK  Name = 
REMARK  1 active torsions:
REMARK  status: ('A' for Active; 'I' for Inactive)
REMARK    1  A    between atoms: C_7  and  C_8
REMARK                            x       y       z     vdW  Elec       q    Type
REMARK                         _______ _______ _______ _____ _____    ______ ____
ROOT
ATOM      1 CL   UNL     1       0.490   3.290  20.137  0.00  0.00    +0.000 Cl
ATOM      2  C   UNL     1       2.075   3.450  19.478  0.00  0.00    +0.000 A 
ATOM      3  C   UNL     1       3.180   3.107  20.268  0.00  0.00    +0.000 A 
ATOM      4  C   UNL     1       4.485   3.210  19.770  0.00  0.00    +0.000 A 
ATOM      5  C   UNL     1       4.593   3.669  18.462  0.00  0.00    +0.000 A 
ATOM      6  O   UNL     1       5.733   3.844  17.742  0.00  0.00    +0.000 OA
ATOM      7  C   UNL     1       5.301   4.321  16.522  0.00  0.00    +0.000 A 
ATOM      8  N   UNL     1       3.982   4.452  16.440  0.00  0.00    +0.000 NA
ATOM      9  C   UNL     1       3.525   4.030  17.661  0.00  0.00    +0.000 A 
ATOM     10  C   UNL     1       2.223   3.918  18.166  0.00  0.00    +0.000 A 
ENDROOT
BRANCH   7  11
ATOM     11  C   UNL     1       6.232   4.656  15.390  0.00  0.00    +0.000 A 
ATOM     12  C   UNL     1       6.143   4.128  14.079  0.00  0.00    +0.000 A 
ATOM     13  C   UNL     1       7.188   4.700  13.392  0.00  0.00    +0.000 A 
ATOM     14  N   UNL     1       7.832   5.499  14.290  0.00  0.00    +0.000 N 
ATOM     15  N   UNL     1       7.265   5.505  15.508  0.00  0.00    +0.000 NA
ATOM     16  H   UNL     1       8.659   6.068  14.143  0.00  0.00    +0.000 HD
ENDBRANCH   7  11
TORSDOF 1
ENDMDL
