MODEL 1
REMARK VINA RESULT:      -6.9      0.000      0.000
REMARK  Name = 
REMARK  4 active torsions:
REMARK  status: ('A' for Active; 'I' for Inactive)
REMARK    1  A    between atoms: C_2  and  C_3
REMARK    2  A    between atoms: C_5  and  C_6
REMARK    3  A    between atoms: C_6  and  C_8
REMARK    4  A    between atoms: C_15  and  N_16
REMARK                            x       y       z     vdW  Elec       q    Type
REMARK                         _______ _______ _______ _____ _____    ______ ____
ROOT
ATOM      1  C   UNL     1       6.167   5.341  16.403  0.00  0.00    +0.000 A 
ATOM      2  N   UNL     1       4.892   5.857  16.432  0.00  0.00    +0.000 NA
ATOM      3  C   UNL     1       4.533   5.724  17.701  0.00  0.00    +0.000 A 
ATOM      4  O   UNL     1       5.498   5.156  18.502  0.00  0.00    +0.000 OA
ATOM      5  C   UNL     1       6.540   4.903  17.654  0.00  0.00    +0.000 A 
ENDROOT
BRANCH   5   6
ATOM      6  N   UNL     1       7.626   4.321  18.177  0.00  0.00    +0.000 N 
ATOM      7  H   UNL     1       8.427   4.089  17.597  0.00  0.00    +0.000 HD
ATOM      8  H   UNL     1       7.745   4.148  19.172  0.00  0.00    +0.000 HD
ENDBRANCH   5   6
BRANCH   1  10
ATOM      9  N   UNL     1       7.555   5.201  14.224  0.00  0.00    +0.000 NA
ATOM     10  C   UNL     1       6.927   5.277  15.202  0.00  0.00    +0.000 C 
ENDBRANCH   1  10
BRANCH   3  11
ATOM     11  C   UNL     1       3.253   6.111  18.261  0.00  0.00    +0.000 C 
ATOM     12  O   UNL     1       2.864   7.278  18.361  0.00  0.00    +0.000 OA
BRANCH  11  13
ATOM     13  C   UNL     1       2.334   5.052  18.761  0.00  0.00    +0.000 A 
ATOM     14  C   UNL     1       1.962   5.082  20.113  0.00  0.00    +0.000 A 
ATOM     15  C   UNL     1       1.185   4.058  20.654  0.00  0.00    +0.000 A 
ATOM     16  C   UNL     1       0.781   2.995  19.847  0.00  0.00    +0.000 A 
ATOM     17  C   UNL     1       1.148   2.955  18.502  0.00  0.00    +0.000 A 
ATOM     18  C   UNL     1       1.923   3.982  17.953  0.00  0.00    +0.000 A 
ENDBRANCH  11  13
ENDBRANCH   3  11
TORSDOF 4
ENDMDL
MODEL 2
REMARK VINA RESULT:      -6.9      2.255      3.022
REMARK  Name = 
REMARK  4 active torsions:
REMARK  status: ('A' for Active; 'I' for Inactive)
REMARK    1  A    between atoms: C_2  and  C_3
REMARK    2  A    between atoms: C_5  and  C_6
REMARK    3  A    between atoms: C_6  and  C_8
REMARK    4  A    between atoms: C_15  and  N_16
REMARK                            x       y       z     vdW  Elec       q    Type
REMARK                         _______ _______ _______ _____ _____    ______ ____
ROOT
ATOM      1  C   UNL     1       7.393   6.654  18.040  0.00  0.00    +0.000 A 
ATOM      2  N   UNL     1       6.551   6.205  17.050  0.00  0.00    +0.000 NA
ATOM      3  C   UNL     1       6.274   4.963  17.419  0.00  0.00    +0.000 A 
ATOM      4  O   UNL     1       6.882   4.575  18.592  0.00  0.00    +0.000 OA
ATOM      5  C   UNL     1       7.609   5.668  18.977  0.00  0.00    +0.000 A 
ENDROOT
BRANCH   5   6
ATOM      6  N   UNL     1       8.329   5.558  20.099  0.00  0.00    +0.000 N 
ATOM      7  H   UNL     1       7.993   5.944  20.977  0.00  0.00    +0.000 HD
ATOM      8  H   UNL     1       9.197   5.031  20.159  0.00  0.00    +0.000 HD
ENDBRANCH   5   6
BRANCH   1  10
ATOM      9  N   UNL     1       8.403   9.036  18.031  0.00  0.00    +0.000 NA
ATOM     10  C   UNL     1       7.948   7.964  18.021  0.00  0.00    +0.000 C 
ENDBRANCH   1  10
BRANCH   3  11
ATOM     11  C   UNL     1       5.425   4.036  16.696  0.00  0.00    +0.000 C 
ATOM     12  O   UNL     1       5.760   3.450  15.663  0.00  0.00    +0.000 OA
BRANCH  11  13
ATOM     13  C   UNL     1       4.055   3.760  17.209  0.00  0.00    +0.000 A 
ATOM     14  C   UNL     1       3.210   4.850  17.460  0.00  0.00    +0.000 A 
ATOM     15  C   UNL     1       1.955   4.653  18.034  0.00  0.00    +0.000 A 
ATOM     16  C   UNL     1       1.541   3.365  18.368  0.00  0.00    +0.000 A 
ATOM     17  C   UNL     1       2.376   2.273  18.125  0.00  0.00    +0.000 A 
ATOM     18  C   UNL     1       3.633   2.466  17.544  0.00  0.00    +0.000 A 
ENDBRANCH  11  13
ENDBRANCH   3  11
TORSDOF 4
ENDMDL
MODEL 3
REMARK VINA RESULT:      -6.9      0.157      1.220
REMARK  Name = 
REMARK  4 active torsions:
REMARK  status: ('A' for Active; 'I' for Inactive)
REMARK    1  A    between atoms: C_2  and  C_3
REMARK    2  A    between atoms: C_5  and  C_6
REMARK    3  A    between atoms: C_6  and  C_8
REMARK    4  A    between atoms: C_15  and  N_16
REMARK                            x       y       z     vdW  Elec       q    Type
REMARK                         _______ _______ _______ _____ _____    ______ ____
ROOT
ATOM      1  C   UNL     1       6.205   5.312  16.279  0.00  0.00    +0.000 A 
ATOM      2  N   UNL     1       4.918   5.794  16.297  0.00  0.00    +0.000 NA
ATOM      3  C   UNL     1       4.547   5.640  17.560  0.00  0.00    +0.000 A 
ATOM      4  O   UNL     1       5.516   5.090  18.368  0.00  0.00    +0.000 OA
ATOM      5  C   UNL     1       6.575   4.872  17.531  0.00  0.00    +0.000 A 
ENDROOT
BRANCH   5   6
ATOM      6  N   UNL     1       7.670   4.315  18.062  0.00  0.00    +0.000 N 
ATOM      7  H   UNL     1       8.393   3.915  17.471  0.00  0.00    +0.000 HD
ATOM      8  H   UNL     1       7.877   4.324  19.058  0.00  0.00    +0.000 HD
ENDBRANCH   5   6
BRANCH   1  10
ATOM      9  N   UNL     1       7.627   5.231  14.118  0.00  0.00    +0.000 NA
ATOM     10  C   UNL     1       6.982   5.279  15.087  0.00  0.00    +0.000 C 
ENDBRANCH   1  10
BRANCH   3  11
ATOM     11  C   UNL     1       3.251   5.987  18.109  0.00  0.00    +0.000 C 
ATOM     12  O   UNL     1       2.759   7.119  18.063  0.00  0.00    +0.000 OA
BRANCH  11  13
ATOM     13  C   UNL     1       2.443   4.932  18.780  0.00  0.00    +0.000 A 
ATOM     14  C   UNL     1       1.939   3.885  17.995  0.00  0.00    +0.000 A 
ATOM     15  C   UNL     1       1.095   2.927  18.555  0.00  0.00    +0.000 A 
ATOM     16  C   UNL     1       0.745   3.014  19.902  0.00  0.00    +0.000 A 
ATOM     17  C   UNL     1       1.241   4.054  20.690  0.00  0.00    +0.000 A 
ATOM     18  C   UNL     1       2.091   5.014  20.134  0.00  0.00    +0.000 A 
ENDBRANCH  11  13
ENDBRANCH   3  11
TORSDOF 4
ENDMDL
MODEL 4
REMARK VINA RESULT:      -6.9      2.225      2.508
REMARK  Name = 
REMARK  4 active torsions:
REMARK  status: ('A' for Active; 'I' for Inactive)
REMARK    1  A    between atoms: C_2  and  C_3
REMARK    2  A    between atoms: C_5  and  C_6
REMARK    3  A    between atoms: C_6  and  C_8
REMARK    4  A    between atoms: C_15  and  N_16
REMARK                            x       y       z     vdW  Elec       q    Type
REMARK                         _______ _______ _______ _____ _____    ______ ____
ROOT
ATOM      1  C   UNL     1       6.710   6.180  18.177  0.00  0.00    +0.000 A 
ATOM      2  N   UNL     1       5.562   5.637  17.650  0.00  0.00    +0.000 NA
ATOM      3  C   UNL     1       5.338   4.580  18.419  0.00  0.00    +0.000 A 
ATOM      4  O   UNL     1       6.269   4.405  19.417  0.00  0.00    +0.000 OA
ATOM      5  C   UNL     1       7.153   5.433  19.245  0.00  0.00    +0.000 A 
ENDROOT
BRANCH   5   6
ATOM      6  N   UNL     1       8.191   5.494  20.087  0.00  0.00    +0.000 N 
ATOM      7  H   UNL     1       8.062   5.752  21.061  0.00  0.00    +0.000 HD
ATOM      8  H   UNL     1       9.137   5.221  19.831  0.00  0.00    +0.000 HD
ENDBRANCH   5   6
BRANCH   1  10
ATOM      9  N   UNL     1       7.830   8.284  17.169  0.00  0.00    +0.000 NA
ATOM     10  C   UNL     1       7.314   7.344  17.626  0.00  0.00    +0.000 C 
ENDBRANCH   1  10
BRANCH   3  11
ATOM     11  C   UNL     1       4.239   3.646  18.272  0.00  0.00    +0.000 C 
ATOM     12  O   UNL     1       4.087   2.901  17.299  0.00  0.00    +0.000 OA
BRANCH  11  13
ATOM     13  C   UNL     1       3.213   3.563  19.347  0.00  0.00    +0.000 A 
ATOM     14  C   UNL     1       3.468   2.728  20.443  0.00  0.00    +0.000 A 
ATOM     15  C   UNL     1       2.498   2.538  21.427  0.00  0.00    +0.000 A 
ATOM     16  C   UNL     1       1.264   3.176  21.315  0.00  0.00    +0.000 A 
ATOM     17  C   UNL     1       1.000   4.008  20.226  0.00  0.00    +0.000 A 
ATOM     18  C   UNL     1       1.971   4.206  19.240  0.00  0.00    +0.000 A 
ENDBRANCH  11  13
ENDBRANCH   3  11
TORSDOF 4
ENDMDL
MODEL 5
REMARK VINA RESULT:      -6.9      2.218      3.017
REMARK  Name = 
REMARK  4 active torsions:
REMARK  status: ('A' for Active; 'I' for Inactive)
REMARK    1  A    between atoms: C_2  and  C_3
REMARK    2  A    between atoms: C_5  and  C_6
REMARK    3  A    between atoms: C_6  and  C_8
REMARK    4  A    between atoms: C_15  and  N_16
REMARK                            x       y       z     vdW  Elec       q    Type
REMARK                         _______ _______ _______ _____ _____    ______ ____
ROOT
ATOM      1  C   UNL     1       7.334   6.626  18.033  0.00  0.00    +0.000 A 
ATOM      2  N   UNL     1       6.432   6.195  17.089  0.00  0.00    +0.000 NA
ATOM      3  C   UNL     1       6.157   4.955  17.468  0.00  0.00    +0.000 A 
ATOM      4  O   UNL     1       6.823   4.553  18.603  0.00  0.00    +0.000 OA
ATOM      5  C   UNL     1       7.587   5.632  18.952  0.00  0.00    +0.000 A 
ENDROOT
BRANCH   5   6
ATOM      6  N   UNL     1       8.365   5.507  20.032  0.00  0.00    +0.000 N 
ATOM      7  H   UNL     1       9.190   6.087  20.154  0.00  0.00    +0.000 HD
ATOM      8  H   UNL     1       8.146   4.893  20.814  0.00  0.00    +0.000 HD
ENDBRANCH   5   6
BRANCH   1  10
ATOM      9  N   UNL     1       8.356   9.002  17.942  0.00  0.00    +0.000 NA
ATOM     10  C   UNL     1       7.908   7.927  17.988  0.00  0.00    +0.000 C 
ENDBRANCH   1  10
BRANCH   3  11
ATOM     11  C   UNL     1       5.255   4.044  16.789  0.00  0.00    +0.000 C 
ATOM     12  O   UNL     1       5.510   3.487  15.718  0.00  0.00    +0.000 OA
BRANCH  11  13
ATOM     13  C   UNL     1       3.931   3.750  17.401  0.00  0.00    +0.000 A 
ATOM     14  C   UNL     1       3.652   2.428  17.774  0.00  0.00    +0.000 A 
ATOM     15  C   UNL     1       2.391   2.081  18.258  0.00  0.00    +0.000 A 
ATOM     16  C   UNL     1       1.399   3.055  18.365  0.00  0.00    +0.000 A 
ATOM     17  C   UNL     1       1.666   4.374  17.994  0.00  0.00    +0.000 A 
ATOM     18  C   UNL     1       2.930   4.727  17.513  0.00  0.00    +0.000 A 
ENDBRANCH  11  13
ENDBRANCH   3  11
TORSDOF 4
ENDMDL
MODEL 6
REMARK VINA RESULT:      -6.8      2.205      2.570
REMARK  Name = 
REMARK  4 active torsions:
REMARK  status: ('A' for Active; 'I' for Inactive)
REMARK    1  A    between atoms: C_2  and  C_3
REMARK    2  A    between atoms: C_5  and  C_6
REMARK    3  A    between atoms: C_6  and  C_8
REMARK    4  A    between atoms: C_15  and  N_16
REMARK                            x       y       z     vdW  Elec       q    Type
REMARK                         _______ _______ _______ _____ _____    ______ ____
ROOT
ATOM      1  C   UNL     1       6.717   6.181  18.153  0.00  0.00    +0.000 A 
ATOM      2  N   UNL     1       5.595   5.626  17.583  0.00  0.00    +0.000 NA
ATOM      3  C   UNL     1       5.353   4.569  18.346  0.00  0.00    +0.000 A 
ATOM      4  O   UNL     1       6.245   4.405  19.380  0.00  0.00    +0.000 OA
ATOM      5  C   UNL     1       7.126   5.441  19.240  0.00  0.00    +0.000 A 
ENDROOT
BRANCH   5   6
ATOM      6  N   UNL     1       8.130   5.514  20.121  0.00  0.00    +0.000 N 
ATOM      7  H   UNL     1       8.947   6.090  19.938  0.00  0.00    +0.000 HD
ATOM      8  H   UNL     1       8.107   5.071  21.036  0.00  0.00    +0.000 HD
ENDBRANCH   5   6
BRANCH   1  10
ATOM      9  N   UNL     1       7.837   8.315  17.211  0.00  0.00    +0.000 NA
ATOM     10  C   UNL     1       7.331   7.350  17.622  0.00  0.00    +0.000 C 
ENDBRANCH   1  10
BRANCH   3  11
ATOM     11  C   UNL     1       4.269   3.624  18.159  0.00  0.00    +0.000 C 
ATOM     12  O   UNL     1       4.119   2.932  17.148  0.00  0.00    +0.000 OA
BRANCH  11  13
ATOM     13  C   UNL     1       3.258   3.461  19.240  0.00  0.00    +0.000 A 
ATOM     14  C   UNL     1       2.089   4.232  19.174  0.00  0.00    +0.000 A 
ATOM     15  C   UNL     1       1.158   4.192  20.211  0.00  0.00    +0.000 A 
ATOM     16  C   UNL     1       1.394   3.385  21.323  0.00  0.00    +0.000 A 
ATOM     17  C   UNL     1       2.555   2.615  21.398  0.00  0.00    +0.000 A 
ATOM     18  C   UNL     1       3.490   2.648  20.359  0.00  0.00    +0.000 A 
ENDBRANCH  11  13
ENDBRANCH   3  11
TORSDOF 4
ENDMDL
MODEL 7
REMARK VINA RESULT:      -6.7      2.496      3.750
REMARK  Name = 
REMARK  4 active torsions:
REMARK  status: ('A' for Active; 'I' for Inactive)
REMARK    1  A    between atoms: C_2  and  C_3
REMARK    2  A    between atoms: C_5  and  C_6
REMARK    3  A    between atoms: C_6  and  C_8
REMARK    4  A    between atoms: C_15  and  N_16
REMARK                            x       y       z     vdW  Elec       q    Type
REMARK                         _______ _______ _______ _____ _____    ______ ____
ROOT
ATOM      1  C   UNL     1       6.445   4.153  13.980  0.00  0.00    +0.000 A 
ATOM      2  N   UNL     1       5.933   3.878  15.226  0.00  0.00    +0.000 NA
ATOM      3  C   UNL     1       6.611   4.691  16.024  0.00  0.00    +0.000 A 
ATOM      4  O   UNL     1       7.529   5.482  15.373  0.00  0.00    +0.000 OA
ATOM      5  C   UNL     1       7.422   5.119  14.059  0.00  0.00    +0.000 A 
ENDROOT
BRANCH   5   6
ATOM      6  N   UNL     1       8.233   5.731  13.188  0.00  0.00    +0.000 N 
ATOM      7  H   UNL     1       7.878   6.095  12.309  0.00  0.00    +0.000 HD
ATOM      8  H   UNL     1       9.212   5.932  13.379  0.00  0.00    +0.000 HD
ENDBRANCH   5   6
BRANCH   1  10
ATOM      9  N   UNL     1       5.607   2.936  11.855  0.00  0.00    +0.000 NA
ATOM     10  C   UNL     1       5.993   3.474  12.813  0.00  0.00    +0.000 C 
ENDBRANCH   1  10
BRANCH   3  11
ATOM     11  C   UNL     1       6.457   4.784  17.463  0.00  0.00    +0.000 C 
ATOM     12  O   UNL     1       7.333   4.475  18.276  0.00  0.00    +0.000 OA
BRANCH  11  13
ATOM     13  C   UNL     1       5.167   5.275  18.022  0.00  0.00    +0.000 A 
ATOM     14  C   UNL     1       4.549   6.369  17.399  0.00  0.00    +0.000 A 
ATOM     15  C   UNL     1       3.394   6.930  17.941  0.00  0.00    +0.000 A 
ATOM     16  C   UNL     1       2.854   6.405  19.114  0.00  0.00    +0.000 A 
ATOM     17  C   UNL     1       3.463   5.317  19.743  0.00  0.00    +0.000 A 
ATOM     18  C   UNL     1       4.619   4.748  19.200  0.00  0.00    +0.000 A 
ENDBRANCH  11  13
ENDBRANCH   3  11
TORSDOF 4
ENDMDL
MODEL 8
REMARK VINA RESULT:      -6.7      2.463      3.633
REMARK  Name = 
REMARK  4 active torsions:
REMARK  status: ('A' for Active; 'I' for Inactive)
REMARK    1  A    between atoms: C_2  and  C_3
REMARK    2  A    between atoms: C_5  and  C_6
REMARK    3  A    between atoms: C_6  and  C_8
REMARK    4  A    between atoms: C_15  and  N_16
REMARK                            x       y       z     vdW  Elec       q    Type
REMARK                         _______ _______ _______ _____ _____    ______ ____
ROOT
ATOM      1  C   UNL     1       6.374   4.199  14.059  0.00  0.00    +0.000 A 
ATOM      2  N   UNL     1       5.824   3.950  15.294  0.00  0.00    +0.000 NA
ATOM      3  C   UNL     1       6.509   4.744  16.104  0.00  0.00    +0.000 A 
ATOM      4  O   UNL     1       7.471   5.499  15.470  0.00  0.00    +0.000 OA
ATOM      5  C   UNL     1       7.383   5.131  14.157  0.00  0.00    +0.000 A 
ENDROOT
BRANCH   5   6
ATOM      6  N   UNL     1       8.235   5.708  13.302  0.00  0.00    +0.000 N 
ATOM      7  H   UNL     1       9.107   6.116  13.626  0.00  0.00    +0.000 HD
ATOM      8  H   UNL     1       8.103   5.709  12.293  0.00  0.00    +0.000 HD
ENDBRANCH   5   6
BRANCH   1  10
ATOM      9  N   UNL     1       5.556   2.959  11.940  0.00  0.00    +0.000 NA
ATOM     10  C   UNL     1       5.928   3.528  12.886  0.00  0.00    +0.000 C 
ENDBRANCH   1  10
BRANCH   3  11
ATOM     11  C   UNL     1       6.324   4.853  17.538  0.00  0.00    +0.000 C 
ATOM     12  O   UNL     1       7.115   4.408  18.375  0.00  0.00    +0.000 OA
BRANCH  11  13
ATOM     13  C   UNL     1       5.108   5.535  18.060  0.00  0.00    +0.000 A 
ATOM     14  C   UNL     1       4.499   5.015  19.210  0.00  0.00    +0.000 A 
ATOM     15  C   UNL     1       3.303   5.556  19.681  0.00  0.00    +0.000 A 
ATOM     16  C   UNL     1       2.706   6.616  19.000  0.00  0.00    +0.000 A 
ATOM     17  C   UNL     1       3.304   7.139  17.853  0.00  0.00    +0.000 A 
ATOM     18  C   UNL     1       4.506   6.604  17.380  0.00  0.00    +0.000 A 
ENDBRANCH  11  13
ENDBRANCH   3  11
TORSDOF 4
ENDMDL
MODEL 9
REMARK VINA RESULT:      -6.7      1.621      1.935
REMARK  Name = 
REMARK  4 active torsions:
REMARK  status: ('A' for Active; 'I' for Inactive)
REMARK    1  A    between atoms: C_2  and  C_3
REMARK    2  A    between atoms: C_5  and  C_6
REMARK    3  A    between atoms: C_6  and  C_8
REMARK    4  A    between atoms: C_15  and  N_16
REMARK                            x       y       z     vdW  Elec       q    Type
REMARK                         _______ _______ _______ _____ _____    ______ ____
ROOT
ATOM      1  C   UNL     1       6.160   4.596  16.089  0.00  0.00    +0.000 A 
ATOM      2  N   UNL     1       4.817   4.357  15.921  0.00  0.00    +0.000 NA
ATOM      3  C   UNL     1       4.415   3.989  17.130  0.00  0.00    +0.000 A 
ATOM      4  O   UNL     1       5.415   3.978  18.076  0.00  0.00    +0.000 OA
ATOM      5  C   UNL     1       6.536   4.359  17.392  0.00  0.00    +0.000 A 
ENDROOT
BRANCH   5   6
ATOM      6  N   UNL     1       7.682   4.415  18.081  0.00  0.00    +0.000 N 
ATOM      7  H   UNL     1       8.406   5.086  17.839  0.00  0.00    +0.000 HD
ATOM      8  H   UNL     1       7.865   3.858  18.912  0.00  0.00    +0.000 HD
ENDBRANCH   5   6
BRANCH   1  10
ATOM      9  N   UNL     1       7.691   5.353  14.144  0.00  0.00    +0.000 NA
ATOM     10  C   UNL     1       6.993   5.007  15.011  0.00  0.00    +0.000 C 
ENDBRANCH   1  10
BRANCH   3  11
ATOM     11  C   UNL     1       3.063   3.610  17.492  0.00  0.00    +0.000 C 
ATOM     12  O   UNL     1       2.196   3.275  16.680  0.00  0.00    +0.000 OA
BRANCH  11  13
ATOM     13  C   UNL     1       2.670   3.621  18.927  0.00  0.00    +0.000 A 
ATOM     14  C   UNL     1       2.166   4.813  19.467  0.00  0.00    +0.000 A 
ATOM     15  C   UNL     1       1.877   4.906  20.827  0.00  0.00    +0.000 A 
ATOM     16  C   UNL     1       2.097   3.808  21.658  0.00  0.00    +0.000 A 
ATOM     17  C   UNL     1       2.600   2.618  21.131  0.00  0.00    +0.000 A 
ATOM     18  C   UNL     1       2.886   2.519  19.766  0.00  0.00    +0.000 A 
ENDBRANCH  11  13
ENDBRANCH   3  11
TORSDOF 4
ENDMDL
