MODEL 1
REMARK VINA RESULT:      -6.7      0.000      0.000
REMARK  Name = 
REMARK  6 active torsions:
REMARK  status: ('A' for Active; 'I' for Inactive)
REMARK    1  A    between atoms: C_2  and  C_3
REMARK    2  A    between atoms: C_3  and  N_4
REMARK    3  A    between atoms: C_7  and  C_8
REMARK    4  A    between atoms: C_13  and  O_14
REMARK    5  A    between atoms: C_18  and  C_19
REMARK    6  A    between atoms: C_18  and  C_20
REMARK                            x       y       z     vdW  Elec       q    Type
REMARK                         _______ _______ _______ _____ _____    ______ ____
ROOT
ATOM      1  N   UNL     1       4.223   2.528  20.609  0.00  0.00    +0.000 NA
ATOM      2  C   UNL     1       2.867   2.695  21.040  0.00  0.00    +0.000 C 
ATOM      3  C   UNL     1       2.332   4.196  20.507  0.00  0.00    +0.000 C 
ATOM      4  C   UNL     1       3.034   4.938  18.975  0.00  0.00    +0.000 C 
ATOM      5  C   UNL     1       2.526   6.377  19.089  0.00  0.00    +0.000 C 
ATOM      6  C   UNL     1       4.399   5.121  17.787  0.00  0.00    +0.000 A 
ATOM      7  C   UNL     1       4.250   4.889  16.372  0.00  0.00    +0.000 A 
ATOM      8  C   UNL     1       5.290   4.348  15.567  0.00  0.00    +0.000 A 
ATOM      9  C   UNL     1       6.568   4.200  16.064  0.00  0.00    +0.000 A 
ATOM     10  C   UNL     1       6.795   4.505  17.385  0.00  0.00    +0.000 A 
ATOM     11  C   UNL     1       5.698   4.831  18.212  0.00  0.00    +0.000 A 
ATOM     12  C   UNL     1       5.725   4.301  19.560  0.00  0.00    +0.000 C 
ATOM     13  C   UNL     1       4.395   3.464  19.529  0.00  0.00    +0.000 C 
ATOM     14  C   UNL     1       2.971   3.613  18.271  0.00  0.00    +0.000 C 
ATOM     15  C   UNL     1       1.690   4.360  17.522  0.00  0.00    +0.000 C 
ATOM     16  C   UNL     1       2.221   2.252  18.307  0.00  0.00    +0.000 C 
ENDROOT
BRANCH  10  17
ATOM     17  O   UNL     1       7.988   4.237  17.981  0.00  0.00    +0.000 OA
ATOM     18  H   UNL     1       8.272   5.014  18.492  0.00  0.00    +0.000 HD
ENDBRANCH  10  17
BRANCH   1  19
ATOM     19  C   UNL     1       5.030   1.342  20.513  0.00  0.00    +0.000 C 
BRANCH  19  21
ATOM     20  C   UNL     1       6.279  -0.192  22.042  0.00  0.00    +0.000 C 
ATOM     21  C   UNL     1       5.530   0.911  21.850  0.00  0.00    +0.000 C 
ENDBRANCH  19  21
ENDBRANCH   1  19
TORSDOF 3
ENDMDL
MODEL 2
REMARK VINA RESULT:      -6.6      2.391      5.033
REMARK  Name = 
REMARK  6 active torsions:
REMARK  status: ('A' for Active; 'I' for Inactive)
REMARK    1  A    between atoms: C_2  and  C_3
REMARK    2  A    between atoms: C_3  and  N_4
REMARK    3  A    between atoms: C_7  and  C_8
REMARK    4  A    between atoms: C_13  and  O_14
REMARK    5  A    between atoms: C_18  and  C_19
REMARK    6  A    between atoms: C_18  and  C_20
REMARK                            x       y       z     vdW  Elec       q    Type
REMARK                         _______ _______ _______ _____ _____    ______ ____
ROOT
ATOM      1  N   UNL     1       2.552   6.704  17.995  0.00  0.00    +0.000 NA
ATOM      2  C   UNL     1       1.659   5.590  18.106  0.00  0.00    +0.000 C 
ATOM      3  C   UNL     1       2.444   4.230  17.509  0.00  0.00    +0.000 C 
ATOM      4  C   UNL     1       4.279   4.105  17.605  0.00  0.00    +0.000 C 
ATOM      5  C   UNL     1       4.540   2.925  16.666  0.00  0.00    +0.000 C 
ATOM      6  C   UNL     1       5.918   4.891  17.674  0.00  0.00    +0.000 A 
ATOM      7  C   UNL     1       6.876   4.629  18.717  0.00  0.00    +0.000 A 
ATOM      8  C   UNL     1       7.769   5.619  19.210  0.00  0.00    +0.000 A 
ATOM      9  C   UNL     1       7.900   6.836  18.574  0.00  0.00    +0.000 A 
ATOM     10  C   UNL     1       7.081   7.105  17.503  0.00  0.00    +0.000 A 
ATOM     11  C   UNL     1       6.058   6.189  17.176  0.00  0.00    +0.000 A 
ATOM     12  C   UNL     1       4.788   6.758  16.771  0.00  0.00    +0.000 C 
ATOM     13  C   UNL     1       3.865   6.127  17.876  0.00  0.00    +0.000 C 
ATOM     14  C   UNL     1       4.271   4.646  19.006  0.00  0.00    +0.000 C 
ATOM     15  C   UNL     1       4.581   3.051  19.351  0.00  0.00    +0.000 C 
ATOM     16  C   UNL     1       3.348   4.788  20.248  0.00  0.00    +0.000 C 
ENDROOT
BRANCH  10  17
ATOM     17  O   UNL     1       7.046   8.337  16.927  0.00  0.00    +0.000 OA
ATOM     18  H   UNL     1       7.473   8.294  16.054  0.00  0.00    +0.000 HD
ENDBRANCH  10  17
BRANCH   1  19
ATOM     19  C   UNL     1       2.517   7.993  18.631  0.00  0.00    +0.000 C 
BRANCH  19  21
ATOM     20  C   UNL     1       0.772   9.708  18.114  0.00  0.00    +0.000 C 
ATOM     21  C   UNL     1       1.871   9.015  17.758  0.00  0.00    +0.000 C 
ENDBRANCH  19  21
ENDBRANCH   1  19
TORSDOF 3
ENDMDL
MODEL 3
REMARK VINA RESULT:      -6.1      2.511      5.516
REMARK  Name = 
REMARK  6 active torsions:
REMARK  status: ('A' for Active; 'I' for Inactive)
REMARK    1  A    between atoms: C_2  and  C_3
REMARK    2  A    between atoms: C_3  and  N_4
REMARK    3  A    between atoms: C_7  and  C_8
REMARK    4  A    between atoms: C_13  and  O_14
REMARK    5  A    between atoms: C_18  and  C_19
REMARK    6  A    between atoms: C_18  and  C_20
REMARK                            x       y       z     vdW  Elec       q    Type
REMARK                         _______ _______ _______ _____ _____    ______ ____
ROOT
ATOM      1  N   UNL     1       5.477   4.592  15.133  0.00  0.00    +0.000 NA
ATOM      2  C   UNL     1       6.216   5.816  15.234  0.00  0.00    +0.000 C 
ATOM      3  C   UNL     1       5.629   6.671  16.555  0.00  0.00    +0.000 C 
ATOM      4  C   UNL     1       4.904   5.774  17.991  0.00  0.00    +0.000 C 
ATOM      5  C   UNL     1       4.223   6.922  18.738  0.00  0.00    +0.000 C 
ATOM      6  C   UNL     1       4.051   4.324  18.685  0.00  0.00    +0.000 A 
ATOM      7  C   UNL     1       4.574   3.553  19.784  0.00  0.00    +0.000 A 
ATOM      8  C   UNL     1       4.384   2.148  19.898  0.00  0.00    +0.000 A 
ATOM      9  C   UNL     1       3.517   1.479  19.060  0.00  0.00    +0.000 A 
ATOM     10  C   UNL     1       2.906   2.187  18.051  0.00  0.00    +0.000 A 
ATOM     11  C   UNL     1       3.282   3.529  17.831  0.00  0.00    +0.000 A 
ATOM     12  C   UNL     1       3.390   3.951  16.449  0.00  0.00    +0.000 C 
ATOM     13  C   UNL     1       4.899   4.390  16.435  0.00  0.00    +0.000 C 
ATOM     14  C   UNL     1       6.005   4.753  17.945  0.00  0.00    +0.000 C 
ATOM     15  C   UNL     1       6.500   5.602  19.285  0.00  0.00    +0.000 C 
ATOM     16  C   UNL     1       7.470   4.567  17.460  0.00  0.00    +0.000 C 
ENDROOT
BRANCH  10  17
ATOM     17  O   UNL     1       2.163   1.565  17.096  0.00  0.00    +0.000 OA
ATOM     18  H   UNL     1       2.113   2.134  16.309  0.00  0.00    +0.000 HD
ENDBRANCH  10  17
BRANCH   1  19
ATOM     19  C   UNL     1       5.771   3.384  14.410  0.00  0.00    +0.000 C 
BRANCH  19  21
ATOM     20  C   UNL     1       5.132   3.314  11.994  0.00  0.00    +0.000 C 
ATOM     21  C   UNL     1       6.003   3.656  12.963  0.00  0.00    +0.000 C 
ENDBRANCH  19  21
ENDBRANCH   1  19
TORSDOF 3
ENDMDL
MODEL 4
REMARK VINA RESULT:      -6.0      1.321      1.585
REMARK  Name = 
REMARK  6 active torsions:
REMARK  status: ('A' for Active; 'I' for Inactive)
REMARK    1  A    between atoms: C_2  and  C_3
REMARK    2  A    between atoms: C_3  and  N_4
REMARK    3  A    between atoms: C_7  and  C_8
REMARK    4  A    between atoms: C_13  and  O_14
REMARK    5  A    between atoms: C_18  and  C_19
REMARK    6  A    between atoms: C_18  and  C_20
REMARK                            x       y       z     vdW  Elec       q    Type
REMARK                         _______ _______ _______ _____ _____    ______ ____
ROOT
ATOM      1  N   UNL     1       3.338   3.581  20.709  0.00  0.00    +0.000 NA
ATOM      2  C   UNL     1       2.029   4.074  21.018  0.00  0.00    +0.000 C 
ATOM      3  C   UNL     1       1.889   5.620  20.376  0.00  0.00    +0.000 C 
ATOM      4  C   UNL     1       2.849   6.089  18.876  0.00  0.00    +0.000 C 
ATOM      5  C   UNL     1       2.677   7.610  18.884  0.00  0.00    +0.000 C 
ATOM      6  C   UNL     1       4.300   5.888  17.799  0.00  0.00    +0.000 A 
ATOM      7  C   UNL     1       4.204   5.608  16.388  0.00  0.00    +0.000 A 
ATOM      8  C   UNL     1       5.147   4.798  15.697  0.00  0.00    +0.000 A 
ATOM      9  C   UNL     1       6.319   4.398  16.305  0.00  0.00    +0.000 A 
ATOM     10  C   UNL     1       6.515   4.726  17.626  0.00  0.00    +0.000 A 
ATOM     11  C   UNL     1       5.466   5.341  18.343  0.00  0.00    +0.000 A 
ATOM     12  C   UNL     1       5.276   4.903  19.710  0.00  0.00    +0.000 C 
ATOM     13  C   UNL     1       3.795   4.385  19.607  0.00  0.00    +0.000 C 
ATOM     14  C   UNL     1       2.536   4.771  18.229  0.00  0.00    +0.000 C 
ATOM     15  C   UNL     1       1.515   5.738  17.343  0.00  0.00    +0.000 C 
ATOM     16  C   UNL     1       1.494   3.618  18.263  0.00  0.00    +0.000 C 
ENDROOT
BRANCH  10  17
ATOM     17  O   UNL     1       7.570   4.235  18.330  0.00  0.00    +0.000 OA
ATOM     18  H   UNL     1       7.385   4.317  19.282  0.00  0.00    +0.000 HD
ENDBRANCH  10  17
BRANCH   1  19
ATOM     19  C   UNL     1       3.858   2.241  20.733  0.00  0.00    +0.000 C 
BRANCH  19  21
ATOM     20  C   UNL     1       3.831   1.135  18.490  0.00  0.00    +0.000 C 
ATOM     21  C   UNL     1       4.468   1.868  19.425  0.00  0.00    +0.000 C 
ENDBRANCH  19  21
ENDBRANCH   1  19
TORSDOF 3
ENDMDL
MODEL 5
REMARK VINA RESULT:      -5.9      2.150      4.753
REMARK  Name = 
REMARK  6 active torsions:
REMARK  status: ('A' for Active; 'I' for Inactive)
REMARK    1  A    between atoms: C_2  and  C_3
REMARK    2  A    between atoms: C_3  and  N_4
REMARK    3  A    between atoms: C_7  and  C_8
REMARK    4  A    between atoms: C_13  and  O_14
REMARK    5  A    between atoms: C_18  and  C_19
REMARK    6  A    between atoms: C_18  and  C_20
REMARK                            x       y       z     vdW  Elec       q    Type
REMARK                         _______ _______ _______ _____ _____    ______ ____
ROOT
ATOM      1  N   UNL     1       5.760   4.810  18.310  0.00  0.00    +0.000 NA
ATOM      2  C   UNL     1       5.493   5.375  17.020  0.00  0.00    +0.000 C 
ATOM      3  C   UNL     1       4.229   4.514  16.326  0.00  0.00    +0.000 C 
ATOM      4  C   UNL     1       2.959   3.714  17.392  0.00  0.00    +0.000 C 
ATOM      5  C   UNL     1       2.260   2.804  16.381  0.00  0.00    +0.000 C 
ATOM      6  C   UNL     1       2.467   2.956  18.971  0.00  0.00    +0.000 A 
ATOM      7  C   UNL     1       1.345   3.413  19.751  0.00  0.00    +0.000 A 
ATOM      8  C   UNL     1       1.329   3.381  21.172  0.00  0.00    +0.000 A 
ATOM      9  C   UNL     1       2.315   2.724  21.878  0.00  0.00    +0.000 A 
ATOM     10  C   UNL     1       3.364   2.175  21.178  0.00  0.00    +0.000 A 
ATOM     11  C   UNL     1       3.461   2.413  19.789  0.00  0.00    +0.000 A 
ATOM     12  C   UNL     1       4.790   2.655  19.268  0.00  0.00    +0.000 C 
ATOM     13  C   UNL     1       4.566   4.089  18.661  0.00  0.00    +0.000 C 
ATOM     14  C   UNL     1       2.897   4.926  18.277  0.00  0.00    +0.000 C 
ATOM     15  C   UNL     1       1.459   5.128  17.469  0.00  0.00    +0.000 C 
ATOM     16  C   UNL     1       3.176   6.455  18.264  0.00  0.00    +0.000 C 
ENDROOT
BRANCH  10  17
ATOM     17  O   UNL     1       4.446   1.650  21.815  0.00  0.00    +0.000 OA
ATOM     18  H   UNL     1       5.144   1.469  21.162  0.00  0.00    +0.000 HD
ENDBRANCH  10  17
BRANCH   1  19
ATOM     19  C   UNL     1       6.493   5.343  19.426  0.00  0.00    +0.000 C 
BRANCH  19  21
ATOM     20  C   UNL     1       8.100   7.073  18.606  0.00  0.00    +0.000 C 
ATOM     21  C   UNL     1       7.846   5.816  19.016  0.00  0.00    +0.000 C 
ENDBRANCH  19  21
ENDBRANCH   1  19
TORSDOF 3
ENDMDL
MODEL 6
REMARK VINA RESULT:      -5.8      9.479     11.447
REMARK  Name = 
REMARK  6 active torsions:
REMARK  status: ('A' for Active; 'I' for Inactive)
REMARK    1  A    between atoms: C_2  and  C_3
REMARK    2  A    between atoms: C_3  and  N_4
REMARK    3  A    between atoms: C_7  and  C_8
REMARK    4  A    between atoms: C_13  and  O_14
REMARK    5  A    between atoms: C_18  and  C_19
REMARK    6  A    between atoms: C_18  and  C_20
REMARK                            x       y       z     vdW  Elec       q    Type
REMARK                         _______ _______ _______ _____ _____    ______ ____
ROOT
ATOM      1  N   UNL     1       9.312  11.344  17.997  0.00  0.00    +0.000 NA
ATOM      2  C   UNL     1      10.743  11.285  17.951  0.00  0.00    +0.000 C 
ATOM      3  C   UNL     1      11.313  12.797  17.491  0.00  0.00    +0.000 C 
ATOM      4  C   UNL     1      10.348  14.312  17.896  0.00  0.00    +0.000 C 
ATOM      5  C   UNL     1      11.046  15.347  17.012  0.00  0.00    +0.000 C 
ATOM      6  C   UNL     1       8.762  15.133  18.243  0.00  0.00    +0.000 A 
ATOM      7  C   UNL     1       8.519  15.908  19.433  0.00  0.00    +0.000 A 
ATOM      8  C   UNL     1       7.250  15.960  20.073  0.00  0.00    +0.000 A 
ATOM      9  C   UNL     1       6.130  15.425  19.472  0.00  0.00    +0.000 A 
ATOM     10  C   UNL     1       6.284  14.760  18.278  0.00  0.00    +0.000 A 
ATOM     11  C   UNL     1       7.586  14.538  17.780  0.00  0.00    +0.000 A 
ATOM     12  C   UNL     1       7.832  13.248  17.168  0.00  0.00    +0.000 C 
ATOM     13  C   UNL     1       8.994  12.744  18.099  0.00  0.00    +0.000 C 
ATOM     14  C   UNL     1      10.062  13.796  19.277  0.00  0.00    +0.000 C 
ATOM     15  C   UNL     1      11.198  14.945  19.665  0.00  0.00    +0.000 C 
ATOM     16  C   UNL     1      10.618  12.814  20.346  0.00  0.00    +0.000 C 
ENDROOT
BRANCH  10  17
ATOM     17  O   UNL     1       5.255  14.076  17.709  0.00  0.00    +0.000 OA
ATOM     18  H   UNL     1       4.427  14.307  18.165  0.00  0.00    +0.000 HD
ENDBRANCH  10  17
BRANCH   1  19
ATOM     19  C   UNL     1       8.362  10.463  18.621  0.00  0.00    +0.000 C 
BRANCH  19  21
ATOM     20  C   UNL     1       7.765   8.256  17.611  0.00  0.00    +0.000 C 
ATOM     21  C   UNL     1       8.634   9.038  18.281  0.00  0.00    +0.000 C 
ENDBRANCH  19  21
ENDBRANCH   1  19
TORSDOF 3
ENDMDL
MODEL 7
REMARK VINA RESULT:      -5.8     10.014     11.987
REMARK  Name = 
REMARK  6 active torsions:
REMARK  status: ('A' for Active; 'I' for Inactive)
REMARK    1  A    between atoms: C_2  and  C_3
REMARK    2  A    between atoms: C_3  and  N_4
REMARK    3  A    between atoms: C_7  and  C_8
REMARK    4  A    between atoms: C_13  and  O_14
REMARK    5  A    between atoms: C_18  and  C_19
REMARK    6  A    between atoms: C_18  and  C_20
REMARK                            x       y       z     vdW  Elec       q    Type
REMARK                         _______ _______ _______ _____ _____    ______ ____
ROOT
ATOM      1  N   UNL     1       8.273  15.153  21.344  0.00  0.00    +0.000 NA
ATOM      2  C   UNL     1       8.729  16.428  20.875  0.00  0.00    +0.000 C 
ATOM      3  C   UNL     1      10.288  16.237  20.280  0.00  0.00    +0.000 C 
ATOM      4  C   UNL     1      10.818  14.621  19.575  0.00  0.00    +0.000 C 
ATOM      5  C   UNL     1      12.333  14.818  19.500  0.00  0.00    +0.000 C 
ATOM      6  C   UNL     1      10.677  12.809  19.488  0.00  0.00    +0.000 A 
ATOM      7  C   UNL     1      10.433  12.095  18.261  0.00  0.00    +0.000 A 
ATOM      8  C   UNL     1       9.663  10.900  18.205  0.00  0.00    +0.000 A 
ATOM      9  C   UNL     1       9.273  10.253  19.359  0.00  0.00    +0.000 A 
ATOM     10  C   UNL     1       9.570  10.837  20.569  0.00  0.00    +0.000 A 
ATOM     11  C   UNL     1      10.142  12.128  20.584  0.00  0.00    +0.000 A 
ATOM     12  C   UNL     1       9.664  13.033  21.609  0.00  0.00    +0.000 C 
ATOM     13  C   UNL     1       9.116  14.186  20.692  0.00  0.00    +0.000 C 
ATOM     14  C   UNL     1       9.510  14.476  18.850  0.00  0.00    +0.000 C 
ATOM     15  C   UNL     1      10.478  14.862  17.555  0.00  0.00    +0.000 C 
ATOM     16  C   UNL     1       8.334  15.321  18.286  0.00  0.00    +0.000 C 
ENDROOT
BRANCH  10  17
ATOM     17  O   UNL     1       9.083  10.338  21.737  0.00  0.00    +0.000 OA
ATOM     18  H   UNL     1       9.438  10.857  22.479  0.00  0.00    +0.000 HD
ENDBRANCH  10  17
BRANCH   1  19
ATOM     19  C   UNL     1       6.944  14.691  21.641  0.00  0.00    +0.000 C 
BRANCH  19  21
ATOM     20  C   UNL     1       5.069  15.277  20.095  0.00  0.00    +0.000 C 
ATOM     21  C   UNL     1       5.909  15.613  21.092  0.00  0.00    +0.000 C 
ENDBRANCH  19  21
ENDBRANCH   1  19
TORSDOF 3
ENDMDL
MODEL 8
REMARK VINA RESULT:      -5.7     10.550     12.723
REMARK  Name = 
REMARK  6 active torsions:
REMARK  status: ('A' for Active; 'I' for Inactive)
REMARK    1  A    between atoms: C_2  and  C_3
REMARK    2  A    between atoms: C_3  and  N_4
REMARK    3  A    between atoms: C_7  and  C_8
REMARK    4  A    between atoms: C_13  and  O_14
REMARK    5  A    between atoms: C_18  and  C_19
REMARK    6  A    between atoms: C_18  and  C_20
REMARK                            x       y       z     vdW  Elec       q    Type
REMARK                         _______ _______ _______ _____ _____    ______ ____
ROOT
ATOM      1  N   UNL     1      10.384  15.529  18.359  0.00  0.00    +0.000 NA
ATOM      2  C   UNL     1      10.998  14.810  17.283  0.00  0.00    +0.000 C 
ATOM      3  C   UNL     1      11.780  13.471  17.929  0.00  0.00    +0.000 C 
ATOM      4  C   UNL     1      11.154  12.692  19.475  0.00  0.00    +0.000 C 
ATOM      5  C   UNL     1      12.332  11.787  19.843  0.00  0.00    +0.000 C 
ATOM      6  C   UNL     1      10.270  12.808  21.061  0.00  0.00    +0.000 A 
ATOM      7  C   UNL     1       9.156  11.962  21.407  0.00  0.00    +0.000 A 
ATOM      8  C   UNL     1       8.065  12.410  22.202  0.00  0.00    +0.000 A 
ATOM      9  C   UNL     1       8.113  13.626  22.851  0.00  0.00    +0.000 A 
ATOM     10  C   UNL     1       9.205  14.437  22.640  0.00  0.00    +0.000 A 
ATOM     11  C   UNL     1      10.165  14.057  21.677  0.00  0.00    +0.000 A 
ATOM     12  C   UNL     1      10.708  15.119  20.855  0.00  0.00    +0.000 C 
ATOM     13  C   UNL     1      10.285  14.583  19.438  0.00  0.00    +0.000 C 
ATOM     14  C   UNL     1       9.736  12.812  18.996  0.00  0.00    +0.000 C 
ATOM     15  C   UNL     1       9.942  11.178  18.775  0.00  0.00    +0.000 C 
ATOM     16  C   UNL     1       8.901  12.934  17.691  0.00  0.00    +0.000 C 
ENDROOT
BRANCH  10  17
ATOM     17  O   UNL     1       9.248  15.709  23.121  0.00  0.00    +0.000 OA
ATOM     18  H   UNL     1       9.054  15.696  24.075  0.00  0.00    +0.000 HD
ENDBRANCH  10  17
BRANCH   1  19
ATOM     19  C   UNL     1       9.355  16.533  18.342  0.00  0.00    +0.000 C 
BRANCH  19  21
ATOM     20  C   UNL     1       6.880  16.555  18.697  0.00  0.00    +0.000 C 
ATOM     21  C   UNL     1       8.094  16.033  18.961  0.00  0.00    +0.000 C 
ENDBRANCH  19  21
ENDBRANCH   1  19
TORSDOF 3
ENDMDL
MODEL 9
REMARK VINA RESULT:      -5.7     10.084     11.868
REMARK  Name = 
REMARK  6 active torsions:
REMARK  status: ('A' for Active; 'I' for Inactive)
REMARK    1  A    between atoms: C_2  and  C_3
REMARK    2  A    between atoms: C_3  and  N_4
REMARK    3  A    between atoms: C_7  and  C_8
REMARK    4  A    between atoms: C_13  and  O_14
REMARK    5  A    between atoms: C_18  and  C_19
REMARK    6  A    between atoms: C_18  and  C_20
REMARK                            x       y       z     vdW  Elec       q    Type
REMARK                         _______ _______ _______ _____ _____    ______ ____
ROOT
ATOM      1  N   UNL     1       8.317  15.189  21.431  0.00  0.00    +0.000 NA
ATOM      2  C   UNL     1       8.767  16.467  20.965  0.00  0.00    +0.000 C 
ATOM      3  C   UNL     1      10.311  16.276  20.333  0.00  0.00    +0.000 C 
ATOM      4  C   UNL     1      10.819  14.665  19.600  0.00  0.00    +0.000 C 
ATOM      5  C   UNL     1      12.333  14.858  19.493  0.00  0.00    +0.000 C 
ATOM      6  C   UNL     1      10.670  12.855  19.499  0.00  0.00    +0.000 A 
ATOM      7  C   UNL     1      10.395  12.153  18.271  0.00  0.00    +0.000 A 
ATOM      8  C   UNL     1       9.619  10.962  18.221  0.00  0.00    +0.000 A 
ATOM      9  C   UNL     1       9.253  10.305  19.377  0.00  0.00    +0.000 A 
ATOM     10  C   UNL     1       9.580  10.876  20.585  0.00  0.00    +0.000 A 
ATOM     11  C   UNL     1      10.157  12.164  20.600  0.00  0.00    +0.000 A 
ATOM     12  C   UNL     1       9.706  13.061  21.644  0.00  0.00    +0.000 C 
ATOM     13  C   UNL     1       9.141  14.226  20.752  0.00  0.00    +0.000 C 
ATOM     14  C   UNL     1       9.495  14.532  18.904  0.00  0.00    +0.000 C 
ATOM     15  C   UNL     1      10.435  14.927  17.591  0.00  0.00    +0.000 C 
ATOM     16  C   UNL     1       8.310  15.387  18.375  0.00  0.00    +0.000 C 
ENDROOT
BRANCH  10  17
ATOM     17  O   UNL     1       9.118  10.367  21.759  0.00  0.00    +0.000 OA
ATOM     18  H   UNL     1       9.851   9.933  22.229  0.00  0.00    +0.000 HD
ENDBRANCH  10  17
BRANCH   1  19
ATOM     19  C   UNL     1       6.993  14.728  21.754  0.00  0.00    +0.000 C 
BRANCH  19  21
ATOM     20  C   UNL     1       6.760  13.585  23.965  0.00  0.00    +0.000 C 
ATOM     21  C   UNL     1       6.764  14.712  23.227  0.00  0.00    +0.000 C 
ENDBRANCH  19  21
ENDBRANCH   1  19
TORSDOF 3
ENDMDL
