MODEL 1
REMARK VINA RESULT:      -8.7      0.000      0.000
REMARK  Name = 
REMARK  10 active torsions:
REMARK  status: ('A' for Active; 'I' for Inactive)
REMARK    1  A    between atoms: C_1  and  C_2
REMARK    2  A    between atoms: C_2  and  O_4
REMARK    3  A    between atoms: O_4  and  C_5
REMARK    4  A    between atoms: C_10  and  C_11
REMARK    5  A    between atoms: C_11  and  O_13
REMARK    6  A    between atoms: O_13  and  C_14
REMARK    7  A    between atoms: C_19  and  C_20
REMARK    8  A    between atoms: C_21  and  C_22
REMARK    9  A    between atoms: C_22  and  C_24
REMARK   10  A    between atoms: C_27  and  N_28
REMARK                            x       y       z     vdW  Elec       q    Type
REMARK                         _______ _______ _______ _____ _____    ______ ____
ROOT
ATOM      1  C   UNL     1       2.615   4.278  18.614  0.00  0.00    +0.000 A 
ATOM      2  C   UNL     1       2.455   2.907  18.885  0.00  0.00    +0.000 A 
ATOM      3  C   UNL     1       1.908   2.481  20.091  0.00  0.00    +0.000 A 
ATOM      4  C   UNL     1       1.567   3.419  21.056  0.00  0.00    +0.000 A 
ATOM      5  C   UNL     1       1.754   4.783  20.804  0.00  0.00    +0.000 A 
ATOM      6  C   UNL     1       2.253   5.249  19.571  0.00  0.00    +0.000 A 
ENDROOT
BRANCH   6   7
ATOM      7  C   UNL     1       2.411   6.704  19.331  0.00  0.00    +0.000 C 
ATOM      8  C   UNL     1       1.657   7.407  18.466  0.00  0.00    +0.000 C 
BRANCH   8   9
ATOM      9  C   UNL     1       1.875   8.863  18.234  0.00  0.00    +0.000 C 
ATOM     10  O   UNL     1       2.502   9.281  17.268  0.00  0.00    +0.000 OA
BRANCH   9  11
ATOM     11  C   UNL     1       1.271   9.818  19.212  0.00  0.00    +0.000 A 
ATOM     12  C   UNL     1       0.757   9.386  20.442  0.00  0.00    +0.000 A 
ATOM     13  C   UNL     1       0.257  10.317  21.367  0.00  0.00    +0.000 A 
ATOM     14  C   UNL     1       0.277  11.682  21.058  0.00  0.00    +0.000 A 
ATOM     15  C   UNL     1       0.779  12.125  19.829  0.00  0.00    +0.000 A 
ATOM     16  C   UNL     1       1.282  11.190  18.912  0.00  0.00    +0.000 A 
BRANCH  14  17
ATOM     17  N   UNL     1      -0.214  12.656  22.044  0.00  0.00    +0.000 N 
ATOM     18  O   UNL     1      -0.118  13.857  21.766  0.00  0.00    +0.000 OA
ATOM     19  O   UNL     1      -0.699  12.213  23.098  0.00  0.00    +0.000 OA
ENDBRANCH  14  17
ENDBRANCH   9  11
ENDBRANCH   8   9
ENDBRANCH   6   7
BRANCH   1  20
ATOM     20  O   UNL     1       3.262   4.660  17.411  0.00  0.00    +0.000 OA
BRANCH  20  21
ATOM     21  C   UNL     1       4.464   4.024  17.135  0.00  0.00    +0.000 C 
ATOM     22  O   UNL     1       4.613   2.858  16.793  0.00  0.00    +0.000 OA
BRANCH  21  28
ATOM     23  C   UNL     1       6.345   5.686  16.660  0.00  0.00    +0.000 A 
ATOM     24  C   UNL     1       7.375   6.504  17.153  0.00  0.00    +0.000 A 
ATOM     25  C   UNL     1       7.715   6.477  18.505  0.00  0.00    +0.000 A 
ATOM     26  C   UNL     1       7.012   5.654  19.377  0.00  0.00    +0.000 A 
ATOM     27  C   UNL     1       5.968   4.859  18.895  0.00  0.00    +0.000 A 
ATOM     28  C   UNL     1       5.615   4.876  17.531  0.00  0.00    +0.000 A 
BRANCH  23  29
ATOM     29  O   UNL     1       5.992   5.783  15.304  0.00  0.00    +0.000 OA
BRANCH  29  31
ATOM     30  C   UNL     1       6.134   3.941  13.835  0.00  0.00    +0.000 C 
ATOM     31  C   UNL     1       6.835   5.138  14.402  0.00  0.00    +0.000 C 
ATOM     32  O   UNL     1       7.964   5.489  14.085  0.00  0.00    +0.000 OA
ENDBRANCH  29  31
ENDBRANCH  23  29
ENDBRANCH  21  28
ENDBRANCH  20  21
ENDBRANCH   1  20
TORSDOF 9
ENDMDL
MODEL 2
REMARK VINA RESULT:      -8.4      1.802      2.106
REMARK  Name = 
REMARK  10 active torsions:
REMARK  status: ('A' for Active; 'I' for Inactive)
REMARK    1  A    between atoms: C_1  and  C_2
REMARK    2  A    between atoms: C_2  and  O_4
REMARK    3  A    between atoms: O_4  and  C_5
REMARK    4  A    between atoms: C_10  and  C_11
REMARK    5  A    between atoms: C_11  and  O_13
REMARK    6  A    between atoms: O_13  and  C_14
REMARK    7  A    between atoms: C_19  and  C_20
REMARK    8  A    between atoms: C_21  and  C_22
REMARK    9  A    between atoms: C_22  and  C_24
REMARK   10  A    between atoms: C_27  and  N_28
REMARK                            x       y       z     vdW  Elec       q    Type
REMARK                         _______ _______ _______ _____ _____    ______ ____
ROOT
ATOM      1  C   UNL     1       2.347   4.294  18.735  0.00  0.00    +0.000 A 
ATOM      2  C   UNL     1       2.222   2.918  18.468  0.00  0.00    +0.000 A 
ATOM      3  C   UNL     1       1.639   2.065  19.400  0.00  0.00    +0.000 A 
ATOM      4  C   UNL     1       1.226   2.570  20.625  0.00  0.00    +0.000 A 
ATOM      5  C   UNL     1       1.378   3.933  20.908  0.00  0.00    +0.000 A 
ATOM      6  C   UNL     1       1.913   4.833  19.964  0.00  0.00    +0.000 A 
ENDROOT
BRANCH   6   7
ATOM      7  C   UNL     1       2.033   6.274  20.291  0.00  0.00    +0.000 C 
ATOM      8  C   UNL     1       1.222   6.917  21.152  0.00  0.00    +0.000 C 
BRANCH   8   9
ATOM      9  C   UNL     1       1.362   8.376  21.424  0.00  0.00    +0.000 C 
ATOM     10  O   UNL     1       2.075   8.805  22.324  0.00  0.00    +0.000 OA
BRANCH   9  11
ATOM     11  C   UNL     1       0.622   9.320  20.534  0.00  0.00    +0.000 A 
ATOM     12  C   UNL     1      -0.493  10.040  20.988  0.00  0.00    +0.000 A 
ATOM     13  C   UNL     1      -1.125  10.970  20.147  0.00  0.00    +0.000 A 
ATOM     14  C   UNL     1      -0.637  11.179  18.851  0.00  0.00    +0.000 A 
ATOM     15  C   UNL     1       0.469  10.460  18.384  0.00  0.00    +0.000 A 
ATOM     16  C   UNL     1       1.100   9.537  19.231  0.00  0.00    +0.000 A 
BRANCH  14  17
ATOM     17  N   UNL     1      -1.281  12.180  17.988  0.00  0.00    +0.000 N 
ATOM     18  O   UNL     1      -0.678  13.242  17.788  0.00  0.00    +0.000 OA
ATOM     19  O   UNL     1      -2.390  11.898  17.507  0.00  0.00    +0.000 OA
ENDBRANCH  14  17
ENDBRANCH   9  11
ENDBRANCH   8   9
ENDBRANCH   6   7
BRANCH   1  20
ATOM     20  O   UNL     1       3.032   5.106  17.796  0.00  0.00    +0.000 OA
BRANCH  20  21
ATOM     21  C   UNL     1       4.103   4.515  17.141  0.00  0.00    +0.000 C 
ATOM     22  O   UNL     1       4.066   3.517  16.433  0.00  0.00    +0.000 OA
BRANCH  21  28
ATOM     23  C   UNL     1       6.309   5.742  16.751  0.00  0.00    +0.000 A 
ATOM     24  C   UNL     1       7.466   6.328  17.291  0.00  0.00    +0.000 A 
ATOM     25  C   UNL     1       7.734   6.241  18.656  0.00  0.00    +0.000 A 
ATOM     26  C   UNL     1       6.836   5.590  19.495  0.00  0.00    +0.000 A 
ATOM     27  C   UNL     1       5.671   5.029  18.967  0.00  0.00    +0.000 A 
ATOM     28  C   UNL     1       5.388   5.109  17.589  0.00  0.00    +0.000 A 
BRANCH  23  29
ATOM     29  O   UNL     1       6.043   5.899  15.382  0.00  0.00    +0.000 OA
BRANCH  29  31
ATOM     30  C   UNL     1       6.165   3.937  14.077  0.00  0.00    +0.000 C 
ATOM     31  C   UNL     1       6.866   5.189  14.510  0.00  0.00    +0.000 C 
ATOM     32  O   UNL     1       7.977   5.525  14.123  0.00  0.00    +0.000 OA
ENDBRANCH  29  31
ENDBRANCH  23  29
ENDBRANCH  21  28
ENDBRANCH  20  21
ENDBRANCH   1  20
TORSDOF 9
ENDMDL
MODEL 3
REMARK VINA RESULT:      -8.2      1.348      2.352
REMARK  Name = 
REMARK  10 active torsions:
REMARK  status: ('A' for Active; 'I' for Inactive)
REMARK    1  A    between atoms: C_1  and  C_2
REMARK    2  A    between atoms: C_2  and  O_4
REMARK    3  A    between atoms: O_4  and  C_5
REMARK    4  A    between atoms: C_10  and  C_11
REMARK    5  A    between atoms: C_11  and  O_13
REMARK    6  A    between atoms: O_13  and  C_14
REMARK    7  A    between atoms: C_19  and  C_20
REMARK    8  A    between atoms: C_21  and  C_22
REMARK    9  A    between atoms: C_22  and  C_24
REMARK   10  A    between atoms: C_27  and  N_28
REMARK                            x       y       z     vdW  Elec       q    Type
REMARK                         _______ _______ _______ _____ _____    ______ ____
ROOT
ATOM      1  C   UNL     1       2.929   3.713  19.151  0.00  0.00    +0.000 A 
ATOM      2  C   UNL     1       2.689   2.422  19.655  0.00  0.00    +0.000 A 
ATOM      3  C   UNL     1       2.070   2.246  20.889  0.00  0.00    +0.000 A 
ATOM      4  C   UNL     1       1.735   3.357  21.651  0.00  0.00    +0.000 A 
ATOM      5  C   UNL     1       2.002   4.644  21.168  0.00  0.00    +0.000 A 
ATOM      6  C   UNL     1       2.576   4.857  19.898  0.00  0.00    +0.000 A 
ENDROOT
BRANCH   6   7
ATOM      7  C   UNL     1       2.819   6.235  19.409  0.00  0.00    +0.000 C 
ATOM      8  C   UNL     1       2.066   6.840  18.471  0.00  0.00    +0.000 C 
BRANCH   8   9
ATOM      9  C   UNL     1       2.368   8.218  17.988  0.00  0.00    +0.000 C 
ATOM     10  O   UNL     1       3.105   8.423  17.030  0.00  0.00    +0.000 OA
BRANCH   9  11
ATOM     11  C   UNL     1       1.712   9.359  18.693  0.00  0.00    +0.000 A 
ATOM     12  C   UNL     1       1.029   9.182  19.905  0.00  0.00    +0.000 A 
ATOM     13  C   UNL     1       0.481  10.286  20.577  0.00  0.00    +0.000 A 
ATOM     14  C   UNL     1       0.621  11.569  20.034  0.00  0.00    +0.000 A 
ATOM     15  C   UNL     1       1.293  11.758  18.821  0.00  0.00    +0.000 A 
ATOM     16  C   UNL     1       1.843  10.651  18.157  0.00  0.00    +0.000 A 
BRANCH  14  17
ATOM     17  N   UNL     1       0.077  12.726  20.760  0.00  0.00    +0.000 N 
ATOM     18  O   UNL     1      -0.481  13.611  20.099  0.00  0.00    +0.000 OA
ATOM     19  O   UNL     1       0.207  12.745  21.994  0.00  0.00    +0.000 OA
ENDBRANCH  14  17
ENDBRANCH   9  11
ENDBRANCH   8   9
ENDBRANCH   6   7
BRANCH   1  20
ATOM     20  O   UNL     1       3.646   3.842  17.934  0.00  0.00    +0.000 OA
BRANCH  20  21
ATOM     21  C   UNL     1       5.023   3.970  18.045  0.00  0.00    +0.000 C 
ATOM     22  O   UNL     1       5.679   3.934  19.078  0.00  0.00    +0.000 OA
BRANCH  21  28
ATOM     23  C   UNL     1       6.157   5.662  16.504  0.00  0.00    +0.000 A 
ATOM     24  C   UNL     1       6.757   5.941  15.264  0.00  0.00    +0.000 A 
ATOM     25  C   UNL     1       6.775   4.980  14.255  0.00  0.00    +0.000 A 
ATOM     26  C   UNL     1       6.219   3.727  14.485  0.00  0.00    +0.000 A 
ATOM     27  C   UNL     1       5.646   3.436  15.725  0.00  0.00    +0.000 A 
ATOM     28  C   UNL     1       5.619   4.398  16.754  0.00  0.00    +0.000 A 
BRANCH  23  29
ATOM     29  O   UNL     1       6.208   6.633  17.517  0.00  0.00    +0.000 OA
BRANCH  29  31
ATOM     30  C   UNL     1       7.920   8.247  17.707  0.00  0.00    +0.000 C 
ATOM     31  C   UNL     1       7.461   6.870  18.079  0.00  0.00    +0.000 C 
ATOM     32  O   UNL     1       8.095   6.102  18.790  0.00  0.00    +0.000 OA
ENDBRANCH  29  31
ENDBRANCH  23  29
ENDBRANCH  21  28
ENDBRANCH  20  21
ENDBRANCH   1  20
TORSDOF 9
ENDMDL
MODEL 4
REMARK VINA RESULT:      -8.2      1.378      2.628
REMARK  Name = 
REMARK  10 active torsions:
REMARK  status: ('A' for Active; 'I' for Inactive)
REMARK    1  A    between atoms: C_1  and  C_2
REMARK    2  A    between atoms: C_2  and  O_4
REMARK    3  A    between atoms: O_4  and  C_5
REMARK    4  A    between atoms: C_10  and  C_11
REMARK    5  A    between atoms: C_11  and  O_13
REMARK    6  A    between atoms: O_13  and  C_14
REMARK    7  A    between atoms: C_19  and  C_20
REMARK    8  A    between atoms: C_21  and  C_22
REMARK    9  A    between atoms: C_22  and  C_24
REMARK   10  A    between atoms: C_27  and  N_28
REMARK                            x       y       z     vdW  Elec       q    Type
REMARK                         _______ _______ _______ _____ _____    ______ ____
ROOT
ATOM      1  C   UNL     1       3.186   3.727  19.145  0.00  0.00    +0.000 A 
ATOM      2  C   UNL     1       3.424   2.581  19.927  0.00  0.00    +0.000 A 
ATOM      3  C   UNL     1       2.868   2.461  21.196  0.00  0.00    +0.000 A 
ATOM      4  C   UNL     1       2.116   3.506  21.715  0.00  0.00    +0.000 A 
ATOM      5  C   UNL     1       1.904   4.662  20.954  0.00  0.00    +0.000 A 
ATOM      6  C   UNL     1       2.406   4.791  19.643  0.00  0.00    +0.000 A 
ENDROOT
BRANCH   6   7
ATOM      7  C   UNL     1       2.137   6.019  18.858  0.00  0.00    +0.000 C 
ATOM      8  C   UNL     1       2.370   7.265  19.314  0.00  0.00    +0.000 C 
BRANCH   8   9
ATOM      9  C   UNL     1       2.053   8.472  18.498  0.00  0.00    +0.000 C 
ATOM     10  O   UNL     1       2.463   8.609  17.352  0.00  0.00    +0.000 OA
BRANCH   9  11
ATOM     11  C   UNL     1       1.179   9.515  19.116  0.00  0.00    +0.000 A 
ATOM     12  C   UNL     1       0.900  10.723  18.462  0.00  0.00    +0.000 A 
ATOM     13  C   UNL     1       0.021  11.654  19.040  0.00  0.00    +0.000 A 
ATOM     14  C   UNL     1      -0.579  11.370  20.273  0.00  0.00    +0.000 A 
ATOM     15  C   UNL     1      -0.300  10.172  20.939  0.00  0.00    +0.000 A 
ATOM     16  C   UNL     1       0.574   9.244  20.354  0.00  0.00    +0.000 A 
BRANCH  14  17
ATOM     17  N   UNL     1      -1.526  12.332  20.855  0.00  0.00    +0.000 N 
ATOM     18  O   UNL     1      -1.250  12.816  21.960  0.00  0.00    +0.000 OA
ATOM     19  O   UNL     1      -2.547  12.604  20.202  0.00  0.00    +0.000 OA
ENDBRANCH  14  17
ENDBRANCH   9  11
ENDBRANCH   8   9
ENDBRANCH   6   7
BRANCH   1  20
ATOM     20  O   UNL     1       3.850   3.844  17.897  0.00  0.00    +0.000 OA
BRANCH  20  21
ATOM     21  C   UNL     1       5.209   4.120  17.950  0.00  0.00    +0.000 C 
ATOM     22  O   UNL     1       5.869   4.353  18.954  0.00  0.00    +0.000 OA
BRANCH  21  28
ATOM     23  C   UNL     1       6.932   5.033  16.300  0.00  0.00    +0.000 A 
ATOM     24  C   UNL     1       7.395   5.120  14.977  0.00  0.00    +0.000 A 
ATOM     25  C   UNL     1       6.663   4.561  13.931  0.00  0.00    +0.000 A 
ATOM     26  C   UNL     1       5.477   3.887  14.203  0.00  0.00    +0.000 A 
ATOM     27  C   UNL     1       5.027   3.773  15.521  0.00  0.00    +0.000 A 
ATOM     28  C   UNL     1       5.757   4.336  16.587  0.00  0.00    +0.000 A 
BRANCH  23  29
ATOM     29  O   UNL     1       7.725   5.557  17.333  0.00  0.00    +0.000 OA
BRANCH  29  31
ATOM     30  C   UNL     1       8.317   7.266  18.850  0.00  0.00    +0.000 C 
ATOM     31  C   UNL     1       7.561   6.914  17.605  0.00  0.00    +0.000 C 
ATOM     32  O   UNL     1       6.928   7.718  16.934  0.00  0.00    +0.000 OA
ENDBRANCH  29  31
ENDBRANCH  23  29
ENDBRANCH  21  28
ENDBRANCH  20  21
ENDBRANCH   1  20
TORSDOF 9
ENDMDL
MODEL 5
REMARK VINA RESULT:      -8.1      2.158      3.260
REMARK  Name = 
REMARK  10 active torsions:
REMARK  status: ('A' for Active; 'I' for Inactive)
REMARK    1  A    between atoms: C_1  and  C_2
REMARK    2  A    between atoms: C_2  and  O_4
REMARK    3  A    between atoms: O_4  and  C_5
REMARK    4  A    between atoms: C_10  and  C_11
REMARK    5  A    between atoms: C_11  and  O_13
REMARK    6  A    between atoms: O_13  and  C_14
REMARK    7  A    between atoms: C_19  and  C_20
REMARK    8  A    between atoms: C_21  and  C_22
REMARK    9  A    between atoms: C_22  and  C_24
REMARK   10  A    between atoms: C_27  and  N_28
REMARK                            x       y       z     vdW  Elec       q    Type
REMARK                         _______ _______ _______ _____ _____    ______ ____
ROOT
ATOM      1  C   UNL     1       2.959   5.160  19.345  0.00  0.00    +0.000 A 
ATOM      2  C   UNL     1       2.860   3.898  18.731  0.00  0.00    +0.000 A 
ATOM      3  C   UNL     1       1.758   3.082  18.963  0.00  0.00    +0.000 A 
ATOM      4  C   UNL     1       0.774   3.496  19.850  0.00  0.00    +0.000 A 
ATOM      5  C   UNL     1       0.884   4.737  20.488  0.00  0.00    +0.000 A 
ATOM      6  C   UNL     1       1.959   5.612  20.232  0.00  0.00    +0.000 A 
ENDROOT
BRANCH   6   7
ATOM      7  C   UNL     1       2.028   6.930  20.906  0.00  0.00    +0.000 C 
ATOM      8  C   UNL     1       0.945   7.653  21.249  0.00  0.00    +0.000 C 
BRANCH   8   9
ATOM      9  C   UNL     1       1.064   8.990  21.897  0.00  0.00    +0.000 C 
ATOM     10  O   UNL     1       1.981   9.262  22.664  0.00  0.00    +0.000 OA
BRANCH   9  11
ATOM     11  C   UNL     1       0.037  10.020  21.557  0.00  0.00    +0.000 A 
ATOM     12  C   UNL     1      -0.630  10.752  22.549  0.00  0.00    +0.000 A 
ATOM     13  C   UNL     1      -1.541  11.759  22.194  0.00  0.00    +0.000 A 
ATOM     14  C   UNL     1      -1.781  12.034  20.842  0.00  0.00    +0.000 A 
ATOM     15  C   UNL     1      -1.128  11.304  19.842  0.00  0.00    +0.000 A 
ATOM     16  C   UNL     1      -0.215  10.302  20.204  0.00  0.00    +0.000 A 
BRANCH  14  17
ATOM     17  N   UNL     1      -2.709  13.114  20.475  0.00  0.00    +0.000 N 
ATOM     18  O   UNL     1      -2.277  14.274  20.490  0.00  0.00    +0.000 OA
ATOM     19  O   UNL     1      -3.870  12.798  20.170  0.00  0.00    +0.000 OA
ENDBRANCH  14  17
ENDBRANCH   9  11
ENDBRANCH   8   9
ENDBRANCH   6   7
BRANCH   1  20
ATOM     20  O   UNL     1       4.144   5.916  19.151  0.00  0.00    +0.000 OA
BRANCH  20  21
ATOM     21  C   UNL     1       4.278   6.539  17.919  0.00  0.00    +0.000 C 
ATOM     22  O   UNL     1       3.567   7.426  17.467  0.00  0.00    +0.000 OA
BRANCH  21  28
ATOM     23  C   UNL     1       6.350   5.086  17.569  0.00  0.00    +0.000 A 
ATOM     24  C   UNL     1       7.199   4.403  16.682  0.00  0.00    +0.000 A 
ATOM     25  C   UNL     1       7.014   4.504  15.304  0.00  0.00    +0.000 A 
ATOM     26  C   UNL     1       5.964   5.265  14.803  0.00  0.00    +0.000 A 
ATOM     27  C   UNL     1       5.100   5.925  15.682  0.00  0.00    +0.000 A 
ATOM     28  C   UNL     1       5.277   5.832  17.077  0.00  0.00    +0.000 A 
BRANCH  23  29
ATOM     29  O   UNL     1       6.531   4.915  18.950  0.00  0.00    +0.000 OA
BRANCH  29  31
ATOM     30  C   UNL     1       7.993   6.746  18.662  0.00  0.00    +0.000 C 
ATOM     31  C   UNL     1       7.627   5.566  19.512  0.00  0.00    +0.000 C 
ATOM     32  O   UNL     1       8.202   5.260  20.548  0.00  0.00    +0.000 OA
ENDBRANCH  29  31
ENDBRANCH  23  29
ENDBRANCH  21  28
ENDBRANCH  20  21
ENDBRANCH   1  20
TORSDOF 9
ENDMDL
MODEL 6
REMARK VINA RESULT:      -8.1      1.117      1.377
REMARK  Name = 
REMARK  10 active torsions:
REMARK  status: ('A' for Active; 'I' for Inactive)
REMARK    1  A    between atoms: C_1  and  C_2
REMARK    2  A    between atoms: C_2  and  O_4
REMARK    3  A    between atoms: O_4  and  C_5
REMARK    4  A    between atoms: C_10  and  C_11
REMARK    5  A    between atoms: C_11  and  O_13
REMARK    6  A    between atoms: O_13  and  C_14
REMARK    7  A    between atoms: C_19  and  C_20
REMARK    8  A    between atoms: C_21  and  C_22
REMARK    9  A    between atoms: C_22  and  C_24
REMARK   10  A    between atoms: C_27  and  N_28
REMARK                            x       y       z     vdW  Elec       q    Type
REMARK                         _______ _______ _______ _____ _____    ______ ____
ROOT
ATOM      1  C   UNL     1       3.190   3.612  17.996  0.00  0.00    +0.000 A 
ATOM      2  C   UNL     1       2.944   2.230  17.899  0.00  0.00    +0.000 A 
ATOM      3  C   UNL     1       1.775   1.680  18.415  0.00  0.00    +0.000 A 
ATOM      4  C   UNL     1       0.870   2.496  19.079  0.00  0.00    +0.000 A 
ATOM      5  C   UNL     1       1.125   3.866  19.207  0.00  0.00    +0.000 A 
ATOM      6  C   UNL     1       2.272   4.464  18.646  0.00  0.00    +0.000 A 
ENDROOT
BRANCH   6   7
ATOM      7  C   UNL     1       2.495   5.924  18.779  0.00  0.00    +0.000 C 
ATOM      8  C   UNL     1       1.844   6.850  18.049  0.00  0.00    +0.000 C 
BRANCH   8   9
ATOM      9  C   UNL     1       2.126   8.307  18.196  0.00  0.00    +0.000 C 
ATOM     10  O   UNL     1       2.976   8.876  17.521  0.00  0.00    +0.000 OA
BRANCH   9  11
ATOM     11  C   UNL     1       1.307   9.075  19.181  0.00  0.00    +0.000 A 
ATOM     12  C   UNL     1       1.163   8.650  20.509  0.00  0.00    +0.000 A 
ATOM     13  C   UNL     1       0.442   9.430  21.428  0.00  0.00    +0.000 A 
ATOM     14  C   UNL     1      -0.132  10.638  21.013  0.00  0.00    +0.000 A 
ATOM     15  C   UNL     1      -0.003  11.068  19.688  0.00  0.00    +0.000 A 
ATOM     16  C   UNL     1       0.723  10.287  18.777  0.00  0.00    +0.000 A 
BRANCH  14  17
ATOM     17  N   UNL     1      -0.855  11.468  21.988  0.00  0.00    +0.000 N 
ATOM     18  O   UNL     1      -0.523  11.382  23.177  0.00  0.00    +0.000 OA
ATOM     19  O   UNL     1      -1.754  12.209  21.560  0.00  0.00    +0.000 OA
ENDBRANCH  14  17
ENDBRANCH   9  11
ENDBRANCH   8   9
ENDBRANCH   6   7
BRANCH   1  20
ATOM     20  O   UNL     1       4.436   4.112  17.539  0.00  0.00    +0.000 OA
BRANCH  20  21
ATOM     21  C   UNL     1       5.476   4.095  18.457  0.00  0.00    +0.000 C 
ATOM     22  O   UNL     1       5.566   3.380  19.446  0.00  0.00    +0.000 OA
BRANCH  21  28
ATOM     23  C   UNL     1       6.545   5.917  17.020  0.00  0.00    +0.000 A 
ATOM     24  C   UNL     1       7.399   7.028  16.934  0.00  0.00    +0.000 A 
ATOM     25  C   UNL     1       8.148   7.434  18.038  0.00  0.00    +0.000 A 
ATOM     26  C   UNL     1       8.028   6.749  19.242  0.00  0.00    +0.000 A 
ATOM     27  C   UNL     1       7.159   5.658  19.340  0.00  0.00    +0.000 A 
ATOM     28  C   UNL     1       6.398   5.237  18.231  0.00  0.00    +0.000 A 
BRANCH  23  29
ATOM     29  O   UNL     1       5.764   5.573  15.905  0.00  0.00    +0.000 OA
BRANCH  29  31
ATOM     30  C   UNL     1       5.593   3.970  14.181  0.00  0.00    +0.000 C 
ATOM     31  C   UNL     1       6.446   5.021  14.823  0.00  0.00    +0.000 C 
ATOM     32  O   UNL     1       7.557   5.345  14.423  0.00  0.00    +0.000 OA
ENDBRANCH  29  31
ENDBRANCH  23  29
ENDBRANCH  21  28
ENDBRANCH  20  21
ENDBRANCH   1  20
TORSDOF 9
ENDMDL
MODEL 7
REMARK VINA RESULT:      -8.0      1.226      1.771
REMARK  Name = 
REMARK  10 active torsions:
REMARK  status: ('A' for Active; 'I' for Inactive)
REMARK    1  A    between atoms: C_1  and  C_2
REMARK    2  A    between atoms: C_2  and  O_4
REMARK    3  A    between atoms: O_4  and  C_5
REMARK    4  A    between atoms: C_10  and  C_11
REMARK    5  A    between atoms: C_11  and  O_13
REMARK    6  A    between atoms: O_13  and  C_14
REMARK    7  A    between atoms: C_19  and  C_20
REMARK    8  A    between atoms: C_21  and  C_22
REMARK    9  A    between atoms: C_22  and  C_24
REMARK   10  A    between atoms: C_27  and  N_28
REMARK                            x       y       z     vdW  Elec       q    Type
REMARK                         _______ _______ _______ _____ _____    ______ ____
ROOT
ATOM      1  C   UNL     1       2.955   4.197  18.736  0.00  0.00    +0.000 A 
ATOM      2  C   UNL     1       3.348   2.926  19.194  0.00  0.00    +0.000 A 
ATOM      3  C   UNL     1       3.088   2.533  20.503  0.00  0.00    +0.000 A 
ATOM      4  C   UNL     1       2.484   3.425  21.378  0.00  0.00    +0.000 A 
ATOM      5  C   UNL     1       2.121   4.703  20.936  0.00  0.00    +0.000 A 
ATOM      6  C   UNL     1       2.319   5.111  19.601  0.00  0.00    +0.000 A 
ENDROOT
BRANCH   6   7
ATOM      7  C   UNL     1       1.896   6.463  19.163  0.00  0.00    +0.000 C 
ATOM      8  C   UNL     1       1.958   7.557  19.946  0.00  0.00    +0.000 C 
BRANCH   8   9
ATOM      9  C   UNL     1       1.491   8.891  19.472  0.00  0.00    +0.000 C 
ATOM     10  O   UNL     1       1.694   9.282  18.328  0.00  0.00    +0.000 OA
BRANCH   9  11
ATOM     11  C   UNL     1       0.727   9.740  20.434  0.00  0.00    +0.000 A 
ATOM     12  C   UNL     1       0.211  10.990  20.066  0.00  0.00    +0.000 A 
ATOM     13  C   UNL     1      -0.560  11.734  20.973  0.00  0.00    +0.000 A 
ATOM     14  C   UNL     1      -0.816  11.220  22.251  0.00  0.00    +0.000 A 
ATOM     15  C   UNL     1      -0.299   9.978  22.633  0.00  0.00    +0.000 A 
ATOM     16  C   UNL     1       0.467   9.238  21.720  0.00  0.00    +0.000 A 
BRANCH  14  17
ATOM     17  N   UNL     1      -1.654  11.986  23.185  0.00  0.00    +0.000 N 
ATOM     18  O   UNL     1      -2.756  11.514  23.490  0.00  0.00    +0.000 OA
ATOM     19  O   UNL     1      -1.205  13.061  23.614  0.00  0.00    +0.000 OA
ENDBRANCH  14  17
ENDBRANCH   9  11
ENDBRANCH   8   9
ENDBRANCH   6   7
BRANCH   1  20
ATOM     20  O   UNL     1       3.324   4.587  17.423  0.00  0.00    +0.000 OA
BRANCH  20  21
ATOM     21  C   UNL     1       4.157   5.693  17.324  0.00  0.00    +0.000 C 
ATOM     22  O   UNL     1       3.890   6.763  16.793  0.00  0.00    +0.000 OA
BRANCH  21  28
ATOM     23  C   UNL     1       6.423   4.556  17.017  0.00  0.00    +0.000 A 
ATOM     24  C   UNL     1       7.734   4.350  17.479  0.00  0.00    +0.000 A 
ATOM     25  C   UNL     1       8.150   4.894  18.693  0.00  0.00    +0.000 A 
ATOM     26  C   UNL     1       7.269   5.667  19.441  0.00  0.00    +0.000 A 
ATOM     27  C   UNL     1       5.973   5.897  18.972  0.00  0.00    +0.000 A 
ATOM     28  C   UNL     1       5.539   5.352  17.747  0.00  0.00    +0.000 A 
BRANCH  23  29
ATOM     29  O   UNL     1       6.057   4.041  15.763  0.00  0.00    +0.000 OA
BRANCH  29  31
ATOM     30  C   UNL     1       6.268   3.876  13.418  0.00  0.00    +0.000 C 
ATOM     31  C   UNL     1       6.703   4.595  14.659  0.00  0.00    +0.000 C 
ATOM     32  O   UNL     1       7.485   5.536  14.671  0.00  0.00    +0.000 OA
ENDBRANCH  29  31
ENDBRANCH  23  29
ENDBRANCH  21  28
ENDBRANCH  20  21
ENDBRANCH   1  20
TORSDOF 9
ENDMDL
MODEL 8
REMARK VINA RESULT:      -7.9      1.757      2.701
REMARK  Name = 
REMARK  10 active torsions:
REMARK  status: ('A' for Active; 'I' for Inactive)
REMARK    1  A    between atoms: C_1  and  C_2
REMARK    2  A    between atoms: C_2  and  O_4
REMARK    3  A    between atoms: O_4  and  C_5
REMARK    4  A    between atoms: C_10  and  C_11
REMARK    5  A    between atoms: C_11  and  O_13
REMARK    6  A    between atoms: O_13  and  C_14
REMARK    7  A    between atoms: C_19  and  C_20
REMARK    8  A    between atoms: C_21  and  C_22
REMARK    9  A    between atoms: C_22  and  C_24
REMARK   10  A    between atoms: C_27  and  N_28
REMARK                            x       y       z     vdW  Elec       q    Type
REMARK                         _______ _______ _______ _____ _____    ______ ____
ROOT
ATOM      1  C   UNL     1       3.355   4.034  19.467  0.00  0.00    +0.000 A 
ATOM      2  C   UNL     1       3.527   2.912  20.297  0.00  0.00    +0.000 A 
ATOM      3  C   UNL     1       2.600   2.617  21.291  0.00  0.00    +0.000 A 
ATOM      4  C   UNL     1       1.524   3.469  21.498  0.00  0.00    +0.000 A 
ATOM      5  C   UNL     1       1.366   4.605  20.696  0.00  0.00    +0.000 A 
ATOM      6  C   UNL     1       2.256   4.901  19.643  0.00  0.00    +0.000 A 
ENDROOT
BRANCH   6   7
ATOM      7  C   UNL     1       2.041   6.099  18.797  0.00  0.00    +0.000 C 
ATOM      8  C   UNL     1       2.246   7.361  19.220  0.00  0.00    +0.000 C 
BRANCH   8   9
ATOM      9  C   UNL     1       1.985   8.537  18.341  0.00  0.00    +0.000 C 
ATOM     10  O   UNL     1       2.626   8.739  17.316  0.00  0.00    +0.000 OA
BRANCH   9  11
ATOM     11  C   UNL     1       0.878   9.461  18.733  0.00  0.00    +0.000 A 
ATOM     12  C   UNL     1       0.888  10.146  19.956  0.00  0.00    +0.000 A 
ATOM     13  C   UNL     1      -0.133  11.058  20.265  0.00  0.00    +0.000 A 
ATOM     14  C   UNL     1      -1.163  11.287  19.344  0.00  0.00    +0.000 A 
ATOM     15  C   UNL     1      -1.188  10.603  18.123  0.00  0.00    +0.000 A 
ATOM     16  C   UNL     1      -0.162   9.696  17.818  0.00  0.00    +0.000 A 
BRANCH  14  17
ATOM     17  N   UNL     1      -2.210  12.270  19.657  0.00  0.00    +0.000 N 
ATOM     18  O   UNL     1      -3.338  12.081  19.186  0.00  0.00    +0.000 OA
ATOM     19  O   UNL     1      -1.900  13.231  20.379  0.00  0.00    +0.000 OA
ENDBRANCH  14  17
ENDBRANCH   9  11
ENDBRANCH   8   9
ENDBRANCH   6   7
BRANCH   1  20
ATOM     20  O   UNL     1       4.374   4.346  18.531  0.00  0.00    +0.000 OA
BRANCH  20  21
ATOM     21  C   UNL     1       4.376   3.605  17.358  0.00  0.00    +0.000 C 
ATOM     22  O   UNL     1       3.825   2.527  17.173  0.00  0.00    +0.000 OA
BRANCH  21  28
ATOM     23  C   UNL     1       6.222   5.218  16.642  0.00  0.00    +0.000 A 
ATOM     24  C   UNL     1       7.141   5.629  15.662  0.00  0.00    +0.000 A 
ATOM     25  C   UNL     1       7.149   5.032  14.402  0.00  0.00    +0.000 A 
ATOM     26  C   UNL     1       6.258   4.003  14.122  0.00  0.00    +0.000 A 
ATOM     27  C   UNL     1       5.360   3.571  15.103  0.00  0.00    +0.000 A 
ATOM     28  C   UNL     1       5.341   4.168  16.379  0.00  0.00    +0.000 A 
BRANCH  23  29
ATOM     29  O   UNL     1       6.282   5.802  17.917  0.00  0.00    +0.000 OA
BRANCH  29  31
ATOM     30  C   UNL     1       8.077   7.224  18.491  0.00  0.00    +0.000 C 
ATOM     31  C   UNL     1       7.536   5.827  18.524  0.00  0.00    +0.000 C 
ATOM     32  O   UNL     1       8.115   4.877  19.034  0.00  0.00    +0.000 OA
ENDBRANCH  29  31
ENDBRANCH  23  29
ENDBRANCH  21  28
ENDBRANCH  20  21
ENDBRANCH   1  20
TORSDOF 9
ENDMDL
MODEL 9
REMARK VINA RESULT:      -7.8      1.988      2.972
REMARK  Name = 
REMARK  10 active torsions:
REMARK  status: ('A' for Active; 'I' for Inactive)
REMARK    1  A    between atoms: C_1  and  C_2
REMARK    2  A    between atoms: C_2  and  O_4
REMARK    3  A    between atoms: O_4  and  C_5
REMARK    4  A    between atoms: C_10  and  C_11
REMARK    5  A    between atoms: C_11  and  O_13
REMARK    6  A    between atoms: O_13  and  C_14
REMARK    7  A    between atoms: C_19  and  C_20
REMARK    8  A    between atoms: C_21  and  C_22
REMARK    9  A    between atoms: C_22  and  C_24
REMARK   10  A    between atoms: C_27  and  N_28
REMARK                            x       y       z     vdW  Elec       q    Type
REMARK                         _______ _______ _______ _____ _____    ______ ____
ROOT
ATOM      1  C   UNL     1       2.525   4.316  18.824  0.00  0.00    +0.000 A 
ATOM      2  C   UNL     1       2.394   3.099  18.130  0.00  0.00    +0.000 A 
ATOM      3  C   UNL     1       1.450   2.156  18.525  0.00  0.00    +0.000 A 
ATOM      4  C   UNL     1       0.669   2.397  19.647  0.00  0.00    +0.000 A 
ATOM      5  C   UNL     1       0.819   3.592  20.360  0.00  0.00    +0.000 A 
ATOM      6  C   UNL     1       1.725   4.593  19.953  0.00  0.00    +0.000 A 
ENDROOT
BRANCH   6   7
ATOM      7  C   UNL     1       1.836   5.857  20.719  0.00  0.00    +0.000 C 
ATOM      8  C   UNL     1       1.062   6.936  20.498  0.00  0.00    +0.000 C 
BRANCH   8   9
ATOM      9  C   UNL     1       1.232   8.199  21.273  0.00  0.00    +0.000 C 
ATOM     10  O   UNL     1       2.030   8.291  22.198  0.00  0.00    +0.000 OA
BRANCH   9  11
ATOM     11  C   UNL     1       0.414   9.379  20.863  0.00  0.00    +0.000 A 
ATOM     12  C   UNL     1       0.321   9.781  19.523  0.00  0.00    +0.000 A 
ATOM     13  C   UNL     1      -0.510  10.854  19.162  0.00  0.00    +0.000 A 
ATOM     14  C   UNL     1      -1.251  11.521  20.145  0.00  0.00    +0.000 A 
ATOM     15  C   UNL     1      -1.159  11.134  21.487  0.00  0.00    +0.000 A 
ATOM     16  C   UNL     1      -0.331  10.059  21.841  0.00  0.00    +0.000 A 
BRANCH  14  17
ATOM     17  N   UNL     1      -2.147  12.620  19.757  0.00  0.00    +0.000 N 
ATOM     18  O   UNL     1      -1.922  13.741  20.228  0.00  0.00    +0.000 OA
ATOM     19  O   UNL     1      -3.075  12.358  18.975  0.00  0.00    +0.000 OA
ENDBRANCH  14  17
ENDBRANCH   9  11
ENDBRANCH   8   9
ENDBRANCH   6   7
BRANCH   1  20
ATOM     20  O   UNL     1       3.562   5.205  18.443  0.00  0.00    +0.000 OA
BRANCH  20  21
ATOM     21  C   UNL     1       4.847   4.680  18.438  0.00  0.00    +0.000 C 
ATOM     22  O   UNL     1       5.498   4.334  19.415  0.00  0.00    +0.000 OA
BRANCH  21  28
ATOM     23  C   UNL     1       6.143   5.921  16.620  0.00  0.00    +0.000 A 
ATOM     24  C   UNL     1       6.742   5.901  15.350  0.00  0.00    +0.000 A 
ATOM     25  C   UNL     1       6.619   4.784  14.526  0.00  0.00    +0.000 A 
ATOM     26  C   UNL     1       5.919   3.670  14.974  0.00  0.00    +0.000 A 
ATOM     27  C   UNL     1       5.344   3.674  16.248  0.00  0.00    +0.000 A 
ATOM     28  C   UNL     1       5.460   4.798  17.091  0.00  0.00    +0.000 A 
BRANCH  23  29
ATOM     29  O   UNL     1       6.337   7.040  17.445  0.00  0.00    +0.000 OA
BRANCH  29  31
ATOM     30  C   UNL     1       8.177   8.492  17.722  0.00  0.00    +0.000 C 
ATOM     31  C   UNL     1       7.589   7.152  18.046  0.00  0.00    +0.000 C 
ATOM     32  O   UNL     1       8.134   6.314  18.752  0.00  0.00    +0.000 OA
ENDBRANCH  29  31
ENDBRANCH  23  29
ENDBRANCH  21  28
ENDBRANCH  20  21
ENDBRANCH   1  20
TORSDOF 9
ENDMDL
