MODEL 1
REMARK VINA RESULT:      -7.5      0.000      0.000
REMARK  Name = 
REMARK  15 active torsions:
REMARK  status: ('A' for Active; 'I' for Inactive)
REMARK    1  A    between atoms: C_1  and  C_2
REMARK    2  A    between atoms: C_2  and  N_3
REMARK    3  A    between atoms: N_3  and  C_4
REMARK    4  A    between atoms: C_7  and  C_8
REMARK    5  A    between atoms: C_10  and  C_11
REMARK    6  A    between atoms: C_14  and  C_15
REMARK    7  A    between atoms: C_16  and  C_17
REMARK    8  A    between atoms: C_17  and  O_18
REMARK    9  A    between atoms: O_18  and  C_19
REMARK   10  A    between atoms: C_19  and  C_20
REMARK   11  A    between atoms: C_24  and  C_25
REMARK   12  A    between atoms: C_28  and  N_29
REMARK   13  A    between atoms: N_29  and  C_30
REMARK   14  A    between atoms: C_30  and  C_31
REMARK   15  A    between atoms: C_30  and  C_32
REMARK                            x       y       z     vdW  Elec       q    Type
REMARK                         _______ _______ _______ _____ _____    ______ ____
ROOT
ATOM      1  C   UNL     1      -0.830  10.370  18.969  0.00  0.00    +0.000 A 
ATOM      2  N   UNL     1      -0.040   9.440  18.346  0.00  0.00    +0.000 N 
ATOM      3  C   UNL     1       1.118   9.260  19.051  0.00  0.00    +0.000 A 
ATOM      4  N   UNL     1       1.132  10.071  20.099  0.00  0.00    +0.000 NA
ATOM      5  C   UNL     1      -0.057  10.753  20.067  0.00  0.00    +0.000 A 
ATOM      6  H   UNL     1      -0.290   8.932  17.500  0.00  0.00    +0.000 HD
ENDROOT
BRANCH   1  10
ATOM      7  C   UNL     1      -4.608  11.667  17.441  0.00  0.00    +0.000 A 
ATOM      8  C   UNL     1      -4.112  12.150  18.656  0.00  0.00    +0.000 A 
ATOM      9  C   UNL     1      -2.882  11.751  19.153  0.00  0.00    +0.000 A 
ATOM     10  C   UNL     1      -2.118  10.805  18.465  0.00  0.00    +0.000 A 
ATOM     11  C   UNL     1      -2.634  10.301  17.263  0.00  0.00    +0.000 A 
ATOM     12  C   UNL     1      -3.835  10.732  16.747  0.00  0.00    +0.000 A 
BRANCH   7  13
ATOM     13  N   UNL     1      -5.887  12.051  17.056  0.00  0.00    +0.000 N 
ATOM     14  H   UNL     1      -6.093  11.810  16.094  0.00  0.00    +0.000 HD
BRANCH  13  16
ATOM     15  C   UNL     1      -7.684  13.226  18.205  0.00  0.00    +0.000 C 
ATOM     16  C   UNL     1      -7.003  11.884  17.979  0.00  0.00    +0.000 C 
ENDBRANCH  13  16
ENDBRANCH   7  13
ENDBRANCH   1  10
BRANCH   3  17
ATOM     17  C   UNL     1       2.125   8.269  18.723  0.00  0.00    +0.000 A 
ATOM     18  C   UNL     1       2.940   8.375  17.589  0.00  0.00    +0.000 A 
ATOM     19  C   UNL     1       3.881   7.382  17.299  0.00  0.00    +0.000 A 
ATOM     20  C   UNL     1       4.040   6.266  18.138  0.00  0.00    +0.000 A 
ATOM     21  C   UNL     1       3.210   6.160  19.260  0.00  0.00    +0.000 A 
ATOM     22  C   UNL     1       2.278   7.157  19.555  0.00  0.00    +0.000 A 
BRANCH  20  23
ATOM     23  C   UNL     1       5.057   5.258  17.797  0.00  0.00    +0.000 C 
ATOM     24  C   UNL     1       6.163   5.486  17.061  0.00  0.00    +0.000 C 
BRANCH  24  25
ATOM     25  C   UNL     1       7.140   4.417  16.685  0.00  0.00    +0.000 C 
BRANCH  25  26
ATOM     26  O   UNL     1       6.617   3.723  15.554  0.00  0.00    +0.000 OA
BRANCH  26  27
ATOM     27  C   UNL     1       6.648   4.539  14.385  0.00  0.00    +0.000 C 
ATOM     28  C   UNL     1       6.099   3.741  13.218  0.00  0.00    +0.000 C 
ENDBRANCH  26  27
ENDBRANCH  25  26
ENDBRANCH  24  25
ENDBRANCH  20  23
ENDBRANCH   3  17
BRANCH   5  29
ATOM     29  C   UNL     1      -0.434  11.709  21.084  0.00  0.00    +0.000 A 
ATOM     30  C   UNL     1      -1.194  11.314  22.188  0.00  0.00    +0.000 A 
ATOM     31  C   UNL     1      -1.577  12.260  23.137  0.00  0.00    +0.000 A 
ATOM     32  C   UNL     1      -1.177  13.610  23.054  0.00  0.00    +0.000 A 
ATOM     33  C   UNL     1      -0.373  13.969  21.968  0.00  0.00    +0.000 A 
ATOM     34  C   UNL     1      -0.054  13.050  20.987  0.00  0.00    +0.000 A 
BRANCH  32  35
ATOM     35  N   UNL     1      -1.689  14.522  23.967  0.00  0.00    +0.000 N 
ATOM     36  H   UNL     1      -1.168  15.393  23.970  0.00  0.00    +0.000 HD
BRANCH  35  37
ATOM     37  C   UNL     1      -3.133  14.697  24.136  0.00  0.00    +0.000 C 
ATOM     38  C   UNL     1      -3.395  15.810  25.160  0.00  0.00    +0.000 C 
ATOM     39  C   UNL     1      -3.779  15.087  22.808  0.00  0.00    +0.000 C 
ENDBRANCH  35  37
ENDBRANCH  32  35
ENDBRANCH   5  29
TORSDOF 11
ENDMDL
MODEL 2
REMARK VINA RESULT:      -7.4      0.701      1.090
REMARK  Name = 
REMARK  15 active torsions:
REMARK  status: ('A' for Active; 'I' for Inactive)
REMARK    1  A    between atoms: C_1  and  C_2
REMARK    2  A    between atoms: C_2  and  N_3
REMARK    3  A    between atoms: N_3  and  C_4
REMARK    4  A    between atoms: C_7  and  C_8
REMARK    5  A    between atoms: C_10  and  C_11
REMARK    6  A    between atoms: C_14  and  C_15
REMARK    7  A    between atoms: C_16  and  C_17
REMARK    8  A    between atoms: C_17  and  O_18
REMARK    9  A    between atoms: O_18  and  C_19
REMARK   10  A    between atoms: C_19  and  C_20
REMARK   11  A    between atoms: C_24  and  C_25
REMARK   12  A    between atoms: C_28  and  N_29
REMARK   13  A    between atoms: N_29  and  C_30
REMARK   14  A    between atoms: C_30  and  C_31
REMARK   15  A    between atoms: C_30  and  C_32
REMARK                            x       y       z     vdW  Elec       q    Type
REMARK                         _______ _______ _______ _____ _____    ______ ____
ROOT
ATOM      1  C   UNL     1      -1.084  10.663  18.888  0.00  0.00    +0.000 A 
ATOM      2  N   UNL     1      -0.302   9.687  18.325  0.00  0.00    +0.000 N 
ATOM      3  C   UNL     1       0.874   9.575  19.012  0.00  0.00    +0.000 A 
ATOM      4  N   UNL     1       0.909  10.472  19.986  0.00  0.00    +0.000 NA
ATOM      5  C   UNL     1      -0.286  11.142  19.928  0.00  0.00    +0.000 A 
ATOM      6  H   UNL     1      -0.570   9.108  17.532  0.00  0.00    +0.000 HD
ENDROOT
BRANCH   1  10
ATOM      7  C   UNL     1      -4.909  11.819  17.365  0.00  0.00    +0.000 A 
ATOM      8  C   UNL     1      -4.570  12.022  18.706  0.00  0.00    +0.000 A 
ATOM      9  C   UNL     1      -3.328  11.668  19.208  0.00  0.00    +0.000 A 
ATOM     10  C   UNL     1      -2.388  11.045  18.383  0.00  0.00    +0.000 A 
ATOM     11  C   UNL     1      -2.744  10.816  17.047  0.00  0.00    +0.000 A 
ATOM     12  C   UNL     1      -3.961  11.209  16.538  0.00  0.00    +0.000 A 
BRANCH   7  13
ATOM     13  N   UNL     1      -6.204  12.123  16.963  0.00  0.00    +0.000 N 
ATOM     14  H   UNL     1      -6.579  11.444  16.312  0.00  0.00    +0.000 HD
BRANCH  13  16
ATOM     15  C   UNL     1      -7.615  14.026  17.528  0.00  0.00    +0.000 C 
ATOM     16  C   UNL     1      -7.164  12.631  17.935  0.00  0.00    +0.000 C 
ENDBRANCH  13  16
ENDBRANCH   7  13
ENDBRANCH   1  10
BRANCH   3  17
ATOM     17  C   UNL     1       1.881   8.566  18.742  0.00  0.00    +0.000 A 
ATOM     18  C   UNL     1       2.700   8.608  17.607  0.00  0.00    +0.000 A 
ATOM     19  C   UNL     1       3.640   7.599  17.375  0.00  0.00    +0.000 A 
ATOM     20  C   UNL     1       3.794   6.531  18.275  0.00  0.00    +0.000 A 
ATOM     21  C   UNL     1       2.960   6.488  19.398  0.00  0.00    +0.000 A 
ATOM     22  C   UNL     1       2.030   7.500  19.634  0.00  0.00    +0.000 A 
BRANCH  20  23
ATOM     23  C   UNL     1       4.810   5.503  17.993  0.00  0.00    +0.000 C 
ATOM     24  C   UNL     1       5.438   5.331  16.813  0.00  0.00    +0.000 C 
BRANCH  24  25
ATOM     25  C   UNL     1       6.420   4.234  16.551  0.00  0.00    +0.000 C 
BRANCH  25  26
ATOM     26  O   UNL     1       6.808   4.311  15.181  0.00  0.00    +0.000 OA
BRANCH  26  27
ATOM     27  C   UNL     1       5.678   4.239  14.316  0.00  0.00    +0.000 C 
ATOM     28  C   UNL     1       6.110   3.629  12.996  0.00  0.00    +0.000 C 
ENDBRANCH  26  27
ENDBRANCH  25  26
ENDBRANCH  24  25
ENDBRANCH  20  23
ENDBRANCH   3  17
BRANCH   5  29
ATOM     29  C   UNL     1      -0.643  12.178  20.870  0.00  0.00    +0.000 A 
ATOM     30  C   UNL     1      -0.649  13.522  20.486  0.00  0.00    +0.000 A 
ATOM     31  C   UNL     1      -0.960  14.507  21.421  0.00  0.00    +0.000 A 
ATOM     32  C   UNL     1      -1.329  14.193  22.746  0.00  0.00    +0.000 A 
ATOM     33  C   UNL     1      -1.367  12.839  23.091  0.00  0.00    +0.000 A 
ATOM     34  C   UNL     1      -0.986  11.866  22.188  0.00  0.00    +0.000 A 
BRANCH  32  35
ATOM     35  N   UNL     1      -1.513  15.226  23.657  0.00  0.00    +0.000 N 
ATOM     36  H   UNL     1      -1.697  16.112  23.196  0.00  0.00    +0.000 HD
BRANCH  35  37
ATOM     37  C   UNL     1      -2.285  15.025  24.885  0.00  0.00    +0.000 C 
ATOM     38  C   UNL     1      -1.534  15.657  26.066  0.00  0.00    +0.000 C 
ATOM     39  C   UNL     1      -3.656  15.686  24.762  0.00  0.00    +0.000 C 
ENDBRANCH  35  37
ENDBRANCH  32  35
ENDBRANCH   5  29
TORSDOF 11
ENDMDL
MODEL 3
REMARK VINA RESULT:      -7.2      2.990      4.287
REMARK  Name = 
REMARK  15 active torsions:
REMARK  status: ('A' for Active; 'I' for Inactive)
REMARK    1  A    between atoms: C_1  and  C_2
REMARK    2  A    between atoms: C_2  and  N_3
REMARK    3  A    between atoms: N_3  and  C_4
REMARK    4  A    between atoms: C_7  and  C_8
REMARK    5  A    between atoms: C_10  and  C_11
REMARK    6  A    between atoms: C_14  and  C_15
REMARK    7  A    between atoms: C_16  and  C_17
REMARK    8  A    between atoms: C_17  and  O_18
REMARK    9  A    between atoms: O_18  and  C_19
REMARK   10  A    between atoms: C_19  and  C_20
REMARK   11  A    between atoms: C_24  and  C_25
REMARK   12  A    between atoms: C_28  and  N_29
REMARK   13  A    between atoms: N_29  and  C_30
REMARK   14  A    between atoms: C_30  and  C_31
REMARK   15  A    between atoms: C_30  and  C_32
REMARK                            x       y       z     vdW  Elec       q    Type
REMARK                         _______ _______ _______ _____ _____    ______ ____
ROOT
ATOM      1  C   UNL     1       0.427  12.741  20.274  0.00  0.00    +0.000 A 
ATOM      2  N   UNL     1       1.112  11.716  19.675  0.00  0.00    +0.000 N 
ATOM      3  C   UNL     1       0.828  10.534  20.302  0.00  0.00    +0.000 A 
ATOM      4  N   UNL     1       0.008  10.754  21.318  0.00  0.00    +0.000 NA
ATOM      5  C   UNL     1      -0.253  12.100  21.311  0.00  0.00    +0.000 A 
ATOM      6  H   UNL     1       1.718  11.813  18.863  0.00  0.00    +0.000 HD
ENDROOT
BRANCH   1  10
ATOM      7  C   UNL     1       0.727  16.843  19.104  0.00  0.00    +0.000 A 
ATOM      8  C   UNL     1      -0.458  16.123  18.925  0.00  0.00    +0.000 A 
ATOM      9  C   UNL     1      -0.574  14.798  19.316  0.00  0.00    +0.000 A 
ATOM     10  C   UNL     1       0.524  14.127  19.862  0.00  0.00    +0.000 A 
ATOM     11  C   UNL     1       1.718  14.846  20.011  0.00  0.00    +0.000 A 
ATOM     12  C   UNL     1       1.819  16.174  19.664  0.00  0.00    +0.000 A 
BRANCH   7  13
ATOM     13  N   UNL     1       0.786  18.140  18.607  0.00  0.00    +0.000 N 
ATOM     14  H   UNL     1       1.733  18.496  18.560  0.00  0.00    +0.000 HD
BRANCH  13  16
ATOM     15  C   UNL     1       0.735  18.496  16.198  0.00  0.00    +0.000 C 
ATOM     16  C   UNL     1      -0.067  18.528  17.490  0.00  0.00    +0.000 C 
ENDBRANCH  13  16
ENDBRANCH   7  13
ENDBRANCH   1  10
BRANCH   3  17
ATOM     17  C   UNL     1       1.305   9.240  19.852  0.00  0.00    +0.000 A 
ATOM     18  C   UNL     1       1.409   8.139  20.710  0.00  0.00    +0.000 A 
ATOM     19  C   UNL     1       1.897   6.917  20.238  0.00  0.00    +0.000 A 
ATOM     20  C   UNL     1       2.284   6.760  18.896  0.00  0.00    +0.000 A 
ATOM     21  C   UNL     1       2.193   7.871  18.049  0.00  0.00    +0.000 A 
ATOM     22  C   UNL     1       1.695   9.087  18.518  0.00  0.00    +0.000 A 
BRANCH  20  23
ATOM     23  C   UNL     1       2.776   5.448  18.445  0.00  0.00    +0.000 C 
ATOM     24  C   UNL     1       4.046   5.012  18.559  0.00  0.00    +0.000 C 
BRANCH  24  25
ATOM     25  C   UNL     1       4.518   3.695  18.030  0.00  0.00    +0.000 C 
BRANCH  25  26
ATOM     26  O   UNL     1       4.722   3.833  16.625  0.00  0.00    +0.000 OA
BRANCH  26  27
ATOM     27  C   UNL     1       5.892   4.597  16.343  0.00  0.00    +0.000 C 
ATOM     28  C   UNL     1       5.593   5.543  15.196  0.00  0.00    +0.000 C 
ENDBRANCH  26  27
ENDBRANCH  25  26
ENDBRANCH  24  25
ENDBRANCH  20  23
ENDBRANCH   3  17
BRANCH   5  29
ATOM     29  C   UNL     1      -1.155  12.723  22.254  0.00  0.00    +0.000 A 
ATOM     30  C   UNL     1      -2.445  12.221  22.448  0.00  0.00    +0.000 A 
ATOM     31  C   UNL     1      -3.309  12.860  23.334  0.00  0.00    +0.000 A 
ATOM     32  C   UNL     1      -2.911  13.979  24.095  0.00  0.00    +0.000 A 
ATOM     33  C   UNL     1      -1.599  14.430  23.922  0.00  0.00    +0.000 A 
ATOM     34  C   UNL     1      -0.765  13.845  22.989  0.00  0.00    +0.000 A 
BRANCH  32  35
ATOM     35  N   UNL     1      -3.856  14.637  24.870  0.00  0.00    +0.000 N 
ATOM     36  H   UNL     1      -3.554  14.740  25.834  0.00  0.00    +0.000 HD
BRANCH  35  37
ATOM     37  C   UNL     1      -4.589  15.795  24.353  0.00  0.00    +0.000 C 
ATOM     38  C   UNL     1      -4.122  17.061  25.085  0.00  0.00    +0.000 C 
ATOM     39  C   UNL     1      -4.324  15.964  22.858  0.00  0.00    +0.000 C 
ENDBRANCH  35  37
ENDBRANCH  32  35
ENDBRANCH   5  29
TORSDOF 11
ENDMDL
MODEL 4
REMARK VINA RESULT:      -7.1      0.727      4.813
REMARK  Name = 
REMARK  15 active torsions:
REMARK  status: ('A' for Active; 'I' for Inactive)
REMARK    1  A    between atoms: C_1  and  C_2
REMARK    2  A    between atoms: C_2  and  N_3
REMARK    3  A    between atoms: N_3  and  C_4
REMARK    4  A    between atoms: C_7  and  C_8
REMARK    5  A    between atoms: C_10  and  C_11
REMARK    6  A    between atoms: C_14  and  C_15
REMARK    7  A    between atoms: C_16  and  C_17
REMARK    8  A    between atoms: C_17  and  O_18
REMARK    9  A    between atoms: O_18  and  C_19
REMARK   10  A    between atoms: C_19  and  C_20
REMARK   11  A    between atoms: C_24  and  C_25
REMARK   12  A    between atoms: C_28  and  N_29
REMARK   13  A    between atoms: N_29  and  C_30
REMARK   14  A    between atoms: C_30  and  C_31
REMARK   15  A    between atoms: C_30  and  C_32
REMARK                            x       y       z     vdW  Elec       q    Type
REMARK                         _______ _______ _______ _____ _____    ______ ____
ROOT
ATOM      1  C   UNL     1      -0.109  10.762  20.174  0.00  0.00    +0.000 A 
ATOM      2  N   UNL     1       0.995   9.950  20.208  0.00  0.00    +0.000 N 
ATOM      3  C   UNL     1       0.973   9.085  19.150  0.00  0.00    +0.000 A 
ATOM      4  N   UNL     1      -0.130   9.274  18.441  0.00  0.00    +0.000 NA
ATOM      5  C   UNL     1      -0.801  10.303  19.051  0.00  0.00    +0.000 A 
ATOM      6  H   UNL     1       1.739  10.004  20.900  0.00  0.00    +0.000 HD
ENDROOT
BRANCH   1  10
ATOM      7  C   UNL     1      -1.005  13.752  23.097  0.00  0.00    +0.000 A 
ATOM      8  C   UNL     1      -0.192  14.035  21.995  0.00  0.00    +0.000 A 
ATOM      9  C   UNL     1       0.091  13.080  21.032  0.00  0.00    +0.000 A 
ATOM     10  C   UNL     1      -0.397  11.777  21.167  0.00  0.00    +0.000 A 
ATOM     11  C   UNL     1      -1.186  11.491  22.289  0.00  0.00    +0.000 A 
ATOM     12  C   UNL     1      -1.504  12.452  23.222  0.00  0.00    +0.000 A 
BRANCH   7  13
ATOM     13  N   UNL     1      -1.170  14.740  24.061  0.00  0.00    +0.000 N 
ATOM     14  H   UNL     1      -0.591  14.588  24.877  0.00  0.00    +0.000 HD
BRANCH  13  16
ATOM     15  C   UNL     1      -2.730  16.409  23.216  0.00  0.00    +0.000 C 
ATOM     16  C   UNL     1      -1.299  16.134  23.654  0.00  0.00    +0.000 C 
ENDBRANCH  13  16
ENDBRANCH   7  13
ENDBRANCH   1  10
BRANCH   3  17
ATOM     17  C   UNL     1       2.047   8.162  18.831  0.00  0.00    +0.000 A 
ATOM     18  C   UNL     1       2.848   8.308  17.693  0.00  0.00    +0.000 A 
ATOM     19  C   UNL     1       3.855   7.380  17.413  0.00  0.00    +0.000 A 
ATOM     20  C   UNL     1       4.096   6.291  18.267  0.00  0.00    +0.000 A 
ATOM     21  C   UNL     1       3.279   6.143  19.394  0.00  0.00    +0.000 A 
ATOM     22  C   UNL     1       2.281   7.075  19.679  0.00  0.00    +0.000 A 
BRANCH  20  23
ATOM     23  C   UNL     1       5.180   5.351  17.936  0.00  0.00    +0.000 C 
ATOM     24  C   UNL     1       6.240   5.631  17.152  0.00  0.00    +0.000 C 
BRANCH  24  25
ATOM     25  C   UNL     1       7.288   4.627  16.791  0.00  0.00    +0.000 C 
BRANCH  25  26
ATOM     26  O   UNL     1       7.362   4.564  15.368  0.00  0.00    +0.000 OA
BRANCH  26  27
ATOM     27  C   UNL     1       6.248   3.863  14.821  0.00  0.00    +0.000 C 
ATOM     28  C   UNL     1       6.341   3.903  13.308  0.00  0.00    +0.000 C 
ENDBRANCH  26  27
ENDBRANCH  25  26
ENDBRANCH  24  25
ENDBRANCH  20  23
ENDBRANCH   3  17
BRANCH   5  29
ATOM     29  C   UNL     1      -2.043  10.835  18.538  0.00  0.00    +0.000 A 
ATOM     30  C   UNL     1      -2.516  10.455  17.278  0.00  0.00    +0.000 A 
ATOM     31  C   UNL     1      -3.697  11.010  16.788  0.00  0.00    +0.000 A 
ATOM     32  C   UNL     1      -4.473  11.912  17.545  0.00  0.00    +0.000 A 
ATOM     33  C   UNL     1      -4.005  12.235  18.822  0.00  0.00    +0.000 A 
ATOM     34  C   UNL     1      -2.798  11.745  19.281  0.00  0.00    +0.000 A 
BRANCH  32  35
ATOM     35  N   UNL     1      -5.574  12.515  16.952  0.00  0.00    +0.000 N 
ATOM     36  H   UNL     1      -6.100  11.866  16.375  0.00  0.00    +0.000 HD
BRANCH  35  37
ATOM     37  C   UNL     1      -6.411  13.461  17.693  0.00  0.00    +0.000 C 
ATOM     38  C   UNL     1      -7.005  14.487  16.717  0.00  0.00    +0.000 C 
ATOM     39  C   UNL     1      -7.554  12.724  18.389  0.00  0.00    +0.000 C 
ENDBRANCH  35  37
ENDBRANCH  32  35
ENDBRANCH   5  29
TORSDOF 11
ENDMDL
MODEL 5
REMARK VINA RESULT:      -7.1      0.847      1.331
REMARK  Name = 
REMARK  15 active torsions:
REMARK  status: ('A' for Active; 'I' for Inactive)
REMARK    1  A    between atoms: C_1  and  C_2
REMARK    2  A    between atoms: C_2  and  N_3
REMARK    3  A    between atoms: N_3  and  C_4
REMARK    4  A    between atoms: C_7  and  C_8
REMARK    5  A    between atoms: C_10  and  C_11
REMARK    6  A    between atoms: C_14  and  C_15
REMARK    7  A    between atoms: C_16  and  C_17
REMARK    8  A    between atoms: C_17  and  O_18
REMARK    9  A    between atoms: O_18  and  C_19
REMARK   10  A    between atoms: C_19  and  C_20
REMARK   11  A    between atoms: C_24  and  C_25
REMARK   12  A    between atoms: C_28  and  N_29
REMARK   13  A    between atoms: N_29  and  C_30
REMARK   14  A    between atoms: C_30  and  C_31
REMARK   15  A    between atoms: C_30  and  C_32
REMARK                            x       y       z     vdW  Elec       q    Type
REMARK                         _______ _______ _______ _____ _____    ______ ____
ROOT
ATOM      1  C   UNL     1      -1.208  10.792  18.825  0.00  0.00    +0.000 A 
ATOM      2  N   UNL     1      -0.455   9.767  18.312  0.00  0.00    +0.000 N 
ATOM      3  C   UNL     1       0.740   9.689  18.971  0.00  0.00    +0.000 A 
ATOM      4  N   UNL     1       0.814  10.653  19.876  0.00  0.00    +0.000 NA
ATOM      5  C   UNL     1      -0.374  11.333  19.804  0.00  0.00    +0.000 A 
ATOM      6  H   UNL     1      -0.754   9.136  17.572  0.00  0.00    +0.000 HD
ENDROOT
BRANCH   1  10
ATOM      7  C   UNL     1      -5.063  11.888  17.335  0.00  0.00    +0.000 A 
ATOM      8  C   UNL     1      -4.693  12.158  18.656  0.00  0.00    +0.000 A 
ATOM      9  C   UNL     1      -3.440  11.823  19.146  0.00  0.00    +0.000 A 
ATOM     10  C   UNL     1      -2.522  11.154  18.332  0.00  0.00    +0.000 A 
ATOM     11  C   UNL     1      -2.910  10.860  17.018  0.00  0.00    +0.000 A 
ATOM     12  C   UNL     1      -4.137  11.233  16.518  0.00  0.00    +0.000 A 
BRANCH   7  13
ATOM     13  N   UNL     1      -6.366  12.179  16.948  0.00  0.00    +0.000 N 
ATOM     14  H   UNL     1      -6.935  11.348  16.840  0.00  0.00    +0.000 HD
BRANCH  13  16
ATOM     15  C   UNL     1      -6.835  14.553  16.671  0.00  0.00    +0.000 C 
ATOM     16  C   UNL     1      -7.059  13.320  17.534  0.00  0.00    +0.000 C 
ENDBRANCH  13  16
ENDBRANCH   7  13
ENDBRANCH   1  10
BRANCH   3  17
ATOM     17  C   UNL     1       1.726   8.648  18.746  0.00  0.00    +0.000 A 
ATOM     18  C   UNL     1       1.917   7.590  19.643  0.00  0.00    +0.000 A 
ATOM     19  C   UNL     1       2.897   6.623  19.397  0.00  0.00    +0.000 A 
ATOM     20  C   UNL     1       3.702   6.682  18.247  0.00  0.00    +0.000 A 
ATOM     21  C   UNL     1       3.515   7.752  17.365  0.00  0.00    +0.000 A 
ATOM     22  C   UNL     1       2.530   8.711  17.605  0.00  0.00    +0.000 A 
BRANCH  20  23
ATOM     23  C   UNL     1       4.707   5.630  18.026  0.00  0.00    +0.000 C 
ATOM     24  C   UNL     1       5.462   5.494  16.918  0.00  0.00    +0.000 C 
BRANCH  24  25
ATOM     25  C   UNL     1       6.429   4.373  16.708  0.00  0.00    +0.000 C 
BRANCH  25  26
ATOM     26  O   UNL     1       5.941   3.566  15.638  0.00  0.00    +0.000 OA
BRANCH  26  27
ATOM     27  C   UNL     1       5.574   4.361  14.514  0.00  0.00    +0.000 C 
ATOM     28  C   UNL     1       6.197   3.763  13.268  0.00  0.00    +0.000 C 
ENDBRANCH  26  27
ENDBRANCH  25  26
ENDBRANCH  24  25
ENDBRANCH  20  23
ENDBRANCH   3  17
BRANCH   5  29
ATOM     29  C   UNL     1      -0.691  12.440  20.679  0.00  0.00    +0.000 A 
ATOM     30  C   UNL     1      -1.086  12.216  22.001  0.00  0.00    +0.000 A 
ATOM     31  C   UNL     1      -1.424  13.296  22.814  0.00  0.00    +0.000 A 
ATOM     32  C   UNL     1      -1.329  14.629  22.366  0.00  0.00    +0.000 A 
ATOM     33  C   UNL     1      -0.881  14.831  21.057  0.00  0.00    +0.000 A 
ATOM     34  C   UNL     1      -0.618  13.759  20.226  0.00  0.00    +0.000 A 
BRANCH  32  35
ATOM     35  N   UNL     1      -1.791  15.650  23.188  0.00  0.00    +0.000 N 
ATOM     36  H   UNL     1      -1.239  16.497  23.090  0.00  0.00    +0.000 HD
BRANCH  35  37
ATOM     37  C   UNL     1      -3.225  15.894  23.361  0.00  0.00    +0.000 C 
ATOM     38  C   UNL     1      -3.988  15.315  22.161  0.00  0.00    +0.000 C 
ATOM     39  C   UNL     1      -3.727  15.220  24.636  0.00  0.00    +0.000 C 
ENDBRANCH  35  37
ENDBRANCH  32  35
ENDBRANCH   5  29
TORSDOF 11
ENDMDL
MODEL 6
REMARK VINA RESULT:      -7.1      0.643      1.189
REMARK  Name = 
REMARK  15 active torsions:
REMARK  status: ('A' for Active; 'I' for Inactive)
REMARK    1  A    between atoms: C_1  and  C_2
REMARK    2  A    between atoms: C_2  and  N_3
REMARK    3  A    between atoms: N_3  and  C_4
REMARK    4  A    between atoms: C_7  and  C_8
REMARK    5  A    between atoms: C_10  and  C_11
REMARK    6  A    between atoms: C_14  and  C_15
REMARK    7  A    between atoms: C_16  and  C_17
REMARK    8  A    between atoms: C_17  and  O_18
REMARK    9  A    between atoms: O_18  and  C_19
REMARK   10  A    between atoms: C_19  and  C_20
REMARK   11  A    between atoms: C_24  and  C_25
REMARK   12  A    between atoms: C_28  and  N_29
REMARK   13  A    between atoms: N_29  and  C_30
REMARK   14  A    between atoms: C_30  and  C_31
REMARK   15  A    between atoms: C_30  and  C_32
REMARK                            x       y       z     vdW  Elec       q    Type
REMARK                         _______ _______ _______ _____ _____    ______ ____
ROOT
ATOM      1  C   UNL     1      -0.749  10.264  18.679  0.00  0.00    +0.000 A 
ATOM      2  N   UNL     1       0.039   9.347  18.033  0.00  0.00    +0.000 N 
ATOM      3  C   UNL     1       1.202   9.159  18.727  0.00  0.00    +0.000 A 
ATOM      4  N   UNL     1       1.222   9.951  19.788  0.00  0.00    +0.000 NA
ATOM      5  C   UNL     1       0.031  10.630  19.777  0.00  0.00    +0.000 A 
ATOM      6  H   UNL     1      -0.216   8.853  17.180  0.00  0.00    +0.000 HD
ENDROOT
BRANCH   1  10
ATOM      7  C   UNL     1      -4.585  11.537  17.279  0.00  0.00    +0.000 A 
ATOM      8  C   UNL     1      -3.741  10.760  16.479  0.00  0.00    +0.000 A 
ATOM      9  C   UNL     1      -2.504  10.327  16.927  0.00  0.00    +0.000 A 
ATOM     10  C   UNL     1      -2.042  10.703  18.191  0.00  0.00    +0.000 A 
ATOM     11  C   UNL     1      -2.879  11.507  18.977  0.00  0.00    +0.000 A 
ATOM     12  C   UNL     1      -4.127  11.899  18.550  0.00  0.00    +0.000 A 
BRANCH   7  13
ATOM     13  N   UNL     1      -5.771  12.001  16.724  0.00  0.00    +0.000 N 
ATOM     14  H   UNL     1      -6.409  11.252  16.486  0.00  0.00    +0.000 HD
BRANCH  13  16
ATOM     15  C   UNL     1      -7.539  12.789  18.204  0.00  0.00    +0.000 C 
ATOM     16  C   UNL     1      -6.408  13.194  17.269  0.00  0.00    +0.000 C 
ENDBRANCH  13  16
ENDBRANCH   7  13
ENDBRANCH   1  10
BRANCH   3  17
ATOM     17  C   UNL     1       2.210   8.176  18.373  0.00  0.00    +0.000 A 
ATOM     18  C   UNL     1       3.181   8.417  17.393  0.00  0.00    +0.000 A 
ATOM     19  C   UNL     1       4.118   7.431  17.069  0.00  0.00    +0.000 A 
ATOM     20  C   UNL     1       4.116   6.186  17.721  0.00  0.00    +0.000 A 
ATOM     21  C   UNL     1       3.132   5.948  18.687  0.00  0.00    +0.000 A 
ATOM     22  C   UNL     1       2.204   6.937  19.018  0.00  0.00    +0.000 A 
BRANCH  20  23
ATOM     23  C   UNL     1       5.135   5.189  17.354  0.00  0.00    +0.000 C 
ATOM     24  C   UNL     1       5.725   5.087  16.146  0.00  0.00    +0.000 C 
BRANCH  24  25
ATOM     25  C   UNL     1       6.711   4.017  15.796  0.00  0.00    +0.000 C 
BRANCH  25  26
ATOM     26  O   UNL     1       7.037   4.157  14.415  0.00  0.00    +0.000 OA
BRANCH  26  27
ATOM     27  C   UNL     1       5.897   3.942  13.587  0.00  0.00    +0.000 C 
ATOM     28  C   UNL     1       6.357   3.371  12.260  0.00  0.00    +0.000 C 
ENDBRANCH  26  27
ENDBRANCH  25  26
ENDBRANCH  24  25
ENDBRANCH  20  23
ENDBRANCH   3  17
BRANCH   5  29
ATOM     29  C   UNL     1      -0.341  11.567  20.813  0.00  0.00    +0.000 A 
ATOM     30  C   UNL     1      -0.901  11.119  22.013  0.00  0.00    +0.000 A 
ATOM     31  C   UNL     1      -1.286  12.043  22.983  0.00  0.00    +0.000 A 
ATOM     32  C   UNL     1      -1.082  13.429  22.821  0.00  0.00    +0.000 A 
ATOM     33  C   UNL     1      -0.473  13.847  21.634  0.00  0.00    +0.000 A 
ATOM     34  C   UNL     1      -0.158  12.941  20.641  0.00  0.00    +0.000 A 
BRANCH  32  35
ATOM     35  N   UNL     1      -1.595  14.301  23.773  0.00  0.00    +0.000 N 
ATOM     36  H   UNL     1      -0.949  15.054  23.986  0.00  0.00    +0.000 HD
BRANCH  35  37
ATOM     37  C   UNL     1      -2.999  14.714  23.744  0.00  0.00    +0.000 C 
ATOM     38  C   UNL     1      -3.586  14.427  22.355  0.00  0.00    +0.000 C 
ATOM     39  C   UNL     1      -3.801  13.940  24.788  0.00  0.00    +0.000 C 
ENDBRANCH  35  37
ENDBRANCH  32  35
ENDBRANCH   5  29
TORSDOF 11
ENDMDL
MODEL 7
REMARK VINA RESULT:      -7.1      8.529     12.218
REMARK  Name = 
REMARK  15 active torsions:
REMARK  status: ('A' for Active; 'I' for Inactive)
REMARK    1  A    between atoms: C_1  and  C_2
REMARK    2  A    between atoms: C_2  and  N_3
REMARK    3  A    between atoms: N_3  and  C_4
REMARK    4  A    between atoms: C_7  and  C_8
REMARK    5  A    between atoms: C_10  and  C_11
REMARK    6  A    between atoms: C_14  and  C_15
REMARK    7  A    between atoms: C_16  and  C_17
REMARK    8  A    between atoms: C_17  and  O_18
REMARK    9  A    between atoms: O_18  and  C_19
REMARK   10  A    between atoms: C_19  and  C_20
REMARK   11  A    between atoms: C_24  and  C_25
REMARK   12  A    between atoms: C_28  and  N_29
REMARK   13  A    between atoms: N_29  and  C_30
REMARK   14  A    between atoms: C_30  and  C_31
REMARK   15  A    between atoms: C_30  and  C_32
REMARK                            x       y       z     vdW  Elec       q    Type
REMARK                         _______ _______ _______ _____ _____    ______ ____
ROOT
ATOM      1  C   UNL     1       6.193   6.280  17.649  0.00  0.00    +0.000 A 
ATOM      2  N   UNL     1       6.670   7.317  18.408  0.00  0.00    +0.000 N 
ATOM      3  C   UNL     1       7.665   7.970  17.735  0.00  0.00    +0.000 A 
ATOM      4  N   UNL     1       7.885   7.373  16.574  0.00  0.00    +0.000 NA
ATOM      5  C   UNL     1       6.988   6.339  16.503  0.00  0.00    +0.000 A 
ATOM      6  H   UNL     1       6.315   7.584  19.323  0.00  0.00    +0.000 HD
ENDROOT
BRANCH   1  10
ATOM      7  C   UNL     1       3.087   3.648  18.957  0.00  0.00    +0.000 A 
ATOM      8  C   UNL     1       4.433   3.358  19.199  0.00  0.00    +0.000 A 
ATOM      9  C   UNL     1       5.448   4.211  18.796  0.00  0.00    +0.000 A 
ATOM     10  C   UNL     1       5.147   5.375  18.084  0.00  0.00    +0.000 A 
ATOM     11  C   UNL     1       3.798   5.645  17.816  0.00  0.00    +0.000 A 
ATOM     12  C   UNL     1       2.788   4.820  18.257  0.00  0.00    +0.000 A 
BRANCH   7  13
ATOM     13  N   UNL     1       2.137   2.699  19.318  0.00  0.00    +0.000 N 
ATOM     14  H   UNL     1       2.536   1.777  19.445  0.00  0.00    +0.000 HD
BRANCH  13  16
ATOM     15  C   UNL     1       1.590   2.804  21.689  0.00  0.00    +0.000 C 
ATOM     16  C   UNL     1       1.091   3.048  20.272  0.00  0.00    +0.000 C 
ENDBRANCH  13  16
ENDBRANCH   7  13
ENDBRANCH   1  10
BRANCH   3  17
ATOM     17  C   UNL     1       8.311   9.180  18.211  0.00  0.00    +0.000 A 
ATOM     18  C   UNL     1       9.046   9.218  19.402  0.00  0.00    +0.000 A 
ATOM     19  C   UNL     1       9.630  10.413  19.834  0.00  0.00    +0.000 A 
ATOM     20  C   UNL     1       9.505  11.594  19.084  0.00  0.00    +0.000 A 
ATOM     21  C   UNL     1       8.755  11.550  17.903  0.00  0.00    +0.000 A 
ATOM     22  C   UNL     1       8.181  10.355  17.467  0.00  0.00    +0.000 A 
BRANCH  20  23
ATOM     23  C   UNL     1      10.154  12.822  19.574  0.00  0.00    +0.000 C 
ATOM     24  C   UNL     1      11.234  13.406  19.019  0.00  0.00    +0.000 C 
BRANCH  24  25
ATOM     25  C   UNL     1      11.900  14.619  19.586  0.00  0.00    +0.000 C 
BRANCH  25  26
ATOM     26  O   UNL     1      10.887  15.459  20.136  0.00  0.00    +0.000 OA
BRANCH  26  27
ATOM     27  C   UNL     1      10.795  16.692  19.428  0.00  0.00    +0.000 C 
ATOM     28  C   UNL     1       9.683  16.585  18.403  0.00  0.00    +0.000 C 
ENDBRANCH  26  27
ENDBRANCH  25  26
ENDBRANCH  24  25
ENDBRANCH  20  23
ENDBRANCH   3  17
BRANCH   5  29
ATOM     29  C   UNL     1       6.888   5.472  15.350  0.00  0.00    +0.000 A 
ATOM     30  C   UNL     1       7.761   5.619  14.268  0.00  0.00    +0.000 A 
ATOM     31  C   UNL     1       7.622   4.797  13.151  0.00  0.00    +0.000 A 
ATOM     32  C   UNL     1       6.656   3.772  13.091  0.00  0.00    +0.000 A 
ATOM     33  C   UNL     1       5.830   3.610  14.207  0.00  0.00    +0.000 A 
ATOM     34  C   UNL     1       5.916   4.472  15.284  0.00  0.00    +0.000 A 
BRANCH  32  35
ATOM     35  N   UNL     1       6.495   3.067  11.905  0.00  0.00    +0.000 N 
ATOM     36  H   UNL     1       7.380   2.735  11.535  0.00  0.00    +0.000 HD
BRANCH  35  37
ATOM     37  C   UNL     1       5.389   2.124  11.727  0.00  0.00    +0.000 C 
ATOM     38  C   UNL     1       4.223   2.835  11.025  0.00  0.00    +0.000 C 
ATOM     39  C   UNL     1       5.833   0.941  10.869  0.00  0.00    +0.000 C 
ENDBRANCH  35  37
ENDBRANCH  32  35
ENDBRANCH   5  29
TORSDOF 11
ENDMDL
MODEL 8
REMARK VINA RESULT:      -7.0      1.252      1.981
REMARK  Name = 
REMARK  15 active torsions:
REMARK  status: ('A' for Active; 'I' for Inactive)
REMARK    1  A    between atoms: C_1  and  C_2
REMARK    2  A    between atoms: C_2  and  N_3
REMARK    3  A    between atoms: N_3  and  C_4
REMARK    4  A    between atoms: C_7  and  C_8
REMARK    5  A    between atoms: C_10  and  C_11
REMARK    6  A    between atoms: C_14  and  C_15
REMARK    7  A    between atoms: C_16  and  C_17
REMARK    8  A    between atoms: C_17  and  O_18
REMARK    9  A    between atoms: O_18  and  C_19
REMARK   10  A    between atoms: C_19  and  C_20
REMARK   11  A    between atoms: C_24  and  C_25
REMARK   12  A    between atoms: C_28  and  N_29
REMARK   13  A    between atoms: N_29  and  C_30
REMARK   14  A    between atoms: C_30  and  C_31
REMARK   15  A    between atoms: C_30  and  C_32
REMARK                            x       y       z     vdW  Elec       q    Type
REMARK                         _______ _______ _______ _____ _____    ______ ____
ROOT
ATOM      1  C   UNL     1      -1.636  11.125  18.928  0.00  0.00    +0.000 A 
ATOM      2  N   UNL     1      -0.896  10.071  18.460  0.00  0.00    +0.000 N 
ATOM      3  C   UNL     1       0.308  10.020  19.105  0.00  0.00    +0.000 A 
ATOM      4  N   UNL     1       0.401  11.031  19.956  0.00  0.00    +0.000 NA
ATOM      5  C   UNL     1      -0.784  11.714  19.865  0.00  0.00    +0.000 A 
ATOM      6  H   UNL     1      -1.208   9.403  17.758  0.00  0.00    +0.000 HD
ENDROOT
BRANCH   1  10
ATOM      7  C   UNL     1      -5.546  12.110  17.505  0.00  0.00    +0.000 A 
ATOM      8  C   UNL     1      -4.574  11.584  16.649  0.00  0.00    +0.000 A 
ATOM      9  C   UNL     1      -3.309  11.244  17.102  0.00  0.00    +0.000 A 
ATOM     10  C   UNL     1      -2.955  11.469  18.435  0.00  0.00    +0.000 A 
ATOM     11  C   UNL     1      -3.923  12.025  19.281  0.00  0.00    +0.000 A 
ATOM     12  C   UNL     1      -5.194  12.320  18.842  0.00  0.00    +0.000 A 
BRANCH   7  13
ATOM     13  N   UNL     1      -6.761  12.503  16.955  0.00  0.00    +0.000 N 
ATOM     14  H   UNL     1      -7.399  11.727  16.825  0.00  0.00    +0.000 HD
BRANCH  13  16
ATOM     15  C   UNL     1      -6.984  14.880  16.472  0.00  0.00    +0.000 C 
ATOM     16  C   UNL     1      -7.389  13.742  17.398  0.00  0.00    +0.000 C 
ENDBRANCH  13  16
ENDBRANCH   7  13
ENDBRANCH   1  10
BRANCH   3  17
ATOM     17  C   UNL     1       1.286   8.963  18.922  0.00  0.00    +0.000 A 
ATOM     18  C   UNL     1       1.560   8.015  19.915  0.00  0.00    +0.000 A 
ATOM     19  C   UNL     1       2.528   7.029  19.704  0.00  0.00    +0.000 A 
ATOM     20  C   UNL     1       3.239   6.958  18.493  0.00  0.00    +0.000 A 
ATOM     21  C   UNL     1       2.970   7.919  17.512  0.00  0.00    +0.000 A 
ATOM     22  C   UNL     1       1.996   8.897  17.720  0.00  0.00    +0.000 A 
BRANCH  20  23
ATOM     23  C   UNL     1       4.236   5.890  18.314  0.00  0.00    +0.000 C 
ATOM     24  C   UNL     1       4.289   5.041  17.268  0.00  0.00    +0.000 C 
BRANCH  24  25
ATOM     25  C   UNL     1       5.283   3.929  17.156  0.00  0.00    +0.000 C 
BRANCH  25  26
ATOM     26  O   UNL     1       6.189   4.255  16.104  0.00  0.00    +0.000 OA
BRANCH  26  27
ATOM     27  C   UNL     1       5.496   4.542  14.892  0.00  0.00    +0.000 C 
ATOM     28  C   UNL     1       6.251   3.914  13.737  0.00  0.00    +0.000 C 
ENDBRANCH  26  27
ENDBRANCH  25  26
ENDBRANCH  24  25
ENDBRANCH  20  23
ENDBRANCH   3  17
BRANCH   5  29
ATOM     29  C   UNL     1      -1.083  12.867  20.684  0.00  0.00    +0.000 A 
ATOM     30  C   UNL     1      -1.028  14.157  20.148  0.00  0.00    +0.000 A 
ATOM     31  C   UNL     1      -1.283  15.256  20.966  0.00  0.00    +0.000 A 
ATOM     32  C   UNL     1      -1.653  15.114  22.319  0.00  0.00    +0.000 A 
ATOM     33  C   UNL     1      -1.753  13.812  22.818  0.00  0.00    +0.000 A 
ATOM     34  C   UNL     1      -1.427  12.724  22.030  0.00  0.00    +0.000 A 
BRANCH  32  35
ATOM     35  N   UNL     1      -1.779  16.252  23.106  0.00  0.00    +0.000 N 
ATOM     36  H   UNL     1      -1.269  17.040  22.720  0.00  0.00    +0.000 HD
BRANCH  35  37
ATOM     37  C   UNL     1      -3.061  16.616  23.713  0.00  0.00    +0.000 C 
ATOM     38  C   UNL     1      -2.975  18.047  24.262  0.00  0.00    +0.000 C 
ATOM     39  C   UNL     1      -4.177  16.553  22.673  0.00  0.00    +0.000 C 
ENDBRANCH  35  37
ENDBRANCH  32  35
ENDBRANCH   5  29
TORSDOF 11
ENDMDL
MODEL 9
REMARK VINA RESULT:      -7.0      2.712      4.323
REMARK  Name = 
REMARK  15 active torsions:
REMARK  status: ('A' for Active; 'I' for Inactive)
REMARK    1  A    between atoms: C_1  and  C_2
REMARK    2  A    between atoms: C_2  and  N_3
REMARK    3  A    between atoms: N_3  and  C_4
REMARK    4  A    between atoms: C_7  and  C_8
REMARK    5  A    between atoms: C_10  and  C_11
REMARK    6  A    between atoms: C_14  and  C_15
REMARK    7  A    between atoms: C_16  and  C_17
REMARK    8  A    between atoms: C_17  and  O_18
REMARK    9  A    between atoms: O_18  and  C_19
REMARK   10  A    between atoms: C_19  and  C_20
REMARK   11  A    between atoms: C_24  and  C_25
REMARK   12  A    between atoms: C_28  and  N_29
REMARK   13  A    between atoms: N_29  and  C_30
REMARK   14  A    between atoms: C_30  and  C_31
REMARK   15  A    between atoms: C_30  and  C_32
REMARK                            x       y       z     vdW  Elec       q    Type
REMARK                         _______ _______ _______ _____ _____    ______ ____
ROOT
ATOM      1  C   UNL     1       0.303  12.423  19.808  0.00  0.00    +0.000 A 
ATOM      2  N   UNL     1       1.200  11.508  19.320  0.00  0.00    +0.000 N 
ATOM      3  C   UNL     1       0.886  10.257  19.772  0.00  0.00    +0.000 A 
ATOM      4  N   UNL     1      -0.167  10.324  20.573  0.00  0.00    +0.000 NA
ATOM      5  C   UNL     1      -0.540  11.643  20.600  0.00  0.00    +0.000 A 
ATOM      6  H   UNL     1       1.969  11.722  18.688  0.00  0.00    +0.000 HD
ENDROOT
BRANCH   1  10
ATOM      7  C   UNL     1       0.527  16.623  19.033  0.00  0.00    +0.000 A 
ATOM      8  C   UNL     1      -0.697  15.996  19.287  0.00  0.00    +0.000 A 
ATOM      9  C   UNL     1      -0.781  14.640  19.556  0.00  0.00    +0.000 A 
ATOM     10  C   UNL     1       0.369  13.845  19.532  0.00  0.00    +0.000 A 
ATOM     11  C   UNL     1       1.589  14.473  19.248  0.00  0.00    +0.000 A 
ATOM     12  C   UNL     1       1.678  15.828  19.025  0.00  0.00    +0.000 A 
BRANCH   7  13
ATOM     13  N   UNL     1       0.515  17.969  18.688  0.00  0.00    +0.000 N 
ATOM     14  H   UNL     1       0.612  18.578  19.492  0.00  0.00    +0.000 HD
BRANCH  13  16
ATOM     15  C   UNL     1       0.231  18.630  16.361  0.00  0.00    +0.000 C 
ATOM     16  C   UNL     1       1.223  18.417  17.495  0.00  0.00    +0.000 C 
ENDBRANCH  13  16
ENDBRANCH   7  13
ENDBRANCH   1  10
BRANCH   3  17
ATOM     17  C   UNL     1       1.571   9.047  19.359  0.00  0.00    +0.000 A 
ATOM     18  C   UNL     1       1.699   7.934  20.199  0.00  0.00    +0.000 A 
ATOM     19  C   UNL     1       2.389   6.797  19.766  0.00  0.00    +0.000 A 
ATOM     20  C   UNL     1       2.959   6.739  18.483  0.00  0.00    +0.000 A 
ATOM     21  C   UNL     1       2.840   7.862  17.656  0.00  0.00    +0.000 A 
ATOM     22  C   UNL     1       2.141   8.992  18.084  0.00  0.00    +0.000 A 
BRANCH  20  23
ATOM     23  C   UNL     1       3.661   5.513  18.070  0.00  0.00    +0.000 C 
ATOM     24  C   UNL     1       4.393   5.375  16.946  0.00  0.00    +0.000 C 
BRANCH  24  25
ATOM     25  C   UNL     1       5.039   4.092  16.533  0.00  0.00    +0.000 C 
BRANCH  25  26
ATOM     26  O   UNL     1       6.271   3.972  17.241  0.00  0.00    +0.000 OA
BRANCH  26  27
ATOM     27  C   UNL     1       7.053   5.158  17.126  0.00  0.00    +0.000 C 
ATOM     28  C   UNL     1       7.630   5.498  18.486  0.00  0.00    +0.000 C 
ENDBRANCH  26  27
ENDBRANCH  25  26
ENDBRANCH  24  25
ENDBRANCH  20  23
ENDBRANCH   3  17
BRANCH   5  29
ATOM     29  C   UNL     1      -1.691  12.111  21.339  0.00  0.00    +0.000 A 
ATOM     30  C   UNL     1      -2.849  12.522  20.673  0.00  0.00    +0.000 A 
ATOM     31  C   UNL     1      -3.933  13.005  21.404  0.00  0.00    +0.000 A 
ATOM     32  C   UNL     1      -3.927  13.047  22.813  0.00  0.00    +0.000 A 
ATOM     33  C   UNL     1      -2.777  12.582  23.459  0.00  0.00    +0.000 A 
ATOM     34  C   UNL     1      -1.674  12.173  22.734  0.00  0.00    +0.000 A 
BRANCH  32  35
ATOM     35  N   UNL     1      -4.991  13.647  23.474  0.00  0.00    +0.000 N 
ATOM     36  H   UNL     1      -5.129  13.263  24.403  0.00  0.00    +0.000 HD
BRANCH  35  37
ATOM     37  C   UNL     1      -5.217  15.092  23.392  0.00  0.00    +0.000 C 
ATOM     38  C   UNL     1      -6.674  15.401  23.765  0.00  0.00    +0.000 C 
ATOM     39  C   UNL     1      -4.293  15.829  24.360  0.00  0.00    +0.000 C 
ENDBRANCH  35  37
ENDBRANCH  32  35
ENDBRANCH   5  29
TORSDOF 11
ENDMDL
