MODEL 1
REMARK VINA RESULT:      -8.9      0.000      0.000
REMARK  Name = 
REMARK  5 active torsions:
REMARK  status: ('A' for Active; 'I' for Inactive)
REMARK    1  A    between atoms: C_1  and  C_2
REMARK    2  A    between atoms: C_5  and  C_6
REMARK    3  A    between atoms: C_7  and  C_8
REMARK    4  A    between atoms: N_16  and  C_17
REMARK    5  A    between atoms: C_17  and  C_18
REMARK                            x       y       z     vdW  Elec       q    Type
REMARK                         _______ _______ _______ _____ _____    ______ ____
ROOT
ATOM      1  C   UNL     1       4.885   4.486  17.320  0.00  0.00    +0.000 A 
ATOM      2  C   UNL     1       4.611   3.119  17.360  0.00  0.00    +0.000 A 
ATOM      3  C   UNL     1       3.577   2.625  18.165  0.00  0.00    +0.000 A 
ATOM      4  C   UNL     1       2.781   3.462  18.932  0.00  0.00    +0.000 A 
ATOM      5  N   UNL     1       1.803   2.916  19.658  0.00  0.00    +0.000 NA
ATOM      6  C   UNL     1       1.079   3.753  20.407  0.00  0.00    +0.000 A 
ATOM      7  N   UNL     1       1.247   5.077  20.500  0.00  0.00    +0.000 NA
ATOM      8  C   UNL     1       2.224   5.624  19.754  0.00  0.00    +0.000 A 
ATOM      9  N   UNL     1       2.430   7.020  19.830  0.00  0.00    +0.000 N 
ATOM     10  C   UNL     1       3.043   4.840  18.918  0.00  0.00    +0.000 A 
ATOM     11  C   UNL     1       4.105   5.335  18.115  0.00  0.00    +0.000 A 
ATOM     12  H   UNL     1       2.261   7.446  18.926  0.00  0.00    +0.000 HD
ENDROOT
BRANCH   1  19
ATOM     13  C   UNL     1       5.453   4.025  14.083  0.00  0.00    +0.000 C 
ATOM     14  C   UNL     1       6.181   4.854  15.072  0.00  0.00    +0.000 A 
ATOM     15  N   UNL     1       7.259   5.540  14.675  0.00  0.00    +0.000 NA
ATOM     16  O   UNL     1       7.748   6.160  15.804  0.00  0.00    +0.000 OA
ATOM     17  C   UNL     1       6.968   5.852  16.875  0.00  0.00    +0.000 A 
ATOM     18  C   UNL     1       7.403   6.458  18.149  0.00  0.00    +0.000 C 
ATOM     19  C   UNL     1       5.934   5.028  16.468  0.00  0.00    +0.000 A 
ENDBRANCH   1  19
BRANCH   9  20
ATOM     20  C   UNL     1       1.695   7.686  20.906  0.00  0.00    +0.000 C 
BRANCH  20  21
ATOM     21  C   UNL     1       0.910   8.899  20.476  0.00  0.00    +0.000 A 
ATOM     22  C   UNL     1      -0.011   9.619  21.212  0.00  0.00    +0.000 A 
ATOM     23  C   UNL     1      -0.488  10.769  20.517  0.00  0.00    +0.000 A 
ATOM     24  C   UNL     1       0.070  10.876  19.263  0.00  0.00    +0.000 A 
ATOM     25  S   UNL     1       1.148   9.591  18.926  0.00  0.00    +0.000 S 
ENDBRANCH  20  21
ENDBRANCH   9  20
TORSDOF 3
ENDMDL
MODEL 2
REMARK VINA RESULT:      -8.5      0.835      1.878
REMARK  Name = 
REMARK  5 active torsions:
REMARK  status: ('A' for Active; 'I' for Inactive)
REMARK    1  A    between atoms: C_1  and  C_2
REMARK    2  A    between atoms: C_5  and  C_6
REMARK    3  A    between atoms: C_7  and  C_8
REMARK    4  A    between atoms: N_16  and  C_17
REMARK    5  A    between atoms: C_17  and  C_18
REMARK                            x       y       z     vdW  Elec       q    Type
REMARK                         _______ _______ _______ _____ _____    ______ ____
ROOT
ATOM      1  C   UNL     1       4.708   4.379  17.301  0.00  0.00    +0.000 A 
ATOM      2  C   UNL     1       4.376   3.024  17.274  0.00  0.00    +0.000 A 
ATOM      3  C   UNL     1       3.324   2.535  18.058  0.00  0.00    +0.000 A 
ATOM      4  C   UNL     1       2.566   3.364  18.870  0.00  0.00    +0.000 A 
ATOM      5  N   UNL     1       1.568   2.824  19.572  0.00  0.00    +0.000 NA
ATOM      6  C   UNL     1       0.882   3.653  20.365  0.00  0.00    +0.000 A 
ATOM      7  N   UNL     1       1.106   4.962  20.523  0.00  0.00    +0.000 NA
ATOM      8  C   UNL     1       2.102   5.504  19.801  0.00  0.00    +0.000 A 
ATOM      9  N   UNL     1       2.367   6.884  19.946  0.00  0.00    +0.000 N 
ATOM     10  C   UNL     1       2.886   4.730  18.923  0.00  0.00    +0.000 A 
ATOM     11  C   UNL     1       3.965   5.219  18.140  0.00  0.00    +0.000 A 
ATOM     12  H   UNL     1       2.214   7.362  19.064  0.00  0.00    +0.000 HD
ENDROOT
BRANCH   1  19
ATOM     13  C   UNL     1       7.291   6.290  18.131  0.00  0.00    +0.000 C 
ATOM     14  C   UNL     1       6.903   5.726  16.817  0.00  0.00    +0.000 A 
ATOM     15  N   UNL     1       7.654   6.003  15.745  0.00  0.00    +0.000 NA
ATOM     16  O   UNL     1       7.027   5.399  14.678  0.00  0.00    +0.000 OA
ATOM     17  C   UNL     1       5.904   4.759  15.104  0.00  0.00    +0.000 A 
ATOM     18  C   UNL     1       5.142   4.078  14.039  0.00  0.00    +0.000 C 
ATOM     19  C   UNL     1       5.776   4.919  16.472  0.00  0.00    +0.000 A 
ENDBRANCH   1  19
BRANCH   9  20
ATOM     20  C   UNL     1       1.664   7.526  21.057  0.00  0.00    +0.000 C 
BRANCH  20  21
ATOM     21  C   UNL     1       0.955   8.808  20.698  0.00  0.00    +0.000 A 
ATOM     22  C   UNL     1       0.991   9.491  19.498  0.00  0.00    +0.000 A 
ATOM     23  C   UNL     1       0.119  10.618  19.484  0.00  0.00    +0.000 A 
ATOM     24  C   UNL     1      -0.538  10.771  20.684  0.00  0.00    +0.000 A 
ATOM     25  S   UNL     1      -0.093   9.571  21.819  0.00  0.00    +0.000 S 
ENDBRANCH  20  21
ENDBRANCH   9  20
TORSDOF 3
ENDMDL
MODEL 3
REMARK VINA RESULT:      -7.8      1.145      1.304
REMARK  Name = 
REMARK  5 active torsions:
REMARK  status: ('A' for Active; 'I' for Inactive)
REMARK    1  A    between atoms: C_1  and  C_2
REMARK    2  A    between atoms: C_5  and  C_6
REMARK    3  A    between atoms: C_7  and  C_8
REMARK    4  A    between atoms: N_16  and  C_17
REMARK    5  A    between atoms: C_17  and  C_18
REMARK                            x       y       z     vdW  Elec       q    Type
REMARK                         _______ _______ _______ _____ _____    ______ ____
ROOT
ATOM      1  C   UNL     1       5.399   4.910  17.936  0.00  0.00    +0.000 A 
ATOM      2  C   UNL     1       5.461   3.609  18.436  0.00  0.00    +0.000 A 
ATOM      3  C   UNL     1       4.529   3.168  19.385  0.00  0.00    +0.000 A 
ATOM      4  C   UNL     1       3.510   3.986  19.848  0.00  0.00    +0.000 A 
ATOM      5  N   UNL     1       2.651   3.485  20.738  0.00  0.00    +0.000 NA
ATOM      6  C   UNL     1       1.702   4.315  21.181  0.00  0.00    +0.000 A 
ATOM      7  N   UNL     1       1.540   5.594  20.823  0.00  0.00    +0.000 NA
ATOM      8  C   UNL     1       2.399   6.089  19.914  0.00  0.00    +0.000 A 
ATOM      9  N   UNL     1       2.258   7.437  19.516  0.00  0.00    +0.000 N 
ATOM     10  C   UNL     1       3.433   5.302  19.368  0.00  0.00    +0.000 A 
ATOM     11  C   UNL     1       4.390   5.752  18.420  0.00  0.00    +0.000 A 
ATOM     12  H   UNL     1       2.046   7.486  18.525  0.00  0.00    +0.000 HD
ENDROOT
BRANCH   1  19
ATOM     13  C   UNL     1       5.760   3.996  14.766  0.00  0.00    +0.000 C 
ATOM     14  C   UNL     1       6.491   5.014  15.556  0.00  0.00    +0.000 A 
ATOM     15  N   UNL     1       7.480   5.701  14.972  0.00  0.00    +0.000 NA
ATOM     16  O   UNL     1       8.000   6.518  15.950  0.00  0.00    +0.000 OA
ATOM     17  C   UNL     1       7.329   6.327  17.117  0.00  0.00    +0.000 A 
ATOM     18  C   UNL     1       7.808   7.150  18.246  0.00  0.00    +0.000 C 
ATOM     19  C   UNL     1       6.336   5.384  16.927  0.00  0.00    +0.000 A 
ENDBRANCH   1  19
BRANCH   9  20
ATOM     20  C   UNL     1       1.320   8.216  20.325  0.00  0.00    +0.000 C 
BRANCH  20  21
ATOM     21  C   UNL     1       1.155   9.652  19.893  0.00  0.00    +0.000 A 
ATOM     22  C   UNL     1       1.322  10.182  18.628  0.00  0.00    +0.000 A 
ATOM     23  C   UNL     1       0.988  11.566  18.568  0.00  0.00    +0.000 A 
ATOM     24  C   UNL     1       0.597  12.052  19.795  0.00  0.00    +0.000 A 
ATOM     25  S   UNL     1       0.649  10.848  21.010  0.00  0.00    +0.000 S 
ENDBRANCH  20  21
ENDBRANCH   9  20
TORSDOF 3
ENDMDL
MODEL 4
REMARK VINA RESULT:      -7.8      3.123      6.783
REMARK  Name = 
REMARK  5 active torsions:
REMARK  status: ('A' for Active; 'I' for Inactive)
REMARK    1  A    between atoms: C_1  and  C_2
REMARK    2  A    between atoms: C_5  and  C_6
REMARK    3  A    between atoms: C_7  and  C_8
REMARK    4  A    between atoms: N_16  and  C_17
REMARK    5  A    between atoms: C_17  and  C_18
REMARK                            x       y       z     vdW  Elec       q    Type
REMARK                         _______ _______ _______ _____ _____    ______ ____
ROOT
ATOM      1  C   UNL     1       1.947   6.888  20.110  0.00  0.00    +0.000 A 
ATOM      2  C   UNL     1       1.125   5.944  20.725  0.00  0.00    +0.000 A 
ATOM      3  C   UNL     1       1.530   4.607  20.826  0.00  0.00    +0.000 A 
ATOM      4  C   UNL     1       2.754   4.173  20.343  0.00  0.00    +0.000 A 
ATOM      5  N   UNL     1       3.076   2.887  20.494  0.00  0.00    +0.000 NA
ATOM      6  C   UNL     1       4.250   2.503  19.987  0.00  0.00    +0.000 A 
ATOM      7  N   UNL     1       5.125   3.282  19.340  0.00  0.00    +0.000 NA
ATOM      8  C   UNL     1       4.803   4.581  19.204  0.00  0.00    +0.000 A 
ATOM      9  N   UNL     1       5.704   5.431  18.524  0.00  0.00    +0.000 N 
ATOM     10  C   UNL     1       3.596   5.101  19.709  0.00  0.00    +0.000 A 
ATOM     11  C   UNL     1       3.173   6.452  19.592  0.00  0.00    +0.000 A 
ATOM     12  H   UNL     1       6.042   6.153  19.152  0.00  0.00    +0.000 HD
ENDROOT
BRANCH   1  19
ATOM     13  C   UNL     1       1.912   8.924  17.489  0.00  0.00    +0.000 C 
ATOM     14  C   UNL     1       1.526   9.173  18.898  0.00  0.00    +0.000 A 
ATOM     15  N   UNL     1       1.103  10.393  19.249  0.00  0.00    +0.000 NA
ATOM     16  O   UNL     1       0.873  10.338  20.605  0.00  0.00    +0.000 OA
ATOM     17  C   UNL     1       1.154   9.091  21.070  0.00  0.00    +0.000 A 
ATOM     18  C   UNL     1       0.950   8.914  22.522  0.00  0.00    +0.000 C 
ATOM     19  C   UNL     1       1.563   8.290  20.020  0.00  0.00    +0.000 A 
ENDBRANCH   1  19
BRANCH   9  20
ATOM     20  C   UNL     1       6.793   4.739  17.834  0.00  0.00    +0.000 C 
BRANCH  20  21
ATOM     21  C   UNL     1       6.629   4.640  16.338  0.00  0.00    +0.000 A 
ATOM     22  C   UNL     1       7.471   5.129  15.358  0.00  0.00    +0.000 A 
ATOM     23  C   UNL     1       7.050   4.766  14.045  0.00  0.00    +0.000 A 
ATOM     24  C   UNL     1       5.888   4.030  14.066  0.00  0.00    +0.000 A 
ATOM     25  S   UNL     1       5.304   3.793  15.657  0.00  0.00    +0.000 S 
ENDBRANCH  20  21
ENDBRANCH   9  20
TORSDOF 3
ENDMDL
MODEL 5
REMARK VINA RESULT:      -7.8      3.020      6.920
REMARK  Name = 
REMARK  5 active torsions:
REMARK  status: ('A' for Active; 'I' for Inactive)
REMARK    1  A    between atoms: C_1  and  C_2
REMARK    2  A    between atoms: C_5  and  C_6
REMARK    3  A    between atoms: C_7  and  C_8
REMARK    4  A    between atoms: N_16  and  C_17
REMARK    5  A    between atoms: C_17  and  C_18
REMARK                            x       y       z     vdW  Elec       q    Type
REMARK                         _______ _______ _______ _____ _____    ______ ____
ROOT
ATOM      1  C   UNL     1       1.964   6.886  20.137  0.00  0.00    +0.000 A 
ATOM      2  C   UNL     1       1.148   5.937  20.754  0.00  0.00    +0.000 A 
ATOM      3  C   UNL     1       1.559   4.601  20.848  0.00  0.00    +0.000 A 
ATOM      4  C   UNL     1       2.782   4.173  20.357  0.00  0.00    +0.000 A 
ATOM      5  N   UNL     1       3.109   2.887  20.503  0.00  0.00    +0.000 NA
ATOM      6  C   UNL     1       4.282   2.509  19.988  0.00  0.00    +0.000 A 
ATOM      7  N   UNL     1       5.150   3.293  19.340  0.00  0.00    +0.000 NA
ATOM      8  C   UNL     1       4.824   4.591  19.209  0.00  0.00    +0.000 A 
ATOM      9  N   UNL     1       5.717   5.447  18.527  0.00  0.00    +0.000 N 
ATOM     10  C   UNL     1       3.617   5.106  19.722  0.00  0.00    +0.000 A 
ATOM     11  C   UNL     1       3.189   6.455  19.612  0.00  0.00    +0.000 A 
ATOM     12  H   UNL     1       6.057   6.168  19.155  0.00  0.00    +0.000 HD
ENDROOT
BRANCH   1  19
ATOM     13  C   UNL     1       0.779   8.913  22.482  0.00  0.00    +0.000 C 
ATOM     14  C   UNL     1       1.081   9.176  21.056  0.00  0.00    +0.000 A 
ATOM     15  N   UNL     1       0.848  10.396  20.557  0.00  0.00    +0.000 NA
ATOM     16  O   UNL     1       1.167  10.324  19.219  0.00  0.00    +0.000 OA
ATOM     17  C   UNL     1       1.592   9.069  18.912  0.00  0.00    +0.000 A 
ATOM     18  C   UNL     1       1.956   8.870  17.495  0.00  0.00    +0.000 C 
ATOM     19  C   UNL     1       1.575   8.286  20.053  0.00  0.00    +0.000 A 
ENDBRANCH   1  19
BRANCH   9  20
ATOM     20  C   UNL     1       6.805   4.761  17.829  0.00  0.00    +0.000 C 
BRANCH  20  21
ATOM     21  C   UNL     1       6.633   4.664  16.334  0.00  0.00    +0.000 A 
ATOM     22  C   UNL     1       7.480   5.136  15.350  0.00  0.00    +0.000 A 
ATOM     23  C   UNL     1       7.047   4.782  14.039  0.00  0.00    +0.000 A 
ATOM     24  C   UNL     1       5.871   4.067  14.065  0.00  0.00    +0.000 A 
ATOM     25  S   UNL     1       5.290   3.842  15.659  0.00  0.00    +0.000 S 
ENDBRANCH  20  21
ENDBRANCH   9  20
TORSDOF 3
ENDMDL
MODEL 6
REMARK VINA RESULT:      -7.6      1.372      1.562
REMARK  Name = 
REMARK  5 active torsions:
REMARK  status: ('A' for Active; 'I' for Inactive)
REMARK    1  A    between atoms: C_1  and  C_2
REMARK    2  A    between atoms: C_5  and  C_6
REMARK    3  A    between atoms: C_7  and  C_8
REMARK    4  A    between atoms: N_16  and  C_17
REMARK    5  A    between atoms: C_17  and  C_18
REMARK                            x       y       z     vdW  Elec       q    Type
REMARK                         _______ _______ _______ _____ _____    ______ ____
ROOT
ATOM      1  C   UNL     1       5.143   4.790  18.463  0.00  0.00    +0.000 A 
ATOM      2  C   UNL     1       5.105   3.395  18.451  0.00  0.00    +0.000 A 
ATOM      3  C   UNL     1       4.038   2.709  19.045  0.00  0.00    +0.000 A 
ATOM      4  C   UNL     1       2.981   3.374  19.647  0.00  0.00    +0.000 A 
ATOM      5  N   UNL     1       1.993   2.648  20.174  0.00  0.00    +0.000 NA
ATOM      6  C   UNL     1       1.010   3.327  20.771  0.00  0.00    +0.000 A 
ATOM      7  N   UNL     1       0.928   4.656  20.894  0.00  0.00    +0.000 NA
ATOM      8  C   UNL     1       1.918   5.384  20.347  0.00  0.00    +0.000 A 
ATOM      9  N   UNL     1       1.864   6.791  20.461  0.00  0.00    +0.000 N 
ATOM     10  C   UNL     1       3.002   4.777  19.682  0.00  0.00    +0.000 A 
ATOM     11  C   UNL     1       4.094   5.469  19.095  0.00  0.00    +0.000 A 
ATOM     12  H   UNL     1       1.796   7.212  19.541  0.00  0.00    +0.000 HD
ENDROOT
BRANCH   1  19
ATOM     13  C   UNL     1       5.433   5.873  15.340  0.00  0.00    +0.000 C 
ATOM     14  C   UNL     1       6.355   6.016  16.490  0.00  0.00    +0.000 A 
ATOM     15  N   UNL     1       7.518   6.656  16.314  0.00  0.00    +0.000 NA
ATOM     16  O   UNL     1       8.175   6.584  17.522  0.00  0.00    +0.000 OA
ATOM     17  C   UNL     1       7.413   5.907  18.423  0.00  0.00    +0.000 A 
ATOM     18  C   UNL     1       8.023   5.760  19.759  0.00  0.00    +0.000 C 
ATOM     19  C   UNL     1       6.224   5.528  17.826  0.00  0.00    +0.000 A 
ENDBRANCH   1  19
BRANCH   9  20
ATOM     20  C   UNL     1       0.837   7.289  21.378  0.00  0.00    +0.000 C 
BRANCH  20  21
ATOM     21  C   UNL     1       0.603   8.777  21.314  0.00  0.00    +0.000 A 
ATOM     22  C   UNL     1       0.796   9.622  20.238  0.00  0.00    +0.000 A 
ATOM     23  C   UNL     1       0.378  10.957  20.509  0.00  0.00    +0.000 A 
ATOM     24  C   UNL     1      -0.101  11.092  21.792  0.00  0.00    +0.000 A 
ATOM     25  S   UNL     1      -0.032   9.621  22.664  0.00  0.00    +0.000 S 
ENDBRANCH  20  21
ENDBRANCH   9  20
TORSDOF 3
ENDMDL
MODEL 7
REMARK VINA RESULT:      -7.5      1.311      1.618
REMARK  Name = 
REMARK  5 active torsions:
REMARK  status: ('A' for Active; 'I' for Inactive)
REMARK    1  A    between atoms: C_1  and  C_2
REMARK    2  A    between atoms: C_5  and  C_6
REMARK    3  A    between atoms: C_7  and  C_8
REMARK    4  A    between atoms: N_16  and  C_17
REMARK    5  A    between atoms: C_17  and  C_18
REMARK                            x       y       z     vdW  Elec       q    Type
REMARK                         _______ _______ _______ _____ _____    ______ ____
ROOT
ATOM      1  C   UNL     1       5.148   5.243  17.834  0.00  0.00    +0.000 A 
ATOM      2  C   UNL     1       5.083   3.993  18.448  0.00  0.00    +0.000 A 
ATOM      3  C   UNL     1       4.110   3.729  19.421  0.00  0.00    +0.000 A 
ATOM      4  C   UNL     1       3.173   4.678  19.798  0.00  0.00    +0.000 A 
ATOM      5  N   UNL     1       2.267   4.344  20.719  0.00  0.00    +0.000 NA
ATOM      6  C   UNL     1       1.401   5.297  21.075  0.00  0.00    +0.000 A 
ATOM      7  N   UNL     1       1.363   6.547  20.603  0.00  0.00    +0.000 NA
ATOM      8  C   UNL     1       2.269   6.875  19.664  0.00  0.00    +0.000 A 
ATOM      9  N   UNL     1       2.258   8.189  19.146  0.00  0.00    +0.000 N 
ATOM     10  C   UNL     1       3.224   5.948  19.202  0.00  0.00    +0.000 A 
ATOM     11  C   UNL     1       4.223   6.217  18.230  0.00  0.00    +0.000 A 
ATOM     12  H   UNL     1       2.055   8.169  18.152  0.00  0.00    +0.000 HD
ENDROOT
BRANCH   1  19
ATOM     13  C   UNL     1       5.415   4.037  14.754  0.00  0.00    +0.000 C 
ATOM     14  C   UNL     1       6.246   5.036  15.463  0.00  0.00    +0.000 A 
ATOM     15  N   UNL     1       7.301   5.568  14.834  0.00  0.00    +0.000 NA
ATOM     16  O   UNL     1       7.902   6.407  15.746  0.00  0.00    +0.000 OA
ATOM     17  C   UNL     1       7.213   6.383  16.919  0.00  0.00    +0.000 A 
ATOM     18  C   UNL     1       7.773   7.244  17.980  0.00  0.00    +0.000 C 
ATOM     19  C   UNL     1       6.129   5.533  16.797  0.00  0.00    +0.000 A 
ENDBRANCH   1  19
BRANCH   9  20
ATOM     20  C   UNL     1       1.397   9.124  19.871  0.00  0.00    +0.000 C 
BRANCH  20  21
ATOM     21  C   UNL     1       0.333   9.784  19.031  0.00  0.00    +0.000 A 
ATOM     22  C   UNL     1      -0.206   9.338  17.840  0.00  0.00    +0.000 A 
ATOM     23  C   UNL     1      -1.263  10.171  17.372  0.00  0.00    +0.000 A 
ATOM     24  C   UNL     1      -1.482  11.240  18.212  0.00  0.00    +0.000 A 
ATOM     25  S   UNL     1      -0.408  11.241  19.544  0.00  0.00    +0.000 S 
ENDBRANCH  20  21
ENDBRANCH   9  20
TORSDOF 3
ENDMDL
MODEL 8
REMARK VINA RESULT:      -7.2      4.084      8.215
REMARK  Name = 
REMARK  5 active torsions:
REMARK  status: ('A' for Active; 'I' for Inactive)
REMARK    1  A    between atoms: C_1  and  C_2
REMARK    2  A    between atoms: C_5  and  C_6
REMARK    3  A    between atoms: C_7  and  C_8
REMARK    4  A    between atoms: N_16  and  C_17
REMARK    5  A    between atoms: C_17  and  C_18
REMARK                            x       y       z     vdW  Elec       q    Type
REMARK                         _______ _______ _______ _____ _____    ______ ____
ROOT
ATOM      1  C   UNL     1       0.443  10.210  20.201  0.00  0.00    +0.000 A 
ATOM      2  C   UNL     1       0.883  10.907  19.076  0.00  0.00    +0.000 A 
ATOM      3  C   UNL     1       1.747  10.299  18.157  0.00  0.00    +0.000 A 
ATOM      4  C   UNL     1       2.182   8.992  18.312  0.00  0.00    +0.000 A 
ATOM      5  N   UNL     1       2.989   8.478  17.382  0.00  0.00    +0.000 NA
ATOM      6  C   UNL     1       3.409   7.226  17.585  0.00  0.00    +0.000 A 
ATOM      7  N   UNL     1       3.104   6.449  18.630  0.00  0.00    +0.000 NA
ATOM      8  C   UNL     1       2.277   6.967  19.556  0.00  0.00    +0.000 A 
ATOM      9  N   UNL     1       1.935   6.173  20.675  0.00  0.00    +0.000 N 
ATOM     10  C   UNL     1       1.762   8.272  19.441  0.00  0.00    +0.000 A 
ATOM     11  C   UNL     1       0.901   8.899  20.381  0.00  0.00    +0.000 A 
ATOM     12  H   UNL     1       0.937   5.997  20.683  0.00  0.00    +0.000 HD
ENDROOT
BRANCH   1  19
ATOM     13  C   UNL     1      -0.008   9.561  23.425  0.00  0.00    +0.000 C 
ATOM     14  C   UNL     1      -0.673  10.553  22.548  0.00  0.00    +0.000 A 
ATOM     15  N   UNL     1      -1.630  11.334  23.062  0.00  0.00    +0.000 NA
ATOM     16  O   UNL     1      -2.093  12.101  22.016  0.00  0.00    +0.000 OA
ATOM     17  C   UNL     1      -1.418  11.786  20.878  0.00  0.00    +0.000 A 
ATOM     18  C   UNL     1      -1.837  12.545  19.683  0.00  0.00    +0.000 C 
ATOM     19  C   UNL     1      -0.480  10.808  21.156  0.00  0.00    +0.000 A 
ENDBRANCH   1  19
BRANCH   9  20
ATOM     20  C   UNL     1       2.719   4.944  20.812  0.00  0.00    +0.000 C 
BRANCH  20  21
ATOM     21  C   UNL     1       2.212   3.779  20.000  0.00  0.00    +0.000 A 
ATOM     22  C   UNL     1       0.901   3.409  19.773  0.00  0.00    +0.000 A 
ATOM     23  C   UNL     1       0.792   2.307  18.875  0.00  0.00    +0.000 A 
ATOM     24  C   UNL     1       2.026   1.860  18.462  0.00  0.00    +0.000 A 
ATOM     25  S   UNL     1       3.303   2.754  19.167  0.00  0.00    +0.000 S 
ENDBRANCH  20  21
ENDBRANCH   9  20
TORSDOF 3
ENDMDL
MODEL 9
REMARK VINA RESULT:      -7.2      4.082      8.175
REMARK  Name = 
REMARK  5 active torsions:
REMARK  status: ('A' for Active; 'I' for Inactive)
REMARK    1  A    between atoms: C_1  and  C_2
REMARK    2  A    between atoms: C_5  and  C_6
REMARK    3  A    between atoms: C_7  and  C_8
REMARK    4  A    between atoms: N_16  and  C_17
REMARK    5  A    between atoms: C_17  and  C_18
REMARK                            x       y       z     vdW  Elec       q    Type
REMARK                         _______ _______ _______ _____ _____    ______ ____
ROOT
ATOM      1  C   UNL     1       0.411  10.267  20.237  0.00  0.00    +0.000 A 
ATOM      2  C   UNL     1       0.848  10.973  19.116  0.00  0.00    +0.000 A 
ATOM      3  C   UNL     1       1.713  10.373  18.192  0.00  0.00    +0.000 A 
ATOM      4  C   UNL     1       2.151   9.066  18.338  0.00  0.00    +0.000 A 
ATOM      5  N   UNL     1       2.959   8.560  17.404  0.00  0.00    +0.000 NA
ATOM      6  C   UNL     1       3.383   7.309  17.599  0.00  0.00    +0.000 A 
ATOM      7  N   UNL     1       3.080   6.524  18.639  0.00  0.00    +0.000 NA
ATOM      8  C   UNL     1       2.253   7.033  19.569  0.00  0.00    +0.000 A 
ATOM      9  N   UNL     1       1.915   6.232  20.683  0.00  0.00    +0.000 N 
ATOM     10  C   UNL     1       1.734   8.338  19.463  0.00  0.00    +0.000 A 
ATOM     11  C   UNL     1       0.872   8.956  20.407  0.00  0.00    +0.000 A 
ATOM     12  H   UNL     1       0.916   6.052  20.691  0.00  0.00    +0.000 HD
ENDROOT
BRANCH   1  19
ATOM     13  C   UNL     1      -1.778  12.733  19.851  0.00  0.00    +0.000 C 
ATOM     14  C   UNL     1      -1.472  11.904  21.041  0.00  0.00    +0.000 A 
ATOM     15  N   UNL     1      -2.128  12.140  22.183  0.00  0.00    +0.000 NA
ATOM     16  O   UNL     1      -1.601  11.268  23.109  0.00  0.00    +0.000 OA
ATOM     17  C   UNL     1      -0.634  10.508  22.529  0.00  0.00    +0.000 A 
ATOM     18  C   UNL     1       0.010   9.535  23.434  0.00  0.00    +0.000 C 
ATOM     19  C   UNL     1      -0.513  10.857  21.196  0.00  0.00    +0.000 A 
ENDBRANCH   1  19
BRANCH   9  20
ATOM     20  C   UNL     1       2.701   5.004  20.811  0.00  0.00    +0.000 C 
BRANCH  20  21
ATOM     21  C   UNL     1       2.191   3.839  20.001  0.00  0.00    +0.000 A 
ATOM     22  C   UNL     1       0.878   3.473  19.776  0.00  0.00    +0.000 A 
ATOM     23  C   UNL     1       0.765   2.371  18.879  0.00  0.00    +0.000 A 
ATOM     24  C   UNL     1       1.997   1.919  18.466  0.00  0.00    +0.000 A 
ATOM     25  S   UNL     1       3.278   2.810  19.168  0.00  0.00    +0.000 S 
ENDBRANCH  20  21
ENDBRANCH   9  20
TORSDOF 3
ENDMDL
