MODEL 1
REMARK VINA RESULT:      -7.5      0.000      0.000
REMARK  Name = 
REMARK  6 active torsions:
REMARK  status: ('A' for Active; 'I' for Inactive)
REMARK    1  A    between atoms: C_1  and  O_2
REMARK    2  A    between atoms: O_2  and  C_3
REMARK    3  A    between atoms: C_6  and  C_7
REMARK    4  A    between atoms: C_11  and  C_12
REMARK    5  A    between atoms: C_22  and  O_23
REMARK    6  A    between atoms: O_23  and  C_24
REMARK                            x       y       z     vdW  Elec       q    Type
REMARK                         _______ _______ _______ _____ _____    ______ ____
ROOT
ATOM      1  C   UNL     1       3.074   7.023  18.476  0.00  0.00    +0.000 A 
ATOM      2  C   UNL     1       2.490   8.178  17.997  0.00  0.00    +0.000 A 
ATOM      3  N   UNL     1       1.671   8.626  19.004  0.00  0.00    +0.000 N 
ATOM      4  C   UNL     1       0.852   9.753  19.050  0.00  0.00    +0.000 A 
ATOM      5  C   UNL     1       0.124  10.010  20.158  0.00  0.00    +0.000 A 
ATOM      6  C   UNL     1       0.237   9.055  21.271  0.00  0.00    +0.000 A 
ATOM      7  C   UNL     1       1.025   7.967  21.210  0.00  0.00    +0.000 A 
ATOM      8  C   UNL     1       1.791   7.717  20.045  0.00  0.00    +0.000 A 
ATOM      9  N   UNL     1       2.627   6.747  19.749  0.00  0.00    +0.000 NA
ENDROOT
BRANCH   1  13
ATOM     10  C   UNL     1       5.674   4.521  16.189  0.00  0.00    +0.000 A 
ATOM     11  C   UNL     1       4.416   4.065  16.607  0.00  0.00    +0.000 A 
ATOM     12  C   UNL     1       3.581   4.882  17.371  0.00  0.00    +0.000 A 
ATOM     13  C   UNL     1       4.000   6.155  17.767  0.00  0.00    +0.000 A 
ATOM     14  C   UNL     1       5.299   6.558  17.440  0.00  0.00    +0.000 A 
ATOM     15  C   UNL     1       6.148   5.753  16.662  0.00  0.00    +0.000 A 
BRANCH  10  17
ATOM     16  C   UNL     1       6.242   4.025  13.955  0.00  0.00    +0.000 C 
ATOM     17  O   UNL     1       6.444   3.765  15.346  0.00  0.00    +0.000 OA
ENDBRANCH  10  17
BRANCH  15  18
ATOM     18  O   UNL     1       7.360   6.352  16.447  0.00  0.00    +0.000 OA
ATOM     19  C   UNL     1       7.772   7.400  17.310  0.00  0.00    +0.000 C 
ENDBRANCH  15  18
ENDBRANCH   1  13
BRANCH   5  20
ATOM     20  C   UNL     1      -0.708  11.181  20.180  0.00  0.00    +0.000 A 
ATOM     21  C   UNL     1      -1.783  11.517  19.360  0.00  0.00    +0.000 A 
ATOM     22  C   UNL     1      -2.280  12.777  19.769  0.00  0.00    +0.000 A 
ATOM     23  C   UNL     1      -1.494  13.161  20.823  0.00  0.00    +0.000 A 
ATOM     24  O   UNL     1      -0.555  12.219  21.081  0.00  0.00    +0.000 OA
ENDBRANCH   5  20
TORSDOF 4
ENDMDL
MODEL 2
REMARK VINA RESULT:      -7.5      1.150      2.217
REMARK  Name = 
REMARK  6 active torsions:
REMARK  status: ('A' for Active; 'I' for Inactive)
REMARK    1  A    between atoms: C_1  and  O_2
REMARK    2  A    between atoms: O_2  and  C_3
REMARK    3  A    between atoms: C_6  and  C_7
REMARK    4  A    between atoms: C_11  and  C_12
REMARK    5  A    between atoms: C_22  and  O_23
REMARK    6  A    between atoms: O_23  and  C_24
REMARK                            x       y       z     vdW  Elec       q    Type
REMARK                         _______ _______ _______ _____ _____    ______ ____
ROOT
ATOM      1  C   UNL     1       2.741   7.181  18.530  0.00  0.00    +0.000 A 
ATOM      2  C   UNL     1       2.187   8.379  18.127  0.00  0.00    +0.000 A 
ATOM      3  N   UNL     1       1.520   8.868  19.223  0.00  0.00    +0.000 N 
ATOM      4  C   UNL     1       0.792  10.047  19.367  0.00  0.00    +0.000 A 
ATOM      5  C   UNL     1       0.212  10.339  20.552  0.00  0.00    +0.000 A 
ATOM      6  C   UNL     1       0.384   9.363  21.640  0.00  0.00    +0.000 A 
ATOM      7  C   UNL     1       1.083   8.225  21.485  0.00  0.00    +0.000 A 
ATOM      8  C   UNL     1       1.693   7.939  20.239  0.00  0.00    +0.000 A 
ATOM      9  N   UNL     1       2.422   6.919  19.845  0.00  0.00    +0.000 NA
ENDROOT
BRANCH   1  13
ATOM     10  C   UNL     1       5.216   4.521  16.283  0.00  0.00    +0.000 A 
ATOM     11  C   UNL     1       5.280   5.908  16.086  0.00  0.00    +0.000 A 
ATOM     12  C   UNL     1       4.454   6.768  16.810  0.00  0.00    +0.000 A 
ATOM     13  C   UNL     1       3.518   6.261  17.716  0.00  0.00    +0.000 A 
ATOM     14  C   UNL     1       3.385   4.873  17.825  0.00  0.00    +0.000 A 
ATOM     15  C   UNL     1       4.217   3.993  17.113  0.00  0.00    +0.000 A 
BRANCH  10  17
ATOM     16  C   UNL     1       6.272   3.930  14.258  0.00  0.00    +0.000 C 
ATOM     17  O   UNL     1       6.104   3.687  15.657  0.00  0.00    +0.000 OA
ENDBRANCH  10  17
BRANCH  15  18
ATOM     18  O   UNL     1       3.925   2.683  17.386  0.00  0.00    +0.000 OA
ATOM     19  C   UNL     1       2.602   2.338  17.765  0.00  0.00    +0.000 C 
ENDBRANCH  15  18
ENDBRANCH   1  13
BRANCH   5  20
ATOM     20  C   UNL     1      -0.529  11.563  20.675  0.00  0.00    +0.000 A 
ATOM     21  C   UNL     1      -0.938  12.237  21.822  0.00  0.00    +0.000 A 
ATOM     22  C   UNL     1      -1.647  13.397  21.431  0.00  0.00    +0.000 A 
ATOM     23  C   UNL     1      -1.641  13.391  20.062  0.00  0.00    +0.000 A 
ATOM     24  O   UNL     1      -0.976  12.305  19.596  0.00  0.00    +0.000 OA
ENDBRANCH   5  20
TORSDOF 4
ENDMDL
MODEL 3
REMARK VINA RESULT:      -7.5      1.212      1.880
REMARK  Name = 
REMARK  6 active torsions:
REMARK  status: ('A' for Active; 'I' for Inactive)
REMARK    1  A    between atoms: C_1  and  O_2
REMARK    2  A    between atoms: O_2  and  C_3
REMARK    3  A    between atoms: C_6  and  C_7
REMARK    4  A    between atoms: C_11  and  C_12
REMARK    5  A    between atoms: C_22  and  O_23
REMARK    6  A    between atoms: O_23  and  C_24
REMARK                            x       y       z     vdW  Elec       q    Type
REMARK                         _______ _______ _______ _____ _____    ______ ____
ROOT
ATOM      1  C   UNL     1       2.734   7.579  18.251  0.00  0.00    +0.000 A 
ATOM      2  C   UNL     1       2.206   7.670  19.523  0.00  0.00    +0.000 A 
ATOM      3  N   UNL     1       1.410   8.789  19.516  0.00  0.00    +0.000 N 
ATOM      4  C   UNL     1       0.640   9.339  20.539  0.00  0.00    +0.000 A 
ATOM      5  C   UNL     1      -0.081  10.458  20.311  0.00  0.00    +0.000 A 
ATOM      6  C   UNL     1       0.003  11.046  18.965  0.00  0.00    +0.000 A 
ATOM      7  C   UNL     1       0.758  10.510  17.989  0.00  0.00    +0.000 A 
ATOM      8  C   UNL     1       1.499   9.330  18.242  0.00  0.00    +0.000 A 
ATOM      9  N   UNL     1       2.288   8.620  17.467  0.00  0.00    +0.000 NA
ENDROOT
BRANCH   1  13
ATOM     10  C   UNL     1       5.366   4.643  16.607  0.00  0.00    +0.000 A 
ATOM     11  C   UNL     1       4.091   4.291  17.071  0.00  0.00    +0.000 A 
ATOM     12  C   UNL     1       3.245   5.252  17.626  0.00  0.00    +0.000 A 
ATOM     13  C   UNL     1       3.668   6.578  17.764  0.00  0.00    +0.000 A 
ATOM     14  C   UNL     1       4.980   6.896  17.400  0.00  0.00    +0.000 A 
ATOM     15  C   UNL     1       5.841   5.943  16.829  0.00  0.00    +0.000 A 
BRANCH  10  17
ATOM     16  C   UNL     1       6.178   3.857  14.536  0.00  0.00    +0.000 C 
ATOM     17  O   UNL     1       6.150   3.725  15.960  0.00  0.00    +0.000 OA
ENDBRANCH  10  17
BRANCH  15  18
ATOM     18  O   UNL     1       7.066   6.478  16.531  0.00  0.00    +0.000 OA
ATOM     19  C   UNL     1       7.636   7.428  17.418  0.00  0.00    +0.000 C 
ENDBRANCH  15  18
ENDBRANCH   1  13
BRANCH   5  20
ATOM     20  C   UNL     1      -0.869  11.000  21.381  0.00  0.00    +0.000 A 
ATOM     21  C   UNL     1      -0.895  10.647  22.728  0.00  0.00    +0.000 A 
ATOM     22  C   UNL     1      -1.841  11.466  23.388  0.00  0.00    +0.000 A 
ATOM     23  C   UNL     1      -2.354  12.290  22.423  0.00  0.00    +0.000 A 
ATOM     24  O   UNL     1      -1.784  12.027  21.222  0.00  0.00    +0.000 OA
ENDBRANCH   5  20
TORSDOF 4
ENDMDL
MODEL 4
REMARK VINA RESULT:      -7.5      1.961      8.729
REMARK  Name = 
REMARK  6 active torsions:
REMARK  status: ('A' for Active; 'I' for Inactive)
REMARK    1  A    between atoms: C_1  and  O_2
REMARK    2  A    between atoms: O_2  and  C_3
REMARK    3  A    between atoms: C_6  and  C_7
REMARK    4  A    between atoms: C_11  and  C_12
REMARK    5  A    between atoms: C_22  and  O_23
REMARK    6  A    between atoms: O_23  and  C_24
REMARK                            x       y       z     vdW  Elec       q    Type
REMARK                         _______ _______ _______ _____ _____    ______ ____
ROOT
ATOM      1  C   UNL     1       2.880   7.070  18.447  0.00  0.00    +0.000 A 
ATOM      2  C   UNL     1       3.558   7.457  17.308  0.00  0.00    +0.000 A 
ATOM      3  N   UNL     1       4.219   6.336  16.869  0.00  0.00    +0.000 N 
ATOM      4  C   UNL     1       5.044   6.169  15.759  0.00  0.00    +0.000 A 
ATOM      5  C   UNL     1       5.596   4.962  15.507  0.00  0.00    +0.000 A 
ATOM      6  C   UNL     1       5.289   3.875  16.451  0.00  0.00    +0.000 A 
ATOM      7  C   UNL     1       4.497   4.053  17.523  0.00  0.00    +0.000 A 
ATOM      8  C   UNL     1       3.918   5.323  17.767  0.00  0.00    +0.000 A 
ATOM      9  N   UNL     1       3.117   5.741  18.721  0.00  0.00    +0.000 NA
ENDROOT
BRANCH   1  13
ATOM     10  C   UNL     1       0.665   9.603  21.078  0.00  0.00    +0.000 A 
ATOM     11  C   UNL     1       1.055   8.316  21.473  0.00  0.00    +0.000 A 
ATOM     12  C   UNL     1       1.761   7.487  20.600  0.00  0.00    +0.000 A 
ATOM     13  C   UNL     1       2.058   7.910  19.301  0.00  0.00    +0.000 A 
ATOM     14  C   UNL     1       1.570   9.151  18.880  0.00  0.00    +0.000 A 
ATOM     15  C   UNL     1       0.869  10.003  19.750  0.00  0.00    +0.000 A 
BRANCH  10  17
ATOM     16  C   UNL     1      -0.279   9.864  23.223  0.00  0.00    +0.000 C 
ATOM     17  O   UNL     1       0.075  10.457  21.971  0.00  0.00    +0.000 OA
ENDBRANCH  10  17
BRANCH  15  18
ATOM     18  O   UNL     1       0.505  11.171  19.134  0.00  0.00    +0.000 OA
ATOM     19  C   UNL     1       1.392  12.277  19.177  0.00  0.00    +0.000 C 
ENDBRANCH  15  18
ENDBRANCH   1  13
BRANCH   5  20
ATOM     20  C   UNL     1       6.439   4.816  14.354  0.00  0.00    +0.000 A 
ATOM     21  C   UNL     1       6.316   3.946  13.274  0.00  0.00    +0.000 A 
ATOM     22  C   UNL     1       7.397   4.174  12.390  0.00  0.00    +0.000 A 
ATOM     23  C   UNL     1       8.136   5.176  12.960  0.00  0.00    +0.000 A 
ATOM     24  O   UNL     1       7.577   5.570  14.130  0.00  0.00    +0.000 OA
ENDBRANCH   5  20
TORSDOF 4
ENDMDL
MODEL 5
REMARK VINA RESULT:      -7.4      1.660      8.663
REMARK  Name = 
REMARK  6 active torsions:
REMARK  status: ('A' for Active; 'I' for Inactive)
REMARK    1  A    between atoms: C_1  and  O_2
REMARK    2  A    between atoms: O_2  and  C_3
REMARK    3  A    between atoms: C_6  and  C_7
REMARK    4  A    between atoms: C_11  and  C_12
REMARK    5  A    between atoms: C_22  and  O_23
REMARK    6  A    between atoms: O_23  and  C_24
REMARK                            x       y       z     vdW  Elec       q    Type
REMARK                         _______ _______ _______ _____ _____    ______ ____
ROOT
ATOM      1  C   UNL     1       2.247   7.623  19.319  0.00  0.00    +0.000 A 
ATOM      2  C   UNL     1       2.981   7.900  18.183  0.00  0.00    +0.000 A 
ATOM      3  N   UNL     1       3.529   6.703  17.793  0.00  0.00    +0.000 N 
ATOM      4  C   UNL     1       4.352   6.414  16.706  0.00  0.00    +0.000 A 
ATOM      5  C   UNL     1       4.779   5.149  16.503  0.00  0.00    +0.000 A 
ATOM      6  C   UNL     1       4.344   4.131  17.473  0.00  0.00    +0.000 A 
ATOM      7  C   UNL     1       3.556   4.425  18.523  0.00  0.00    +0.000 A 
ATOM      8  C   UNL     1       3.108   5.756  18.715  0.00  0.00    +0.000 A 
ATOM      9  N   UNL     1       2.338   6.286  19.638  0.00  0.00    +0.000 NA
ENDROOT
BRANCH   1  13
ATOM     10  C   UNL     1       0.268  10.482  21.799  0.00  0.00    +0.000 A 
ATOM     11  C   UNL     1       0.662   9.236  22.306  0.00  0.00    +0.000 A 
ATOM     12  C   UNL     1       1.290   8.299  21.484  0.00  0.00    +0.000 A 
ATOM     13  C   UNL     1       1.502   8.571  20.130  0.00  0.00    +0.000 A 
ATOM     14  C   UNL     1       1.007   9.771  19.608  0.00  0.00    +0.000 A 
ATOM     15  C   UNL     1       0.383  10.730  20.424  0.00  0.00    +0.000 A 
BRANCH  10  17
ATOM     16  C   UNL     1      -1.551  11.163  23.138  0.00  0.00    +0.000 C 
ATOM     17  O   UNL     1      -0.244  11.442  22.632  0.00  0.00    +0.000 OA
ENDBRANCH  10  17
BRANCH  15  18
ATOM     18  O   UNL     1      -0.003  11.832  19.710  0.00  0.00    +0.000 OA
ATOM     19  C   UNL     1       0.908  12.910  19.562  0.00  0.00    +0.000 C 
ENDBRANCH  15  18
ENDBRANCH   1  13
BRANCH   5  20
ATOM     20  C   UNL     1       5.623   4.878  15.374  0.00  0.00    +0.000 A 
ATOM     21  C   UNL     1       5.452   3.958  14.342  0.00  0.00    +0.000 A 
ATOM     22  C   UNL     1       6.556   4.059  13.464  0.00  0.00    +0.000 A 
ATOM     23  C   UNL     1       7.357   5.038  13.988  0.00  0.00    +0.000 A 
ATOM     24  O   UNL     1       6.814   5.538  15.124  0.00  0.00    +0.000 OA
ENDBRANCH   5  20
TORSDOF 4
ENDMDL
MODEL 6
REMARK VINA RESULT:      -7.4      1.669      8.748
REMARK  Name = 
REMARK  6 active torsions:
REMARK  status: ('A' for Active; 'I' for Inactive)
REMARK    1  A    between atoms: C_1  and  O_2
REMARK    2  A    between atoms: O_2  and  C_3
REMARK    3  A    between atoms: C_6  and  C_7
REMARK    4  A    between atoms: C_11  and  C_12
REMARK    5  A    between atoms: C_22  and  O_23
REMARK    6  A    between atoms: O_23  and  C_24
REMARK                            x       y       z     vdW  Elec       q    Type
REMARK                         _______ _______ _______ _____ _____    ______ ____
ROOT
ATOM      1  C   UNL     1       1.338   8.206  20.386  0.00  0.00    +0.000 A 
ATOM      2  C   UNL     1       2.018   8.347  19.194  0.00  0.00    +0.000 A 
ATOM      3  N   UNL     1       2.609   7.130  18.957  0.00  0.00    +0.000 N 
ATOM      4  C   UNL     1       3.407   6.722  17.890  0.00  0.00    +0.000 A 
ATOM      5  C   UNL     1       3.887   5.460  17.853  0.00  0.00    +0.000 A 
ATOM      6  C   UNL     1       3.535   4.576  18.976  0.00  0.00    +0.000 A 
ATOM      7  C   UNL     1       2.770   4.986  20.004  0.00  0.00    +0.000 A 
ATOM      8  C   UNL     1       2.266   6.309  20.021  0.00  0.00    +0.000 A 
ATOM      9  N   UNL     1       1.504   6.935  20.891  0.00  0.00    +0.000 NA
ENDROOT
BRANCH   1  13
ATOM     10  C   UNL     1      -0.704  11.257  22.570  0.00  0.00    +0.000 A 
ATOM     11  C   UNL     1      -0.568   9.963  23.092  0.00  0.00    +0.000 A 
ATOM     12  C   UNL     1       0.082   8.966  22.364  0.00  0.00    +0.000 A 
ATOM     13  C   UNL     1       0.577   9.230  21.083  0.00  0.00    +0.000 A 
ATOM     14  C   UNL     1       0.340  10.491  20.527  0.00  0.00    +0.000 A 
ATOM     15  C   UNL     1      -0.303  11.509  21.251  0.00  0.00    +0.000 A 
BRANCH  10  17
ATOM     16  C   UNL     1      -2.669  12.317  23.332  0.00  0.00    +0.000 C 
ATOM     17  O   UNL     1      -1.240  12.262  23.331  0.00  0.00    +0.000 OA
ENDBRANCH  10  17
BRANCH  15  18
ATOM     18  O   UNL     1      -0.410  12.663  20.521  0.00  0.00    +0.000 OA
ATOM     19  C   UNL     1       0.737  13.162  19.853  0.00  0.00    +0.000 C 
ENDBRANCH  15  18
ENDBRANCH   1  13
BRANCH   5  20
ATOM     20  C   UNL     1       4.703   5.065  16.740  0.00  0.00    +0.000 A 
ATOM     21  C   UNL     1       5.181   3.802  16.399  0.00  0.00    +0.000 A 
ATOM     22  C   UNL     1       5.949   3.918  15.216  0.00  0.00    +0.000 A 
ATOM     23  C   UNL     1       5.908   5.244  14.877  0.00  0.00    +0.000 A 
ATOM     24  O   UNL     1       5.168   5.940  15.774  0.00  0.00    +0.000 OA
ENDBRANCH   5  20
TORSDOF 4
ENDMDL
MODEL 7
REMARK VINA RESULT:      -7.2      1.367      8.752
REMARK  Name = 
REMARK  6 active torsions:
REMARK  status: ('A' for Active; 'I' for Inactive)
REMARK    1  A    between atoms: C_1  and  O_2
REMARK    2  A    between atoms: O_2  and  C_3
REMARK    3  A    between atoms: C_6  and  C_7
REMARK    4  A    between atoms: C_11  and  C_12
REMARK    5  A    between atoms: C_22  and  O_23
REMARK    6  A    between atoms: O_23  and  C_24
REMARK                            x       y       z     vdW  Elec       q    Type
REMARK                         _______ _______ _______ _____ _____    ______ ____
ROOT
ATOM      1  C   UNL     1       1.771   8.599  19.158  0.00  0.00    +0.000 A 
ATOM      2  C   UNL     1       2.418   8.581  17.939  0.00  0.00    +0.000 A 
ATOM      3  N   UNL     1       3.136   7.411  17.916  0.00  0.00    +0.000 N 
ATOM      4  C   UNL     1       3.962   6.893  16.920  0.00  0.00    +0.000 A 
ATOM      5  C   UNL     1       4.577   5.706  17.106  0.00  0.00    +0.000 A 
ATOM      6  C   UNL     1       4.336   5.019  18.386  0.00  0.00    +0.000 A 
ATOM      7  C   UNL     1       3.543   5.535  19.342  0.00  0.00    +0.000 A 
ATOM      8  C   UNL     1       2.897   6.777  19.127  0.00  0.00    +0.000 A 
ATOM      9  N   UNL     1       2.081   7.472  19.887  0.00  0.00    +0.000 NA
ENDROOT
BRANCH   1  13
ATOM     10  C   UNL     1      -0.950  11.555  20.611  0.00  0.00    +0.000 A 
ATOM     11  C   UNL     1      -0.665  11.446  19.243  0.00  0.00    +0.000 A 
ATOM     12  C   UNL     1       0.241  10.491  18.778  0.00  0.00    +0.000 A 
ATOM     13  C   UNL     1       0.910   9.651  19.673  0.00  0.00    +0.000 A 
ATOM     14  C   UNL     1       0.703   9.841  21.043  0.00  0.00    +0.000 A 
ATOM     15  C   UNL     1      -0.214  10.790  21.527  0.00  0.00    +0.000 A 
BRANCH  10  17
ATOM     16  C   UNL     1      -3.017  12.595  20.154  0.00  0.00    +0.000 C 
ATOM     17  O   UNL     1      -1.921  12.413  21.054  0.00  0.00    +0.000 OA
ENDBRANCH  10  17
BRANCH  15  18
ATOM     18  O   UNL     1      -0.271  10.790  22.895  0.00  0.00    +0.000 OA
ATOM     19  C   UNL     1      -0.045   9.576  23.593  0.00  0.00    +0.000 C 
ENDBRANCH  15  18
ENDBRANCH   1  13
BRANCH   5  20
ATOM     20  C   UNL     1       5.419   5.194  16.062  0.00  0.00    +0.000 A 
ATOM     21  C   UNL     1       5.300   4.016  15.328  0.00  0.00    +0.000 A 
ATOM     22  C   UNL     1       6.378   3.948  14.414  0.00  0.00    +0.000 A 
ATOM     23  C   UNL     1       7.111   5.085  14.621  0.00  0.00    +0.000 A 
ATOM     24  O   UNL     1       6.552   5.839  15.598  0.00  0.00    +0.000 OA
ENDBRANCH   5  20
TORSDOF 4
ENDMDL
MODEL 8
REMARK VINA RESULT:      -7.0      1.357      8.753
REMARK  Name = 
REMARK  6 active torsions:
REMARK  status: ('A' for Active; 'I' for Inactive)
REMARK    1  A    between atoms: C_1  and  O_2
REMARK    2  A    between atoms: O_2  and  C_3
REMARK    3  A    between atoms: C_6  and  C_7
REMARK    4  A    between atoms: C_11  and  C_12
REMARK    5  A    between atoms: C_22  and  O_23
REMARK    6  A    between atoms: O_23  and  C_24
REMARK                            x       y       z     vdW  Elec       q    Type
REMARK                         _______ _______ _______ _____ _____    ______ ____
ROOT
ATOM      1  C   UNL     1       1.788   8.101  19.629  0.00  0.00    +0.000 A 
ATOM      2  C   UNL     1       2.390   8.200  18.391  0.00  0.00    +0.000 A 
ATOM      3  N   UNL     1       3.149   7.063  18.254  0.00  0.00    +0.000 N 
ATOM      4  C   UNL     1       3.955   6.655  17.194  0.00  0.00    +0.000 A 
ATOM      5  C   UNL     1       4.619   5.482  17.267  0.00  0.00    +0.000 A 
ATOM      6  C   UNL     1       4.452   4.692  18.498  0.00  0.00    +0.000 A 
ATOM      7  C   UNL     1       3.676   5.103  19.518  0.00  0.00    +0.000 A 
ATOM      8  C   UNL     1       2.978   6.332  19.420  0.00  0.00    +0.000 A 
ATOM      9  N   UNL     1       2.166   6.936  20.258  0.00  0.00    +0.000 NA
ENDROOT
BRANCH   1  13
ATOM     10  C   UNL     1      -0.598  11.084  21.542  0.00  0.00    +0.000 A 
ATOM     11  C   UNL     1      -0.052  10.018  22.271  0.00  0.00    +0.000 A 
ATOM     12  C   UNL     1       0.710   9.037  21.635  0.00  0.00    +0.000 A 
ATOM     13  C   UNL     1       0.909   9.077  20.252  0.00  0.00    +0.000 A 
ATOM     14  C   UNL     1       0.269  10.081  19.518  0.00  0.00    +0.000 A 
ATOM     15  C   UNL     1      -0.491  11.083  20.144  0.00  0.00    +0.000 A 
BRANCH  10  17
ATOM     16  C   UNL     1      -0.484  13.306  22.323  0.00  0.00    +0.000 C 
ATOM     17  O   UNL     1      -1.247  12.106  22.182  0.00  0.00    +0.000 OA
ENDBRANCH  10  17
BRANCH  15  18
ATOM     18  O   UNL     1      -1.006  11.971  19.238  0.00  0.00    +0.000 OA
ATOM     19  C   UNL     1      -2.213  11.647  18.567  0.00  0.00    +0.000 C 
ENDBRANCH  15  18
ENDBRANCH   1  13
BRANCH   5  20
ATOM     20  C   UNL     1       5.440   5.083  16.159  0.00  0.00    +0.000 A 
ATOM     21  C   UNL     1       5.324   3.972  15.327  0.00  0.00    +0.000 A 
ATOM     22  C   UNL     1       6.375   4.009  14.381  0.00  0.00    +0.000 A 
ATOM     23  C   UNL     1       7.091   5.140  14.667  0.00  0.00    +0.000 A 
ATOM     24  O   UNL     1       6.545   5.792  15.722  0.00  0.00    +0.000 OA
ENDBRANCH   5  20
TORSDOF 4
ENDMDL
MODEL 9
REMARK VINA RESULT:      -7.0      1.383      2.349
REMARK  Name = 
REMARK  6 active torsions:
REMARK  status: ('A' for Active; 'I' for Inactive)
REMARK    1  A    between atoms: C_1  and  O_2
REMARK    2  A    between atoms: O_2  and  C_3
REMARK    3  A    between atoms: C_6  and  C_7
REMARK    4  A    between atoms: C_11  and  C_12
REMARK    5  A    between atoms: C_22  and  O_23
REMARK    6  A    between atoms: O_23  and  C_24
REMARK                            x       y       z     vdW  Elec       q    Type
REMARK                         _______ _______ _______ _____ _____    ______ ____
ROOT
ATOM      1  C   UNL     1       2.366   7.561  18.988  0.00  0.00    +0.000 A 
ATOM      2  C   UNL     1       1.782   8.719  18.516  0.00  0.00    +0.000 A 
ATOM      3  N   UNL     1       1.123   9.268  19.589  0.00  0.00    +0.000 N 
ATOM      4  C   UNL     1       0.374  10.441  19.666  0.00  0.00    +0.000 A 
ATOM      5  C   UNL     1      -0.191  10.800  20.839  0.00  0.00    +0.000 A 
ATOM      6  C   UNL     1       0.017   9.904  21.987  0.00  0.00    +0.000 A 
ATOM      7  C   UNL     1       0.736   8.770  21.895  0.00  0.00    +0.000 A 
ATOM      8  C   UNL     1       1.331   8.413  20.661  0.00  0.00    +0.000 A 
ATOM      9  N   UNL     1       2.074   7.383  20.323  0.00  0.00    +0.000 NA
ENDROOT
BRANCH   1  13
ATOM     10  C   UNL     1       4.856   4.805  16.880  0.00  0.00    +0.000 A 
ATOM     11  C   UNL     1       4.886   6.175  16.587  0.00  0.00    +0.000 A 
ATOM     12  C   UNL     1       4.055   7.066  17.266  0.00  0.00    +0.000 A 
ATOM     13  C   UNL     1       3.148   6.604  18.224  0.00  0.00    +0.000 A 
ATOM     14  C   UNL     1       3.047   5.224  18.431  0.00  0.00    +0.000 A 
ATOM     15  C   UNL     1       3.885   4.314  17.764  0.00  0.00    +0.000 A 
BRANCH  10  17
ATOM     16  C   UNL     1       6.950   4.565  15.820  0.00  0.00    +0.000 C 
ATOM     17  O   UNL     1       5.751   3.948  16.295  0.00  0.00    +0.000 OA
ENDBRANCH  10  17
BRANCH  15  18
ATOM     18  O   UNL     1       3.627   3.021  18.133  0.00  0.00    +0.000 OA
ATOM     19  C   UNL     1       2.442   2.396  17.667  0.00  0.00    +0.000 C 
ENDBRANCH  15  18
ENDBRANCH   1  13
BRANCH   5  20
ATOM     20  C   UNL     1      -0.955  12.015  20.892  0.00  0.00    +0.000 A 
ATOM     21  C   UNL     1      -2.188  12.311  20.317  0.00  0.00    +0.000 A 
ATOM     22  C   UNL     1      -2.529  13.643  20.648  0.00  0.00    +0.000 A 
ATOM     23  C   UNL     1      -1.495  14.110  21.415  0.00  0.00    +0.000 A 
ATOM     24  O   UNL     1      -0.550  13.151  21.572  0.00  0.00    +0.000 OA
ENDBRANCH   5  20
TORSDOF 4
ENDMDL
