MODEL 1
REMARK VINA RESULT:      -8.3      0.000      0.000
REMARK  Name = 
REMARK  7 active torsions:
REMARK  status: ('A' for Active; 'I' for Inactive)
REMARK    1  A    between atoms: C_1  and  C_2
REMARK    2  A    between atoms: C_2  and  C_3
REMARK    3  A    between atoms: C_8  and  C_9
REMARK    4  A    between atoms: C_13  and  N_14
REMARK    5  A    between atoms: C_15  and  C_17
REMARK    6  A    between atoms: C_20  and  C_21
REMARK    7  A    between atoms: C_25  and  O_26
REMARK                            x       y       z     vdW  Elec       q    Type
REMARK                         _______ _______ _______ _____ _____    ______ ____
ROOT
ATOM      1  C   UNL     1       2.457   2.100  18.913  0.00  0.00    +0.000 C 
ATOM      2  C   UNL     1       3.086   3.504  18.887  0.00  0.00    +0.000 C 
ATOM      3  C   UNL     1       2.758   4.151  20.247  0.00  0.00    +0.000 C 
ATOM      4  O   UNL     1       4.520   3.368  18.792  0.00  0.00    +0.000 OA
ATOM      5  C   UNL     1       5.207   4.504  18.430  0.00  0.00    +0.000 A 
ATOM      6  C   UNL     1       6.591   4.441  18.621  0.00  0.00    +0.000 A 
ATOM      7  C   UNL     1       7.394   5.546  18.334  0.00  0.00    +0.000 A 
ATOM      8  C   UNL     1       6.820   6.721  17.841  0.00  0.00    +0.000 A 
ATOM      9  C   UNL     1       5.433   6.768  17.618  0.00  0.00    +0.000 A 
ATOM     10  C   UNL     1       4.611   5.664  17.900  0.00  0.00    +0.000 A 
ATOM     11  C   UNL     1       3.109   5.722  17.642  0.00  0.00    +0.000 C 
ATOM     12  C   UNL     1       2.581   4.260  17.639  0.00  0.00    +0.000 C 
ENDROOT
BRANCH  11  13
ATOM     13  N   UNL     1       2.476   6.624  18.616  0.00  0.00    +0.000 N 
ATOM     14  C   UNL     1       2.218   7.956  18.376  0.00  0.00    +0.000 C 
ATOM     15  O   UNL     1       2.522   8.522  17.336  0.00  0.00    +0.000 OA
ATOM     16  H   UNL     1       2.041   6.189  19.417  0.00  0.00    +0.000 HD
BRANCH  14  17
ATOM     17  C   UNL     1       1.414   8.675  19.392  0.00  0.00    +0.000 A 
ATOM     18  C   UNL     1       0.657   9.801  19.061  0.00  0.00    +0.000 A 
ATOM     19  C   UNL     1      -0.017  10.500  20.065  0.00  0.00    +0.000 A 
ATOM     20  C   UNL     1       0.054  10.070  21.396  0.00  0.00    +0.000 A 
ATOM     21  C   UNL     1       0.769   8.913  21.717  0.00  0.00    +0.000 A 
ATOM     22  C   UNL     1       1.448   8.215  20.716  0.00  0.00    +0.000 A 
BRANCH  20  23
ATOM     23  C   UNL     1      -0.584  10.833  22.428  0.00  0.00    +0.000 C 
ATOM     24  N   UNL     1      -1.118  11.461  23.245  0.00  0.00    +0.000 NA
ENDBRANCH  20  23
ENDBRANCH  14  17
ENDBRANCH  11  13
BRANCH   8  25
ATOM     25  C   UNL     1       7.641   7.861  17.566  0.00  0.00    +0.000 C 
ATOM     26  N   UNL     1       8.300   8.797  17.333  0.00  0.00    +0.000 NA
ENDBRANCH   8  25
BRANCH  12  27
ATOM     27  O   UNL     1       1.185   4.076  17.428  0.00  0.00    +0.000 OA
ATOM     28  H   UNL     1       0.878   4.679  16.723  0.00  0.00    +0.000 HD
ENDBRANCH  12  27
TORSDOF 5
ENDMDL
MODEL 2
REMARK VINA RESULT:      -7.5      3.398      8.383
REMARK  Name = 
REMARK  7 active torsions:
REMARK  status: ('A' for Active; 'I' for Inactive)
REMARK    1  A    between atoms: C_1  and  C_2
REMARK    2  A    between atoms: C_2  and  C_3
REMARK    3  A    between atoms: C_8  and  C_9
REMARK    4  A    between atoms: C_13  and  N_14
REMARK    5  A    between atoms: C_15  and  C_17
REMARK    6  A    between atoms: C_20  and  C_21
REMARK    7  A    between atoms: C_25  and  O_26
REMARK                            x       y       z     vdW  Elec       q    Type
REMARK                         _______ _______ _______ _____ _____    ______ ____
ROOT
ATOM      1  C   UNL     1      -0.691  12.618  22.637  0.00  0.00    +0.000 C 
ATOM      2  C   UNL     1      -0.836  11.815  21.332  0.00  0.00    +0.000 C 
ATOM      3  C   UNL     1      -0.877  10.330  21.740  0.00  0.00    +0.000 C 
ATOM      4  O   UNL     1      -2.102  12.146  20.723  0.00  0.00    +0.000 OA
ATOM      5  C   UNL     1      -2.248  11.777  19.405  0.00  0.00    +0.000 A 
ATOM      6  C   UNL     1      -3.556  11.837  18.918  0.00  0.00    +0.000 A 
ATOM      7  C   UNL     1      -3.842  11.445  17.609  0.00  0.00    +0.000 A 
ATOM      8  C   UNL     1      -2.815  10.999  16.771  0.00  0.00    +0.000 A 
ATOM      9  C   UNL     1      -1.496  10.973  17.254  0.00  0.00    +0.000 A 
ATOM     10  C   UNL     1      -1.192  11.367  18.569  0.00  0.00    +0.000 A 
ATOM     11  C   UNL     1       0.245  11.346  19.078  0.00  0.00    +0.000 C 
ATOM     12  C   UNL     1       0.296  12.219  20.363  0.00  0.00    +0.000 C 
ENDROOT
BRANCH  11  13
ATOM     13  N   UNL     1       0.692   9.954  19.239  0.00  0.00    +0.000 N 
ATOM     14  C   UNL     1       1.623   9.346  18.426  0.00  0.00    +0.000 C 
ATOM     15  O   UNL     1       2.145   9.902  17.470  0.00  0.00    +0.000 OA
ATOM     16  H   UNL     1       0.440   9.497  20.104  0.00  0.00    +0.000 HD
BRANCH  14  17
ATOM     17  C   UNL     1       2.093   8.001  18.835  0.00  0.00    +0.000 A 
ATOM     18  C   UNL     1       2.835   7.193  17.971  0.00  0.00    +0.000 A 
ATOM     19  C   UNL     1       3.182   5.898  18.364  0.00  0.00    +0.000 A 
ATOM     20  C   UNL     1       2.801   5.415  19.623  0.00  0.00    +0.000 A 
ATOM     21  C   UNL     1       2.104   6.245  20.506  0.00  0.00    +0.000 A 
ATOM     22  C   UNL     1       1.750   7.537  20.113  0.00  0.00    +0.000 A 
BRANCH  20  23
ATOM     23  C   UNL     1       3.103   4.063  19.989  0.00  0.00    +0.000 C 
ATOM     24  N   UNL     1       3.370   2.970  20.272  0.00  0.00    +0.000 NA
ENDBRANCH  20  23
ENDBRANCH  14  17
ENDBRANCH  11  13
BRANCH   8  25
ATOM     25  C   UNL     1      -3.110  10.578  15.435  0.00  0.00    +0.000 C 
ATOM     26  N   UNL     1      -3.346  10.220  14.348  0.00  0.00    +0.000 NA
ENDBRANCH   8  25
BRANCH  12  27
ATOM     27  O   UNL     1       1.553  12.330  21.022  0.00  0.00    +0.000 OA
ATOM     28  H   UNL     1       2.272  12.106  20.398  0.00  0.00    +0.000 HD
ENDBRANCH  12  27
TORSDOF 5
ENDMDL
MODEL 3
REMARK VINA RESULT:      -7.3      3.412      8.409
REMARK  Name = 
REMARK  7 active torsions:
REMARK  status: ('A' for Active; 'I' for Inactive)
REMARK    1  A    between atoms: C_1  and  C_2
REMARK    2  A    between atoms: C_2  and  C_3
REMARK    3  A    between atoms: C_8  and  C_9
REMARK    4  A    between atoms: C_13  and  N_14
REMARK    5  A    between atoms: C_15  and  C_17
REMARK    6  A    between atoms: C_20  and  C_21
REMARK    7  A    between atoms: C_25  and  O_26
REMARK                            x       y       z     vdW  Elec       q    Type
REMARK                         _______ _______ _______ _____ _____    ______ ____
ROOT
ATOM      1  C   UNL     1      -0.706  12.282  22.676  0.00  0.00    +0.000 C 
ATOM      2  C   UNL     1      -0.812  11.586  21.308  0.00  0.00    +0.000 C 
ATOM      3  C   UNL     1      -0.762  10.071  21.587  0.00  0.00    +0.000 C 
ATOM      4  O   UNL     1      -2.101  11.890  20.732  0.00  0.00    +0.000 OA
ATOM      5  C   UNL     1      -2.234  11.626  19.388  0.00  0.00    +0.000 A 
ATOM      6  C   UNL     1      -3.547  11.649  18.910  0.00  0.00    +0.000 A 
ATOM      7  C   UNL     1      -3.819  11.353  17.574  0.00  0.00    +0.000 A 
ATOM      8  C   UNL     1      -2.773  11.043  16.699  0.00  0.00    +0.000 A 
ATOM      9  C   UNL     1      -1.451  11.055  17.174  0.00  0.00    +0.000 A 
ATOM     10  C   UNL     1      -1.162  11.353  18.517  0.00  0.00    +0.000 A 
ATOM     11  C   UNL     1       0.278  11.375  19.019  0.00  0.00    +0.000 C 
ATOM     12  C   UNL     1       0.286  12.138  20.374  0.00  0.00    +0.000 C 
ENDROOT
BRANCH  11  13
ATOM     13  N   UNL     1       0.808  10.004  19.060  0.00  0.00    +0.000 N 
ATOM     14  C   UNL     1       1.767   9.525  18.196  0.00  0.00    +0.000 C 
ATOM     15  O   UNL     1       2.248  10.190  17.290  0.00  0.00    +0.000 OA
ATOM     16  H   UNL     1       0.591   9.461  19.884  0.00  0.00    +0.000 HD
BRANCH  14  17
ATOM     17  C   UNL     1       2.319   8.181  18.488  0.00  0.00    +0.000 A 
ATOM     18  C   UNL     1       2.018   7.509  19.674  0.00  0.00    +0.000 A 
ATOM     19  C   UNL     1       2.629   6.284  19.949  0.00  0.00    +0.000 A 
ATOM     20  C   UNL     1       3.529   5.721  19.035  0.00  0.00    +0.000 A 
ATOM     21  C   UNL     1       3.789   6.370  17.825  0.00  0.00    +0.000 A 
ATOM     22  C   UNL     1       3.184   7.598  17.550  0.00  0.00    +0.000 A 
BRANCH  20  23
ATOM     23  C   UNL     1       4.202   4.498  19.357  0.00  0.00    +0.000 C 
ATOM     24  N   UNL     1       4.738   3.509  19.643  0.00  0.00    +0.000 NA
ENDBRANCH  20  23
ENDBRANCH  14  17
ENDBRANCH  11  13
BRANCH   8  25
ATOM     25  C   UNL     1      -3.053  10.720  15.332  0.00  0.00    +0.000 C 
ATOM     26  N   UNL     1      -3.295  10.450  14.222  0.00  0.00    +0.000 NA
ENDBRANCH   8  25
BRANCH  12  27
ATOM     27  O   UNL     1       1.539  12.268  21.037  0.00  0.00    +0.000 OA
ATOM     28  H   UNL     1       1.408  12.699  21.904  0.00  0.00    +0.000 HD
ENDBRANCH  12  27
TORSDOF 5
ENDMDL
MODEL 4
REMARK VINA RESULT:      -7.3      3.068      4.381
REMARK  Name = 
REMARK  7 active torsions:
REMARK  status: ('A' for Active; 'I' for Inactive)
REMARK    1  A    between atoms: C_1  and  C_2
REMARK    2  A    between atoms: C_2  and  C_3
REMARK    3  A    between atoms: C_8  and  C_9
REMARK    4  A    between atoms: C_13  and  N_14
REMARK    5  A    between atoms: C_15  and  C_17
REMARK    6  A    between atoms: C_20  and  C_21
REMARK    7  A    between atoms: C_25  and  O_26
REMARK                            x       y       z     vdW  Elec       q    Type
REMARK                         _______ _______ _______ _____ _____    ______ ____
ROOT
ATOM      1  C   UNL     1       8.371   5.573  19.163  0.00  0.00    +0.000 C 
ATOM      2  C   UNL     1       7.288   5.540  18.069  0.00  0.00    +0.000 C 
ATOM      3  C   UNL     1       6.765   6.983  17.934  0.00  0.00    +0.000 C 
ATOM      4  O   UNL     1       7.906   5.170  16.818  0.00  0.00    +0.000 OA
ATOM      5  C   UNL     1       7.045   4.776  15.819  0.00  0.00    +0.000 A 
ATOM      6  C   UNL     1       7.617   4.701  14.545  0.00  0.00    +0.000 A 
ATOM      7  C   UNL     1       6.837   4.356  13.440  0.00  0.00    +0.000 A 
ATOM      8  C   UNL     1       5.477   4.071  13.603  0.00  0.00    +0.000 A 
ATOM      9  C   UNL     1       4.915   4.114  14.890  0.00  0.00    +0.000 A 
ATOM     10  C   UNL     1       5.688   4.457  16.013  0.00  0.00    +0.000 A 
ATOM     11  C   UNL     1       5.069   4.488  17.406  0.00  0.00    +0.000 C 
ATOM     12  C   UNL     1       6.236   4.470  18.433  0.00  0.00    +0.000 C 
ENDROOT
BRANCH  11  13
ATOM     13  N   UNL     1       4.148   5.629  17.512  0.00  0.00    +0.000 N 
ATOM     14  C   UNL     1       3.279   5.820  18.564  0.00  0.00    +0.000 C 
ATOM     15  O   UNL     1       3.171   5.038  19.497  0.00  0.00    +0.000 OA
ATOM     16  H   UNL     1       4.307   6.398  16.877  0.00  0.00    +0.000 HD
BRANCH  14  17
ATOM     17  C   UNL     1       2.552   7.111  18.605  0.00  0.00    +0.000 A 
ATOM     18  C   UNL     1       2.544   7.980  17.512  0.00  0.00    +0.000 A 
ATOM     19  C   UNL     1       1.921   9.225  17.623  0.00  0.00    +0.000 A 
ATOM     20  C   UNL     1       1.294   9.598  18.820  0.00  0.00    +0.000 A 
ATOM     21  C   UNL     1       1.258   8.705  19.895  0.00  0.00    +0.000 A 
ATOM     22  C   UNL     1       1.886   7.463  19.788  0.00  0.00    +0.000 A 
BRANCH  20  23
ATOM     23  C   UNL     1       0.717  10.903  18.946  0.00  0.00    +0.000 C 
ATOM     24  N   UNL     1       0.272  11.971  19.041  0.00  0.00    +0.000 NA
ENDBRANCH  20  23
ENDBRANCH  14  17
ENDBRANCH  11  13
BRANCH   8  25
ATOM     25  C   UNL     1       4.673   3.737  12.467  0.00  0.00    +0.000 C 
ATOM     26  N   UNL     1       4.012   3.452  11.547  0.00  0.00    +0.000 NA
ENDBRANCH   8  25
BRANCH  12  27
ATOM     27  O   UNL     1       5.886   4.509  19.813  0.00  0.00    +0.000 OA
ATOM     28  H   UNL     1       5.383   3.704  20.046  0.00  0.00    +0.000 HD
ENDBRANCH  12  27
TORSDOF 5
ENDMDL
MODEL 5
REMARK VINA RESULT:      -6.2      5.892      8.622
REMARK  Name = 
REMARK  7 active torsions:
REMARK  status: ('A' for Active; 'I' for Inactive)
REMARK    1  A    between atoms: C_1  and  C_2
REMARK    2  A    between atoms: C_2  and  C_3
REMARK    3  A    between atoms: C_8  and  C_9
REMARK    4  A    between atoms: C_13  and  N_14
REMARK    5  A    between atoms: C_15  and  C_17
REMARK    6  A    between atoms: C_20  and  C_21
REMARK    7  A    between atoms: C_25  and  O_26
REMARK                            x       y       z     vdW  Elec       q    Type
REMARK                         _______ _______ _______ _____ _____    ______ ____
ROOT
ATOM      1  C   UNL     1       0.838   9.485  20.036  0.00  0.00    +0.000 C 
ATOM      2  C   UNL     1       0.320  10.933  19.976  0.00  0.00    +0.000 C 
ATOM      3  C   UNL     1      -0.402  11.191  21.312  0.00  0.00    +0.000 C 
ATOM      4  O   UNL     1       1.452  11.826  19.900  0.00  0.00    +0.000 OA
ATOM      5  C   UNL     1       1.171  13.117  19.513  0.00  0.00    +0.000 A 
ATOM      6  C   UNL     1       2.207  14.032  19.720  0.00  0.00    +0.000 A 
ATOM      7  C   UNL     1       2.031  15.381  19.409  0.00  0.00    +0.000 A 
ATOM      8  C   UNL     1       0.816  15.824  18.876  0.00  0.00    +0.000 A 
ATOM      9  C   UNL     1      -0.210  14.895  18.637  0.00  0.00    +0.000 A 
ATOM     10  C   UNL     1      -0.047  13.533  18.942  0.00  0.00    +0.000 A 
ATOM     11  C   UNL     1      -1.163  12.532  18.666  0.00  0.00    +0.000 C 
ATOM     12  C   UNL     1      -0.533  11.111  18.701  0.00  0.00    +0.000 C 
ENDROOT
BRANCH  11  13
ATOM     13  N   UNL     1      -2.271  12.757  19.607  0.00  0.00    +0.000 N 
ATOM     14  C   UNL     1      -3.561  12.322  19.393  0.00  0.00    +0.000 C 
ATOM     15  O   UNL     1      -3.912  11.731  18.382  0.00  0.00    +0.000 OA
ATOM     16  H   UNL     1      -2.021  13.076  20.531  0.00  0.00    +0.000 HD
BRANCH  14  17
ATOM     17  C   UNL     1      -4.513  12.473  20.519  0.00  0.00    +0.000 A 
ATOM     18  C   UNL     1      -5.882  12.250  20.353  0.00  0.00    +0.000 A 
ATOM     19  C   UNL     1      -6.754  12.489  21.416  0.00  0.00    +0.000 A 
ATOM     20  C   UNL     1      -6.262  12.936  22.649  0.00  0.00    +0.000 A 
ATOM     21  C   UNL     1      -4.886  13.108  22.829  0.00  0.00    +0.000 A 
ATOM     22  C   UNL     1      -4.012  12.876  21.765  0.00  0.00    +0.000 A 
BRANCH  20  23
ATOM     23  C   UNL     1      -7.172  13.243  23.712  0.00  0.00    +0.000 C 
ATOM     24  N   UNL     1      -7.914  13.465  24.577  0.00  0.00    +0.000 NA
ENDBRANCH  20  23
ENDBRANCH  14  17
ENDBRANCH  11  13
BRANCH   8  25
ATOM     25  C   UNL     1       0.628  17.212  18.576  0.00  0.00    +0.000 C 
ATOM     26  N   UNL     1       0.484  18.342  18.320  0.00  0.00    +0.000 NA
ENDBRANCH   8  25
BRANCH  12  27
ATOM     27  O   UNL     1      -1.406  10.009  18.481  0.00  0.00    +0.000 OA
ATOM     28  H   UNL     1      -1.332   9.713  17.552  0.00  0.00    +0.000 HD
ENDBRANCH  12  27
TORSDOF 5
ENDMDL
MODEL 6
REMARK VINA RESULT:      -6.2      4.228      9.968
REMARK  Name = 
REMARK  7 active torsions:
REMARK  status: ('A' for Active; 'I' for Inactive)
REMARK    1  A    between atoms: C_1  and  C_2
REMARK    2  A    between atoms: C_2  and  C_3
REMARK    3  A    between atoms: C_8  and  C_9
REMARK    4  A    between atoms: C_13  and  N_14
REMARK    5  A    between atoms: C_15  and  C_17
REMARK    6  A    between atoms: C_20  and  C_21
REMARK    7  A    between atoms: C_25  and  O_26
REMARK                            x       y       z     vdW  Elec       q    Type
REMARK                         _______ _______ _______ _____ _____    ______ ____
ROOT
ATOM      1  C   UNL     1      -0.536  14.734  23.122  0.00  0.00    +0.000 C 
ATOM      2  C   UNL     1      -1.266  13.729  22.212  0.00  0.00    +0.000 C 
ATOM      3  C   UNL     1      -0.779  12.330  22.636  0.00  0.00    +0.000 C 
ATOM      4  O   UNL     1      -2.683  13.808  22.479  0.00  0.00    +0.000 OA
ATOM      5  C   UNL     1      -3.502  13.226  21.538  0.00  0.00    +0.000 A 
ATOM      6  C   UNL     1      -4.830  13.054  21.940  0.00  0.00    +0.000 A 
ATOM      7  C   UNL     1      -5.749  12.435  21.093  0.00  0.00    +0.000 A 
ATOM      8  C   UNL     1      -5.350  11.992  19.828  0.00  0.00    +0.000 A 
ATOM      9  C   UNL     1      -4.023  12.199  19.414  0.00  0.00    +0.000 A 
ATOM     10  C   UNL     1      -3.085  12.823  20.255  0.00  0.00    +0.000 A 
ATOM     11  C   UNL     1      -1.651  13.053  19.791  0.00  0.00    +0.000 C 
ATOM     12  C   UNL     1      -1.021  14.113  20.737  0.00  0.00    +0.000 C 
ENDROOT
BRANCH  11  13
ATOM     13  N   UNL     1      -0.943  11.766  19.718  0.00  0.00    +0.000 N 
ATOM     14  C   UNL     1       0.211  11.563  18.994  0.00  0.00    +0.000 C 
ATOM     15  O   UNL     1       0.739  12.432  18.316  0.00  0.00    +0.000 OA
ATOM     16  H   UNL     1      -1.219  11.061  20.388  0.00  0.00    +0.000 HD
BRANCH  14  17
ATOM     17  C   UNL     1       0.893  10.260  19.173  0.00  0.00    +0.000 A 
ATOM     18  C   UNL     1       1.604   9.658  18.133  0.00  0.00    +0.000 A 
ATOM     19  C   UNL     1       2.158   8.390  18.317  0.00  0.00    +0.000 A 
ATOM     20  C   UNL     1       2.014   7.726  19.543  0.00  0.00    +0.000 A 
ATOM     21  C   UNL     1       1.346   8.353  20.600  0.00  0.00    +0.000 A 
ATOM     22  C   UNL     1       0.787   9.618  20.416  0.00  0.00    +0.000 A 
BRANCH  20  23
ATOM     23  C   UNL     1       2.526   6.398  19.699  0.00  0.00    +0.000 C 
ATOM     24  N   UNL     1       2.923   5.317  19.844  0.00  0.00    +0.000 NA
ENDBRANCH  20  23
ENDBRANCH  14  17
ENDBRANCH  11  13
BRANCH   8  25
ATOM     25  C   UNL     1      -6.288  11.339  18.966  0.00  0.00    +0.000 C 
ATOM     26  N   UNL     1      -7.046  10.810  18.251  0.00  0.00    +0.000 NA
ENDBRANCH   8  25
BRANCH  12  27
ATOM     27  O   UNL     1       0.335  14.474  20.494  0.00  0.00    +0.000 OA
ATOM     28  H   UNL     1       0.816  13.709  20.120  0.00  0.00    +0.000 HD
ENDBRANCH  12  27
TORSDOF 5
ENDMDL
MODEL 7
REMARK VINA RESULT:      -6.2      3.951      9.837
REMARK  Name = 
REMARK  7 active torsions:
REMARK  status: ('A' for Active; 'I' for Inactive)
REMARK    1  A    between atoms: C_1  and  C_2
REMARK    2  A    between atoms: C_2  and  C_3
REMARK    3  A    between atoms: C_8  and  C_9
REMARK    4  A    between atoms: C_13  and  N_14
REMARK    5  A    between atoms: C_15  and  C_17
REMARK    6  A    between atoms: C_20  and  C_21
REMARK    7  A    between atoms: C_25  and  O_26
REMARK                            x       y       z     vdW  Elec       q    Type
REMARK                         _______ _______ _______ _____ _____    ______ ____
ROOT
ATOM      1  C   UNL     1       1.513  15.929  19.701  0.00  0.00    +0.000 C 
ATOM      2  C   UNL     1       0.698  14.836  20.417  0.00  0.00    +0.000 C 
ATOM      3  C   UNL     1       1.710  13.762  20.860  0.00  0.00    +0.000 C 
ATOM      4  O   UNL     1       0.104  15.405  21.603  0.00  0.00    +0.000 OA
ATOM      5  C   UNL     1      -0.910  14.671  22.176  0.00  0.00    +0.000 A 
ATOM      6  C   UNL     1      -1.275  15.076  23.463  0.00  0.00    +0.000 A 
ATOM      7  C   UNL     1      -2.260  14.383  24.169  0.00  0.00    +0.000 A 
ATOM      8  C   UNL     1      -2.898  13.284  23.585  0.00  0.00    +0.000 A 
ATOM      9  C   UNL     1      -2.552  12.902  22.278  0.00  0.00    +0.000 A 
ATOM     10  C   UNL     1      -1.564  13.591  21.554  0.00  0.00    +0.000 A 
ATOM     11  C   UNL     1      -1.206  13.174  20.131  0.00  0.00    +0.000 C 
ATOM     12  C   UNL     1      -0.433  14.356  19.482  0.00  0.00    +0.000 C 
ENDROOT
BRANCH  11  13
ATOM     13  N   UNL     1      -0.493  11.889  20.157  0.00  0.00    +0.000 N 
ATOM     14  C   UNL     1      -0.358  11.062  19.063  0.00  0.00    +0.000 C 
ATOM     15  O   UNL     1      -0.847  11.309  17.971  0.00  0.00    +0.000 OA
ATOM     16  H   UNL     1       0.081  11.707  20.968  0.00  0.00    +0.000 HD
BRANCH  14  17
ATOM     17  C   UNL     1       0.541   9.894  19.215  0.00  0.00    +0.000 A 
ATOM     18  C   UNL     1       1.268   9.387  18.135  0.00  0.00    +0.000 A 
ATOM     19  C   UNL     1       2.035   8.232  18.300  0.00  0.00    +0.000 A 
ATOM     20  C   UNL     1       2.088   7.590  19.544  0.00  0.00    +0.000 A 
ATOM     21  C   UNL     1       1.402   8.129  20.636  0.00  0.00    +0.000 A 
ATOM     22  C   UNL     1       0.629   9.280  20.472  0.00  0.00    +0.000 A 
BRANCH  20  23
ATOM     23  C   UNL     1       2.823   6.368  19.686  0.00  0.00    +0.000 C 
ATOM     24  N   UNL     1       3.424   5.379  19.774  0.00  0.00    +0.000 NA
ENDBRANCH  20  23
ENDBRANCH  14  17
ENDBRANCH  11  13
BRANCH   8  25
ATOM     25  C   UNL     1      -3.894  12.561  24.317  0.00  0.00    +0.000 C 
ATOM     26  N   UNL     1      -4.697  11.969  24.925  0.00  0.00    +0.000 NA
ENDBRANCH   8  25
BRANCH  12  27
ATOM     27  O   UNL     1       0.016  14.179  18.143  0.00  0.00    +0.000 OA
ATOM     28  H   UNL     1       0.186  13.231  17.977  0.00  0.00    +0.000 HD
ENDBRANCH  12  27
TORSDOF 5
ENDMDL
MODEL 8
REMARK VINA RESULT:      -6.1      3.683      8.823
REMARK  Name = 
REMARK  7 active torsions:
REMARK  status: ('A' for Active; 'I' for Inactive)
REMARK    1  A    between atoms: C_1  and  C_2
REMARK    2  A    between atoms: C_2  and  C_3
REMARK    3  A    between atoms: C_8  and  C_9
REMARK    4  A    between atoms: C_13  and  N_14
REMARK    5  A    between atoms: C_15  and  C_17
REMARK    6  A    between atoms: C_20  and  C_21
REMARK    7  A    between atoms: C_25  and  O_26
REMARK                            x       y       z     vdW  Elec       q    Type
REMARK                         _______ _______ _______ _____ _____    ______ ____
ROOT
ATOM      1  C   UNL     1       1.904  14.080  21.114  0.00  0.00    +0.000 C 
ATOM      2  C   UNL     1       0.858  13.081  20.587  0.00  0.00    +0.000 C 
ATOM      3  C   UNL     1       1.003  11.809  21.445  0.00  0.00    +0.000 C 
ATOM      4  O   UNL     1      -0.459  13.626  20.816  0.00  0.00    +0.000 OA
ATOM      5  C   UNL     1      -1.485  13.026  20.121  0.00  0.00    +0.000 A 
ATOM      6  C   UNL     1      -2.769  13.360  20.561  0.00  0.00    +0.000 A 
ATOM      7  C   UNL     1      -3.892  12.783  19.966  0.00  0.00    +0.000 A 
ATOM      8  C   UNL     1      -3.739  11.873  18.915  0.00  0.00    +0.000 A 
ATOM      9  C   UNL     1      -2.448  11.566  18.453  0.00  0.00    +0.000 A 
ATOM     10  C   UNL     1      -1.307  12.141  19.040  0.00  0.00    +0.000 A 
ATOM     11  C   UNL     1       0.088  11.810  18.522  0.00  0.00    +0.000 C 
ATOM     12  C   UNL     1       1.056  12.898  19.067  0.00  0.00    +0.000 C 
ENDROOT
BRANCH  11  13
ATOM     13  N   UNL     1       0.430  10.424  18.874  0.00  0.00    +0.000 N 
ATOM     14  C   UNL     1       1.478   9.725  18.317  0.00  0.00    +0.000 C 
ATOM     15  O   UNL     1       2.207  10.186  17.450  0.00  0.00    +0.000 OA
ATOM     16  H   UNL     1      -0.012  10.046  19.700  0.00  0.00    +0.000 HD
BRANCH  14  17
ATOM     17  C   UNL     1       1.794   8.405  18.912  0.00  0.00    +0.000 A 
ATOM     18  C   UNL     1       2.389   7.389  18.161  0.00  0.00    +0.000 A 
ATOM     19  C   UNL     1       2.589   6.132  18.736  0.00  0.00    +0.000 A 
ATOM     20  C   UNL     1       2.209   5.892  20.063  0.00  0.00    +0.000 A 
ATOM     21  C   UNL     1       1.663   6.927  20.828  0.00  0.00    +0.000 A 
ATOM     22  C   UNL     1       1.456   8.182  20.254  0.00  0.00    +0.000 A 
BRANCH  20  23
ATOM     23  C   UNL     1       2.357   4.581  20.621  0.00  0.00    +0.000 C 
ATOM     24  N   UNL     1       2.462   3.527  21.095  0.00  0.00    +0.000 NA
ENDBRANCH  20  23
ENDBRANCH  14  17
ENDBRANCH  11  13
BRANCH   8  25
ATOM     25  C   UNL     1      -4.890  11.266  18.319  0.00  0.00    +0.000 C 
ATOM     26  N   UNL     1      -5.825  10.757  17.839  0.00  0.00    +0.000 NA
ENDBRANCH   8  25
BRANCH  12  27
ATOM     27  O   UNL     1       2.431  12.777  18.715  0.00  0.00    +0.000 OA
ATOM     28  H   UNL     1       2.939  13.504  19.127  0.00  0.00    +0.000 HD
ENDBRANCH  12  27
TORSDOF 5
ENDMDL
MODEL 9
REMARK VINA RESULT:      -5.9      3.780      9.745
REMARK  Name = 
REMARK  7 active torsions:
REMARK  status: ('A' for Active; 'I' for Inactive)
REMARK    1  A    between atoms: C_1  and  C_2
REMARK    2  A    between atoms: C_2  and  C_3
REMARK    3  A    between atoms: C_8  and  C_9
REMARK    4  A    between atoms: C_13  and  N_14
REMARK    5  A    between atoms: C_15  and  C_17
REMARK    6  A    between atoms: C_20  and  C_21
REMARK    7  A    between atoms: C_25  and  O_26
REMARK                            x       y       z     vdW  Elec       q    Type
REMARK                         _______ _______ _______ _____ _____    ______ ____
ROOT
ATOM      1  C   UNL     1       2.514  15.926  20.320  0.00  0.00    +0.000 C 
ATOM      2  C   UNL     1       1.545  14.839  20.820  0.00  0.00    +0.000 C 
ATOM      3  C   UNL     1       2.419  13.647  21.256  0.00  0.00    +0.000 C 
ATOM      4  O   UNL     1       0.854  15.336  21.987  0.00  0.00    +0.000 OA
ATOM      5  C   UNL     1      -0.270  14.634  22.361  0.00  0.00    +0.000 A 
ATOM      6  C   UNL     1      -0.757  14.940  23.635  0.00  0.00    +0.000 A 
ATOM      7  C   UNL     1      -1.865  14.264  24.148  0.00  0.00    +0.000 A 
ATOM      8  C   UNL     1      -2.504  13.283  23.383  0.00  0.00    +0.000 A 
ATOM      9  C   UNL     1      -2.032  13.004  22.090  0.00  0.00    +0.000 A 
ATOM     10  C   UNL     1      -0.919  13.677  21.558  0.00  0.00    +0.000 A 
ATOM     11  C   UNL     1      -0.423  13.374  20.148  0.00  0.00    +0.000 C 
ATOM     12  C   UNL     1       0.503  14.547  19.719  0.00  0.00    +0.000 C 
ENDROOT
BRANCH  11  13
ATOM     13  N   UNL     1       0.190  12.038  20.116  0.00  0.00    +0.000 N 
ATOM     14  C   UNL     1      -0.266  11.002  19.331  0.00  0.00    +0.000 C 
ATOM     15  O   UNL     1      -1.247  11.089  18.607  0.00  0.00    +0.000 OA
ATOM     16  H   UNL     1       1.099  11.948  20.547  0.00  0.00    +0.000 HD
BRANCH  14  17
ATOM     17  C   UNL     1       0.572   9.780  19.282  0.00  0.00    +0.000 A 
ATOM     18  C   UNL     1       0.801   9.005  20.421  0.00  0.00    +0.000 A 
ATOM     19  C   UNL     1       1.667   7.913  20.351  0.00  0.00    +0.000 A 
ATOM     20  C   UNL     1       2.296   7.585  19.143  0.00  0.00    +0.000 A 
ATOM     21  C   UNL     1       2.025   8.331  17.992  0.00  0.00    +0.000 A 
ATOM     22  C   UNL     1       1.163   9.427  18.061  0.00  0.00    +0.000 A 
BRANCH  20  23
ATOM     23  C   UNL     1       3.235   6.504  19.098  0.00  0.00    +0.000 C 
ATOM     24  N   UNL     1       4.011   5.641  19.078  0.00  0.00    +0.000 NA
ENDBRANCH  20  23
ENDBRANCH  14  17
ENDBRANCH  11  13
BRANCH   8  25
ATOM     25  C   UNL     1      -3.628  12.575  23.918  0.00  0.00    +0.000 C 
ATOM     26  N   UNL     1      -4.549  11.994  24.339  0.00  0.00    +0.000 NA
ENDBRANCH   8  25
BRANCH  12  27
ATOM     27  O   UNL     1       1.095  14.466  18.427  0.00  0.00    +0.000 OA
ATOM     28  H   UNL     1       1.585  13.624  18.343  0.00  0.00    +0.000 HD
ENDBRANCH  12  27
TORSDOF 5
ENDMDL
