MODEL 1
REMARK VINA RESULT:      -9.0      0.000      0.000
REMARK  Name = 
REMARK  8 active torsions:
REMARK  status: ('A' for Active; 'I' for Inactive)
REMARK    1  A    between atoms: C_1  and  C_2
REMARK    2  A    between atoms: C_2  and  C_3
REMARK    3  A    between atoms: C_2  and  C_4
REMARK    4  A    between atoms: C_5  and  C_6
REMARK    5  A    between atoms: N_8  and  C_9
REMARK    6  A    between atoms: C_13  and  O_14
REMARK    7  A    between atoms: O_14  and  C_15
REMARK    8  A    between atoms: N_22  and  C_23
REMARK                            x       y       z     vdW  Elec       q    Type
REMARK                         _______ _______ _______ _____ _____    ______ ____
ROOT
ATOM      1  C   UNL     1       2.722   5.355  18.454  0.00  0.00    +0.000 A 
ATOM      2  N   UNL     1       2.163   6.549  18.671  0.00  0.00    +0.000 NA
ATOM      3  C   UNL     1       1.696   6.821  19.886  0.00  0.00    +0.000 A 
ATOM      4  N   UNL     1       1.173   8.084  20.155  0.00  0.00    +0.000 N 
ATOM      5  C   UNL     1       1.362   9.223  19.456  0.00  0.00    +0.000 A 
ATOM      6  C   UNL     1       1.697   9.316  18.080  0.00  0.00    +0.000 A 
ATOM      7  C   UNL     1       1.907  10.650  17.836  0.00  0.00    +0.000 A 
ATOM      8  N   UNL     1       1.672  11.273  19.020  0.00  0.00    +0.000 N 
ATOM      9  C   UNL     1       1.871  12.673  19.300  0.00  0.00    +0.000 C 
ATOM     10  N   UNL     1       1.283  10.440  20.005  0.00  0.00    +0.000 NA
ATOM     11  N   UNL     1       1.733   5.924  20.883  0.00  0.00    +0.000 NA
ATOM     12  C   UNL     1       2.331   4.729  20.652  0.00  0.00    +0.000 A 
ATOM     13  C   UNL     1       2.898   4.398  19.432  0.00  0.00    +0.000 A 
ATOM     14  C   UNL     1       3.576   3.107  19.105  0.00  0.00    +0.000 C 
ATOM     15  S   UNL     1       4.096   2.123  20.533  0.00  0.00    +0.000 S 
ATOM     16  C   UNL     1       2.592   2.340  21.516  0.00  0.00    +0.000 C 
ATOM     17  C   UNL     1       2.390   3.811  21.848  0.00  0.00    +0.000 C 
ATOM     18  H   UNL     1       0.980   8.169  21.142  0.00  0.00    +0.000 HD
ENDROOT
BRANCH   1  19
ATOM     19  O   UNL     1       3.196   5.087  17.180  0.00  0.00    +0.000 OA
BRANCH  19  24
ATOM     20  C   UNL     1       6.536   6.673  16.772  0.00  0.00    +0.000 A 
ATOM     21  C   UNL     1       7.176   5.629  16.096  0.00  0.00    +0.000 A 
ATOM     22  C   UNL     1       6.505   4.437  15.823  0.00  0.00    +0.000 A 
ATOM     23  C   UNL     1       5.181   4.276  16.220  0.00  0.00    +0.000 A 
ATOM     24  C   UNL     1       4.534   5.301  16.914  0.00  0.00    +0.000 A 
ATOM     25  C   UNL     1       5.216   6.494  17.197  0.00  0.00    +0.000 A 
BRANCH  20  28
ATOM     26  C   UNL     1       8.053   8.141  18.068  0.00  0.00    +0.000 C 
ATOM     27  O   UNL     1       8.456   7.308  18.873  0.00  0.00    +0.000 OA
ATOM     28  N   UNL     1       7.163   7.915  17.038  0.00  0.00    +0.000 N 
ATOM     29  H   UNL     1       7.022   8.647  16.354  0.00  0.00    +0.000 HD
BRANCH  26  31
ATOM     30  C   UNL     1       9.290   9.917  19.180  0.00  0.00    +0.000 C 
ATOM     31  C   UNL     1       8.573   9.537  18.105  0.00  0.00    +0.000 C 
BRANCH  30  33
ATOM     32  C   UNL     1       9.260  12.278  18.430  0.00  0.00    +0.000 C 
ATOM     33  C   UNL     1       9.893  11.275  19.396  0.00  0.00    +0.000 C 
ATOM     34  C   UNL     1       9.667  11.716  20.843  0.00  0.00    +0.000 C 
ENDBRANCH  30  33
ENDBRANCH  26  31
ENDBRANCH  20  28
ENDBRANCH  19  24
ENDBRANCH   1  19
TORSDOF 5
ENDMDL
MODEL 2
REMARK VINA RESULT:      -8.2      5.656      9.334
REMARK  Name = 
REMARK  8 active torsions:
REMARK  status: ('A' for Active; 'I' for Inactive)
REMARK    1  A    between atoms: C_1  and  C_2
REMARK    2  A    between atoms: C_2  and  C_3
REMARK    3  A    between atoms: C_2  and  C_4
REMARK    4  A    between atoms: C_5  and  C_6
REMARK    5  A    between atoms: N_8  and  C_9
REMARK    6  A    between atoms: C_13  and  O_14
REMARK    7  A    between atoms: O_14  and  C_15
REMARK    8  A    between atoms: N_22  and  C_23
REMARK                            x       y       z     vdW  Elec       q    Type
REMARK                         _______ _______ _______ _____ _____    ______ ____
ROOT
ATOM      1  C   UNL     1      -1.958  13.211  21.093  0.00  0.00    +0.000 A 
ATOM      2  N   UNL     1      -2.529  12.464  20.144  0.00  0.00    +0.000 NA
ATOM      3  C   UNL     1      -3.794  12.711  19.817  0.00  0.00    +0.000 A 
ATOM      4  N   UNL     1      -4.390  11.993  18.782  0.00  0.00    +0.000 N 
ATOM      5  C   UNL     1      -3.780  11.288  17.807  0.00  0.00    +0.000 A 
ATOM      6  C   UNL     1      -2.485  10.711  17.875  0.00  0.00    +0.000 A 
ATOM      7  C   UNL     1      -2.235  10.204  16.624  0.00  0.00    +0.000 A 
ATOM      8  N   UNL     1      -3.355  10.465  15.901  0.00  0.00    +0.000 N 
ATOM      9  C   UNL     1      -3.533  10.222  14.492  0.00  0.00    +0.000 C 
ATOM     10  N   UNL     1      -4.331  11.068  16.607  0.00  0.00    +0.000 NA
ATOM     11  N   UNL     1      -4.521  13.655  20.434  0.00  0.00    +0.000 NA
ATOM     12  C   UNL     1      -3.915  14.423  21.374  0.00  0.00    +0.000 A 
ATOM     13  C   UNL     1      -2.583  14.267  21.721  0.00  0.00    +0.000 A 
ATOM     14  C   UNL     1      -1.847  15.076  22.741  0.00  0.00    +0.000 C 
ATOM     15  S   UNL     1      -2.623  16.648  23.189  0.00  0.00    +0.000 S 
ATOM     16  C   UNL     1      -4.321  16.034  23.312  0.00  0.00    +0.000 C 
ATOM     17  C   UNL     1      -4.786  15.503  21.964  0.00  0.00    +0.000 C 
ATOM     18  H   UNL     1      -5.299  12.382  18.577  0.00  0.00    +0.000 HD
ENDROOT
BRANCH   1  19
ATOM     19  O   UNL     1      -0.642  12.933  21.426  0.00  0.00    +0.000 OA
BRANCH  19  24
ATOM     20  C   UNL     1       0.775   9.527  20.945  0.00  0.00    +0.000 A 
ATOM     21  C   UNL     1       0.181   8.903  22.047  0.00  0.00    +0.000 A 
ATOM     22  C   UNL     1      -0.636   9.621  22.922  0.00  0.00    +0.000 A 
ATOM     23  C   UNL     1      -0.872  10.974  22.701  0.00  0.00    +0.000 A 
ATOM     24  C   UNL     1      -0.271  11.617  21.617  0.00  0.00    +0.000 A 
ATOM     25  C   UNL     1       0.559  10.895  20.746  0.00  0.00    +0.000 A 
BRANCH  20  28
ATOM     26  C   UNL     1       1.549   9.034  18.645  0.00  0.00    +0.000 C 
ATOM     27  O   UNL     1       0.858   9.854  18.049  0.00  0.00    +0.000 OA
ATOM     28  N   UNL     1       1.579   8.833  20.009  0.00  0.00    +0.000 N 
ATOM     29  H   UNL     1       2.296   8.230  20.391  0.00  0.00    +0.000 HD
BRANCH  26  31
ATOM     30  C   UNL     1       2.780   6.952  18.386  0.00  0.00    +0.000 C 
ATOM     31  C   UNL     1       2.514   8.179  17.899  0.00  0.00    +0.000 C 
BRANCH  30  33
ATOM     32  C   UNL     1       4.696   6.667  16.840  0.00  0.00    +0.000 C 
ATOM     33  C   UNL     1       3.721   5.952  17.777  0.00  0.00    +0.000 C 
ATOM     34  C   UNL     1       4.484   5.220  18.882  0.00  0.00    +0.000 C 
ENDBRANCH  30  33
ENDBRANCH  26  31
ENDBRANCH  20  28
ENDBRANCH  19  24
ENDBRANCH   1  19
TORSDOF 5
ENDMDL
MODEL 3
REMARK VINA RESULT:      -7.8      1.006      1.183
REMARK  Name = 
REMARK  8 active torsions:
REMARK  status: ('A' for Active; 'I' for Inactive)
REMARK    1  A    between atoms: C_1  and  C_2
REMARK    2  A    between atoms: C_2  and  C_3
REMARK    3  A    between atoms: C_2  and  C_4
REMARK    4  A    between atoms: C_5  and  C_6
REMARK    5  A    between atoms: N_8  and  C_9
REMARK    6  A    between atoms: C_13  and  O_14
REMARK    7  A    between atoms: O_14  and  C_15
REMARK    8  A    between atoms: N_22  and  C_23
REMARK                            x       y       z     vdW  Elec       q    Type
REMARK                         _______ _______ _______ _____ _____    ______ ____
ROOT
ATOM      1  C   UNL     1       2.798   6.259  18.326  0.00  0.00    +0.000 A 
ATOM      2  N   UNL     1       2.205   7.410  18.655  0.00  0.00    +0.000 NA
ATOM      3  C   UNL     1       1.621   7.506  19.846  0.00  0.00    +0.000 A 
ATOM      4  N   UNL     1       1.058   8.718  20.240  0.00  0.00    +0.000 N 
ATOM      5  C   UNL     1       1.297   9.945  19.732  0.00  0.00    +0.000 A 
ATOM      6  C   UNL     1       1.760  10.234  18.422  0.00  0.00    +0.000 A 
ATOM      7  C   UNL     1       1.975  11.589  18.391  0.00  0.00    +0.000 A 
ATOM      8  N   UNL     1       1.620  12.036  19.624  0.00  0.00    +0.000 N 
ATOM      9  C   UNL     1       1.773  13.382  20.117  0.00  0.00    +0.000 C 
ATOM     10  N   UNL     1       1.149  11.072  20.438  0.00  0.00    +0.000 NA
ATOM     11  N   UNL     1       1.574   6.476  20.704  0.00  0.00    +0.000 NA
ATOM     12  C   UNL     1       2.207   5.326  20.365  0.00  0.00    +0.000 A 
ATOM     13  C   UNL     1       2.892   5.173  19.171  0.00  0.00    +0.000 A 
ATOM     14  C   UNL     1       3.615   3.940  18.730  0.00  0.00    +0.000 C 
ATOM     15  S   UNL     1       4.009   2.763  20.047  0.00  0.00    +0.000 S 
ATOM     16  C   UNL     1       2.416   2.838  20.901  0.00  0.00    +0.000 C 
ATOM     17  C   UNL     1       2.164   4.247  21.418  0.00  0.00    +0.000 C 
ATOM     18  H   UNL     1       0.770   8.661  21.206  0.00  0.00    +0.000 HD
ENDROOT
BRANCH   1  19
ATOM     19  O   UNL     1       3.395   6.175  17.078  0.00  0.00    +0.000 OA
BRANCH  19  24
ATOM     20  C   UNL     1       7.051   6.719  17.493  0.00  0.00    +0.000 A 
ATOM     21  C   UNL     1       7.504   5.771  16.569  0.00  0.00    +0.000 A 
ATOM     22  C   UNL     1       6.603   4.971  15.866  0.00  0.00    +0.000 A 
ATOM     23  C   UNL     1       5.234   5.113  16.076  0.00  0.00    +0.000 A 
ATOM     24  C   UNL     1       4.767   6.040  17.010  0.00  0.00    +0.000 A 
ATOM     25  C   UNL     1       5.677   6.835  17.724  0.00  0.00    +0.000 A 
BRANCH  20  28
ATOM     26  C   UNL     1       8.051   8.934  17.973  0.00  0.00    +0.000 C 
ATOM     27  O   UNL     1       7.414   9.592  17.158  0.00  0.00    +0.000 OA
ATOM     28  N   UNL     1       7.924   7.579  18.202  0.00  0.00    +0.000 N 
ATOM     29  H   UNL     1       8.401   7.180  19.001  0.00  0.00    +0.000 HD
BRANCH  26  31
ATOM     30  C   UNL     1       9.180  10.933  18.777  0.00  0.00    +0.000 C 
ATOM     31  C   UNL     1       9.032   9.598  18.876  0.00  0.00    +0.000 C 
BRANCH  30  33
ATOM     32  C   UNL     1       9.805  11.588  21.084  0.00  0.00    +0.000 C 
ATOM     33  C   UNL     1      10.115  11.775  19.598  0.00  0.00    +0.000 C 
ATOM     34  C   UNL     1      11.562  11.378  19.302  0.00  0.00    +0.000 C 
ENDBRANCH  30  33
ENDBRANCH  26  31
ENDBRANCH  20  28
ENDBRANCH  19  24
ENDBRANCH   1  19
TORSDOF 5
ENDMDL
MODEL 4
REMARK VINA RESULT:      -7.8      5.048      9.108
REMARK  Name = 
REMARK  8 active torsions:
REMARK  status: ('A' for Active; 'I' for Inactive)
REMARK    1  A    between atoms: C_1  and  C_2
REMARK    2  A    between atoms: C_2  and  C_3
REMARK    3  A    between atoms: C_2  and  C_4
REMARK    4  A    between atoms: C_5  and  C_6
REMARK    5  A    between atoms: N_8  and  C_9
REMARK    6  A    between atoms: C_13  and  O_14
REMARK    7  A    between atoms: O_14  and  C_15
REMARK    8  A    between atoms: N_22  and  C_23
REMARK                            x       y       z     vdW  Elec       q    Type
REMARK                         _______ _______ _______ _____ _____    ______ ____
ROOT
ATOM      1  C   UNL     1      -1.399  12.480  21.185  0.00  0.00    +0.000 A 
ATOM      2  N   UNL     1      -2.135  11.963  20.197  0.00  0.00    +0.000 NA
ATOM      3  C   UNL     1      -3.280  12.559  19.879  0.00  0.00    +0.000 A 
ATOM      4  N   UNL     1      -4.030  12.081  18.807  0.00  0.00    +0.000 N 
ATOM      5  C   UNL     1      -3.617  11.285  17.799  0.00  0.00    +0.000 A 
ATOM      6  C   UNL     1      -2.527  10.376  17.840  0.00  0.00    +0.000 A 
ATOM      7  C   UNL     1      -2.403   9.883  16.566  0.00  0.00    +0.000 A 
ATOM      8  N   UNL     1      -3.398  10.472  15.854  0.00  0.00    +0.000 N 
ATOM      9  C   UNL     1      -3.612  10.356  14.433  0.00  0.00    +0.000 C 
ATOM     10  N   UNL     1      -4.187  11.282  16.587  0.00  0.00    +0.000 NA
ATOM     11  N   UNL     1      -3.735  13.633  20.542  0.00  0.00    +0.000 NA
ATOM     12  C   UNL     1      -2.960  14.161  21.522  0.00  0.00    +0.000 A 
ATOM     13  C   UNL     1      -1.726  13.634  21.865  0.00  0.00    +0.000 A 
ATOM     14  C   UNL     1      -0.815  14.163  22.927  0.00  0.00    +0.000 C 
ATOM     15  S   UNL     1      -1.146  15.862  23.453  0.00  0.00    +0.000 S 
ATOM     16  C   UNL     1      -2.948  15.726  23.540  0.00  0.00    +0.000 C 
ATOM     17  C   UNL     1      -3.516  15.407  22.165  0.00  0.00    +0.000 C 
ATOM     18  H   UNL     1      -4.797  12.711  18.620  0.00  0.00    +0.000 HD
ENDROOT
BRANCH   1  19
ATOM     19  O   UNL     1      -0.212  11.841  21.507  0.00  0.00    +0.000 OA
BRANCH  19  24
ATOM     20  C   UNL     1       1.437   9.018  19.731  0.00  0.00    +0.000 A 
ATOM     21  C   UNL     1       1.848   9.711  18.588  0.00  0.00    +0.000 A 
ATOM     22  C   UNL     1       1.550  11.064  18.425  0.00  0.00    +0.000 A 
ATOM     23  C   UNL     1       0.837  11.743  19.408  0.00  0.00    +0.000 A 
ATOM     24  C   UNL     1       0.401  11.062  20.546  0.00  0.00    +0.000 A 
ATOM     25  C   UNL     1       0.694   9.698  20.702  0.00  0.00    +0.000 A 
BRANCH  20  28
ATOM     26  C   UNL     1       2.530   6.879  19.129  0.00  0.00    +0.000 C 
ATOM     27  O   UNL     1       3.092   7.253  18.105  0.00  0.00    +0.000 OA
ATOM     28  N   UNL     1       1.748   7.656  19.959  0.00  0.00    +0.000 N 
ATOM     29  H   UNL     1       1.461   7.270  20.849  0.00  0.00    +0.000 HD
BRANCH  26  31
ATOM     30  C   UNL     1       1.729   4.594  19.368  0.00  0.00    +0.000 C 
ATOM     31  C   UNL     1       2.709   5.484  19.619  0.00  0.00    +0.000 C 
BRANCH  30  33
ATOM     32  C   UNL     1       1.259   3.030  21.231  0.00  0.00    +0.000 C 
ATOM     33  C   UNL     1       1.729   3.150  19.780  0.00  0.00    +0.000 C 
ATOM     34  C   UNL     1       0.812   2.349  18.856  0.00  0.00    +0.000 C 
ENDBRANCH  30  33
ENDBRANCH  26  31
ENDBRANCH  20  28
ENDBRANCH  19  24
ENDBRANCH   1  19
TORSDOF 5
ENDMDL
MODEL 5
REMARK VINA RESULT:      -7.8      6.027     10.518
REMARK  Name = 
REMARK  8 active torsions:
REMARK  status: ('A' for Active; 'I' for Inactive)
REMARK    1  A    between atoms: C_1  and  C_2
REMARK    2  A    between atoms: C_2  and  C_3
REMARK    3  A    between atoms: C_2  and  C_4
REMARK    4  A    between atoms: C_5  and  C_6
REMARK    5  A    between atoms: N_8  and  C_9
REMARK    6  A    between atoms: C_13  and  O_14
REMARK    7  A    between atoms: O_14  and  C_15
REMARK    8  A    between atoms: N_22  and  C_23
REMARK                            x       y       z     vdW  Elec       q    Type
REMARK                         _______ _______ _______ _____ _____    ______ ____
ROOT
ATOM      1  C   UNL     1      -0.080  10.684  19.731  0.00  0.00    +0.000 A 
ATOM      2  N   UNL     1       0.749   9.637  19.774  0.00  0.00    +0.000 NA
ATOM      3  C   UNL     1       0.924   9.015  20.936  0.00  0.00    +0.000 A 
ATOM      4  N   UNL     1       1.728   7.878  20.993  0.00  0.00    +0.000 N 
ATOM      5  C   UNL     1       2.113   7.086  19.970  0.00  0.00    +0.000 A 
ATOM      6  C   UNL     1       2.219   7.469  18.607  0.00  0.00    +0.000 A 
ATOM      7  C   UNL     1       2.521   6.321  17.919  0.00  0.00    +0.000 A 
ATOM      8  N   UNL     1       2.607   5.348  18.863  0.00  0.00    +0.000 N 
ATOM      9  C   UNL     1       2.797   3.940  18.620  0.00  0.00    +0.000 C 
ATOM     10  N   UNL     1       2.423   5.793  20.122  0.00  0.00    +0.000 NA
ATOM     11  N   UNL     1       0.330   9.428  22.066  0.00  0.00    +0.000 NA
ATOM     12  C   UNL     1      -0.531  10.474  21.995  0.00  0.00    +0.000 A 
ATOM     13  C   UNL     1      -0.814  11.131  20.809  0.00  0.00    +0.000 A 
ATOM     14  C   UNL     1      -1.752  12.285  20.653  0.00  0.00    +0.000 C 
ATOM     15  S   UNL     1      -2.930  12.513  22.007  0.00  0.00    +0.000 S 
ATOM     16  C   UNL     1      -1.768  12.237  23.367  0.00  0.00    +0.000 C 
ATOM     17  C   UNL     1      -1.207  10.824  23.297  0.00  0.00    +0.000 C 
ATOM     18  H   UNL     1       1.658   7.457  21.908  0.00  0.00    +0.000 HD
ENDROOT
BRANCH   1  19
ATOM     19  O   UNL     1      -0.244  11.326  18.513  0.00  0.00    +0.000 OA
BRANCH  19  24
ATOM     20  C   UNL     1      -3.632  11.330  16.975  0.00  0.00    +0.000 A 
ATOM     21  C   UNL     1      -3.557  10.099  16.316  0.00  0.00    +0.000 A 
ATOM     22  C   UNL     1      -2.397   9.326  16.373  0.00  0.00    +0.000 A 
ATOM     23  C   UNL     1      -1.296   9.775  17.097  0.00  0.00    +0.000 A 
ATOM     24  C   UNL     1      -1.347  11.011  17.744  0.00  0.00    +0.000 A 
ATOM     25  C   UNL     1      -2.511  11.791  17.674  0.00  0.00    +0.000 A 
BRANCH  20  28
ATOM     26  C   UNL     1      -5.982  11.796  17.603  0.00  0.00    +0.000 C 
ATOM     27  O   UNL     1      -6.187  10.787  18.269  0.00  0.00    +0.000 OA
ATOM     28  N   UNL     1      -4.799  12.132  16.977  0.00  0.00    +0.000 N 
ATOM     29  H   UNL     1      -4.711  13.059  16.581  0.00  0.00    +0.000 HD
BRANCH  26  31
ATOM     30  C   UNL     1      -6.679  14.054  17.027  0.00  0.00    +0.000 C 
ATOM     31  C   UNL     1      -7.043  12.832  17.459  0.00  0.00    +0.000 C 
BRANCH  30  33
ATOM     32  C   UNL     1      -6.948  16.495  17.360  0.00  0.00    +0.000 C 
ATOM     33  C   UNL     1      -7.602  15.221  16.820  0.00  0.00    +0.000 C 
ATOM     34  C   UNL     1      -7.916  15.375  15.332  0.00  0.00    +0.000 C 
ENDBRANCH  30  33
ENDBRANCH  26  31
ENDBRANCH  20  28
ENDBRANCH  19  24
ENDBRANCH   1  19
TORSDOF 5
ENDMDL
MODEL 6
REMARK VINA RESULT:      -7.7      5.211      8.814
REMARK  Name = 
REMARK  8 active torsions:
REMARK  status: ('A' for Active; 'I' for Inactive)
REMARK    1  A    between atoms: C_1  and  C_2
REMARK    2  A    between atoms: C_2  and  C_3
REMARK    3  A    between atoms: C_2  and  C_4
REMARK    4  A    between atoms: C_5  and  C_6
REMARK    5  A    between atoms: N_8  and  C_9
REMARK    6  A    between atoms: C_13  and  O_14
REMARK    7  A    between atoms: O_14  and  C_15
REMARK    8  A    between atoms: N_22  and  C_23
REMARK                            x       y       z     vdW  Elec       q    Type
REMARK                         _______ _______ _______ _____ _____    ______ ____
ROOT
ATOM      1  C   UNL     1      -1.436  12.698  20.683  0.00  0.00    +0.000 A 
ATOM      2  N   UNL     1      -2.124  12.018  19.761  0.00  0.00    +0.000 NA
ATOM      3  C   UNL     1      -3.417  12.290  19.606  0.00  0.00    +0.000 A 
ATOM      4  N   UNL     1      -4.139  11.644  18.604  0.00  0.00    +0.000 N 
ATOM      5  C   UNL     1      -3.657  11.005  17.518  0.00  0.00    +0.000 A 
ATOM      6  C   UNL     1      -2.369  10.423  17.391  0.00  0.00    +0.000 A 
ATOM      7  C   UNL     1      -2.276  10.002  16.088  0.00  0.00    +0.000 A 
ATOM      8  N   UNL     1      -3.471  10.313  15.524  0.00  0.00    +0.000 N 
ATOM      9  C   UNL     1      -3.820  10.166  14.133  0.00  0.00    +0.000 C 
ATOM     10  N   UNL     1      -4.350  10.869  16.381  0.00  0.00    +0.000 NA
ATOM     11  N   UNL     1      -4.055  13.190  20.368  0.00  0.00    +0.000 NA
ATOM     12  C   UNL     1      -3.333  13.892  21.277  0.00  0.00    +0.000 A 
ATOM     13  C   UNL     1      -1.971  13.711  21.451  0.00  0.00    +0.000 A 
ATOM     14  C   UNL     1      -1.110  14.448  22.427  0.00  0.00    +0.000 C 
ATOM     15  S   UNL     1      -1.812  15.987  23.069  0.00  0.00    +0.000 S 
ATOM     16  C   UNL     1      -3.489  15.369  23.354  0.00  0.00    +0.000 C 
ATOM     17  C   UNL     1      -4.117  14.931  22.039  0.00  0.00    +0.000 C 
ATOM     18  H   UNL     1      -5.063  12.048  18.536  0.00  0.00    +0.000 HD
ENDROOT
BRANCH   1  19
ATOM     19  O   UNL     1      -0.092  12.397  20.836  0.00  0.00    +0.000 OA
BRANCH  19  24
ATOM     20  C   UNL     1       1.165   8.932  20.336  0.00  0.00    +0.000 A 
ATOM     21  C   UNL     1       0.717   8.378  21.540  0.00  0.00    +0.000 A 
ATOM     22  C   UNL     1       0.046   9.159  22.481  0.00  0.00    +0.000 A 
ATOM     23  C   UNL     1      -0.188  10.507  22.227  0.00  0.00    +0.000 A 
ATOM     24  C   UNL     1       0.271  11.081  21.040  0.00  0.00    +0.000 A 
ATOM     25  C   UNL     1       0.955  10.294  20.100  0.00  0.00    +0.000 A 
BRANCH  20  28
ATOM     26  C   UNL     1       2.198   6.853  19.473  0.00  0.00    +0.000 C 
ATOM     27  O   UNL     1       2.006   6.142  20.454  0.00  0.00    +0.000 OA
ATOM     28  N   UNL     1       1.815   8.171  19.335  0.00  0.00    +0.000 N 
ATOM     29  H   UNL     1       1.901   8.604  18.424  0.00  0.00    +0.000 HD
BRANCH  26  31
ATOM     30  C   UNL     1       4.183   6.117  18.274  0.00  0.00    +0.000 C 
ATOM     31  C   UNL     1       2.848   6.294  18.255  0.00  0.00    +0.000 C 
BRANCH  30  33
ATOM     32  C   UNL     1       4.429   4.235  16.682  0.00  0.00    +0.000 C 
ATOM     33  C   UNL     1       5.012   5.570  17.148  0.00  0.00    +0.000 C 
ATOM     34  C   UNL     1       5.039   6.571  15.992  0.00  0.00    +0.000 C 
ENDBRANCH  30  33
ENDBRANCH  26  31
ENDBRANCH  20  28
ENDBRANCH  19  24
ENDBRANCH   1  19
TORSDOF 5
ENDMDL
MODEL 7
REMARK VINA RESULT:      -7.7      5.092      8.914
REMARK  Name = 
REMARK  8 active torsions:
REMARK  status: ('A' for Active; 'I' for Inactive)
REMARK    1  A    between atoms: C_1  and  C_2
REMARK    2  A    between atoms: C_2  and  C_3
REMARK    3  A    between atoms: C_2  and  C_4
REMARK    4  A    between atoms: C_5  and  C_6
REMARK    5  A    between atoms: N_8  and  C_9
REMARK    6  A    between atoms: C_13  and  O_14
REMARK    7  A    between atoms: O_14  and  C_15
REMARK    8  A    between atoms: N_22  and  C_23
REMARK                            x       y       z     vdW  Elec       q    Type
REMARK                         _______ _______ _______ _____ _____    ______ ____
ROOT
ATOM      1  C   UNL     1      -1.415  12.461  20.820  0.00  0.00    +0.000 A 
ATOM      2  N   UNL     1      -2.169  11.900  19.872  0.00  0.00    +0.000 NA
ATOM      3  C   UNL     1      -3.384  12.395  19.650  0.00  0.00    +0.000 A 
ATOM      4  N   UNL     1      -4.162  11.873  18.619  0.00  0.00    +0.000 N 
ATOM      5  C   UNL     1      -3.752  11.139  17.564  0.00  0.00    +0.000 A 
ATOM      6  C   UNL     1      -2.585  10.333  17.505  0.00  0.00    +0.000 A 
ATOM      7  C   UNL     1      -2.508   9.880  16.212  0.00  0.00    +0.000 A 
ATOM      8  N   UNL     1      -3.600  10.391  15.587  0.00  0.00    +0.000 N 
ATOM      9  C   UNL     1      -3.903  10.285  14.182  0.00  0.00    +0.000 C 
ATOM     10  N   UNL     1      -4.404  11.109  16.395  0.00  0.00    +0.000 NA
ATOM     11  N   UNL     1      -3.885  13.409  20.372  0.00  0.00    +0.000 NA
ATOM     12  C   UNL     1      -3.092  13.985  21.310  0.00  0.00    +0.000 A 
ATOM     13  C   UNL     1      -1.794  13.566  21.553  0.00  0.00    +0.000 A 
ATOM     14  C   UNL     1      -0.862  14.153  22.563  0.00  0.00    +0.000 C 
ATOM     15  S   UNL     1      -1.305  15.804  23.157  0.00  0.00    +0.000 S 
ATOM     16  C   UNL     1      -3.078  15.502  23.364  0.00  0.00    +0.000 C 
ATOM     17  C   UNL     1      -3.711  15.161  22.023  0.00  0.00    +0.000 C 
ATOM     18  H   UNL     1      -4.994  12.434  18.503  0.00  0.00    +0.000 HD
ENDROOT
BRANCH   1  19
ATOM     19  O   UNL     1      -0.155  11.926  21.042  0.00  0.00    +0.000 OA
BRANCH  19  24
ATOM     20  C   UNL     1       1.780  10.208  18.371  0.00  0.00    +0.000 A 
ATOM     21  C   UNL     1       2.507  11.309  17.906  0.00  0.00    +0.000 A 
ATOM     22  C   UNL     1       2.319  12.575  18.461  0.00  0.00    +0.000 A 
ATOM     23  C   UNL     1       1.403  12.754  19.493  0.00  0.00    +0.000 A 
ATOM     24  C   UNL     1       0.655  11.670  19.955  0.00  0.00    +0.000 A 
ATOM     25  C   UNL     1       0.838  10.400  19.387  0.00  0.00    +0.000 A 
BRANCH  20  28
ATOM     26  C   UNL     1       2.201   7.782  18.642  0.00  0.00    +0.000 C 
ATOM     27  O   UNL     1       2.256   7.751  19.867  0.00  0.00    +0.000 OA
ATOM     28  N   UNL     1       1.963   8.897  17.866  0.00  0.00    +0.000 N 
ATOM     29  H   UNL     1       1.797   8.768  16.876  0.00  0.00    +0.000 HD
BRANCH  26  31
ATOM     30  C   UNL     1       2.733   5.413  18.494  0.00  0.00    +0.000 C 
ATOM     31  C   UNL     1       2.337   6.527  17.850  0.00  0.00    +0.000 C 
BRANCH  30  33
ATOM     32  C   UNL     1       4.167   3.392  18.464  0.00  0.00    +0.000 C 
ATOM     33  C   UNL     1       2.927   4.061  17.868  0.00  0.00    +0.000 C 
ATOM     34  C   UNL     1       1.689   3.197  18.110  0.00  0.00    +0.000 C 
ENDBRANCH  30  33
ENDBRANCH  26  31
ENDBRANCH  20  28
ENDBRANCH  19  24
ENDBRANCH   1  19
TORSDOF 5
ENDMDL
MODEL 8
REMARK VINA RESULT:      -7.7      4.448      7.964
REMARK  Name = 
REMARK  8 active torsions:
REMARK  status: ('A' for Active; 'I' for Inactive)
REMARK    1  A    between atoms: C_1  and  C_2
REMARK    2  A    between atoms: C_2  and  C_3
REMARK    3  A    between atoms: C_2  and  C_4
REMARK    4  A    between atoms: C_5  and  C_6
REMARK    5  A    between atoms: N_8  and  C_9
REMARK    6  A    between atoms: C_13  and  O_14
REMARK    7  A    between atoms: O_14  and  C_15
REMARK    8  A    between atoms: N_22  and  C_23
REMARK                            x       y       z     vdW  Elec       q    Type
REMARK                         _______ _______ _______ _____ _____    ______ ____
ROOT
ATOM      1  C   UNL     1      -0.202  11.860  18.773  0.00  0.00    +0.000 A 
ATOM      2  N   UNL     1      -1.489  11.973  19.114  0.00  0.00    +0.000 NA
ATOM      3  C   UNL     1      -1.872  13.046  19.800  0.00  0.00    +0.000 A 
ATOM      4  N   UNL     1      -3.221  13.221  20.105  0.00  0.00    +0.000 N 
ATOM      5  C   UNL     1      -4.284  12.627  19.524  0.00  0.00    +0.000 A 
ATOM      6  C   UNL     1      -4.282  11.379  18.849  0.00  0.00    +0.000 A 
ATOM      7  C   UNL     1      -5.540  11.238  18.319  0.00  0.00    +0.000 A 
ATOM      8  N   UNL     1      -6.219  12.349  18.706  0.00  0.00    +0.000 N 
ATOM      9  C   UNL     1      -7.553  12.715  18.302  0.00  0.00    +0.000 C 
ATOM     10  N   UNL     1      -5.502  13.181  19.487  0.00  0.00    +0.000 NA
ATOM     11  N   UNL     1      -1.006  13.991  20.192  0.00  0.00    +0.000 NA
ATOM     12  C   UNL     1       0.291  13.874  19.811  0.00  0.00    +0.000 A 
ATOM     13  C   UNL     1       0.752  12.819  19.041  0.00  0.00    +0.000 A 
ATOM     14  C   UNL     1       2.161  12.625  18.580  0.00  0.00    +0.000 C 
ATOM     15  S   UNL     1       3.204  14.102  18.639  0.00  0.00    +0.000 S 
ATOM     16  C   UNL     1       2.667  14.695  20.262  0.00  0.00    +0.000 C 
ATOM     17  C   UNL     1       1.179  15.016  20.236  0.00  0.00    +0.000 C 
ATOM     18  H   UNL     1      -3.362  14.133  20.514  0.00  0.00    +0.000 HD
ENDROOT
BRANCH   1  19
ATOM     19  O   UNL     1       0.181  10.732  18.065  0.00  0.00    +0.000 OA
BRANCH  19  24
ATOM     20  C   UNL     1       2.342   7.808  18.853  0.00  0.00    +0.000 A 
ATOM     21  C   UNL     1       1.952   7.620  20.183  0.00  0.00    +0.000 A 
ATOM     22  C   UNL     1       1.020   8.468  20.782  0.00  0.00    +0.000 A 
ATOM     23  C   UNL     1       0.464   9.516  20.054  0.00  0.00    +0.000 A 
ATOM     24  C   UNL     1       0.857   9.731  18.732  0.00  0.00    +0.000 A 
ATOM     25  C   UNL     1       1.803   8.882  18.136  0.00  0.00    +0.000 A 
BRANCH  20  28
ATOM     26  C   UNL     1       3.003   5.633  17.871  0.00  0.00    +0.000 C 
ATOM     27  O   UNL     1       1.959   5.024  18.077  0.00  0.00    +0.000 OA
ATOM     28  N   UNL     1       3.254   6.952  18.190  0.00  0.00    +0.000 N 
ATOM     29  H   UNL     1       4.100   7.380  17.838  0.00  0.00    +0.000 HD
BRANCH  26  31
ATOM     30  C   UNL     1       4.944   5.739  16.407  0.00  0.00    +0.000 C 
ATOM     31  C   UNL     1       4.133   4.971  17.160  0.00  0.00    +0.000 C 
BRANCH  30  33
ATOM     32  C   UNL     1       7.108   4.541  16.553  0.00  0.00    +0.000 C 
ATOM     33  C   UNL     1       6.128   5.255  15.621  0.00  0.00    +0.000 C 
ATOM     34  C   UNL     1       5.662   4.308  14.514  0.00  0.00    +0.000 C 
ENDBRANCH  30  33
ENDBRANCH  26  31
ENDBRANCH  20  28
ENDBRANCH  19  24
ENDBRANCH   1  19
TORSDOF 5
ENDMDL
MODEL 9
REMARK VINA RESULT:      -7.6      6.118     10.075
REMARK  Name = 
REMARK  8 active torsions:
REMARK  status: ('A' for Active; 'I' for Inactive)
REMARK    1  A    between atoms: C_1  and  C_2
REMARK    2  A    between atoms: C_2  and  C_3
REMARK    3  A    between atoms: C_2  and  C_4
REMARK    4  A    between atoms: C_5  and  C_6
REMARK    5  A    between atoms: N_8  and  C_9
REMARK    6  A    between atoms: C_13  and  O_14
REMARK    7  A    between atoms: O_14  and  C_15
REMARK    8  A    between atoms: N_22  and  C_23
REMARK                            x       y       z     vdW  Elec       q    Type
REMARK                         _______ _______ _______ _____ _____    ______ ____
ROOT
ATOM      1  C   UNL     1      -3.467  12.863  21.305  0.00  0.00    +0.000 A 
ATOM      2  N   UNL     1      -3.754  12.205  20.179  0.00  0.00    +0.000 NA
ATOM      3  C   UNL     1      -4.783  12.620  19.446  0.00  0.00    +0.000 A 
ATOM      4  N   UNL     1      -5.060  11.994  18.232  0.00  0.00    +0.000 N 
ATOM      5  C   UNL     1      -4.236  11.220  17.495  0.00  0.00    +0.000 A 
ATOM      6  C   UNL     1      -3.129  10.476  17.978  0.00  0.00    +0.000 A 
ATOM      7  C   UNL     1      -2.519   9.949  16.867  0.00  0.00    +0.000 A 
ATOM      8  N   UNL     1      -3.272  10.360  15.815  0.00  0.00    +0.000 N 
ATOM      9  C   UNL     1      -2.972  10.152  14.421  0.00  0.00    +0.000 C 
ATOM     10  N   UNL     1      -4.353  11.083  16.168  0.00  0.00    +0.000 NA
ATOM     11  N   UNL     1      -5.560  13.648  19.821  0.00  0.00    +0.000 NA
ATOM     12  C   UNL     1      -5.233  14.322  20.951  0.00  0.00    +0.000 A 
ATOM     13  C   UNL     1      -4.139  13.990  21.732  0.00  0.00    +0.000 A 
ATOM     14  C   UNL     1      -3.715  14.687  22.985  0.00  0.00    +0.000 C 
ATOM     15  S   UNL     1      -4.401  16.345  23.217  0.00  0.00    +0.000 S 
ATOM     16  C   UNL     1      -6.096  15.961  22.710  0.00  0.00    +0.000 C 
ATOM     17  C   UNL     1      -6.118  15.505  21.258  0.00  0.00    +0.000 C 
ATOM     18  H   UNL     1      -5.784  12.501  17.745  0.00  0.00    +0.000 HD
ENDROOT
BRANCH   1  19
ATOM     19  O   UNL     1      -2.396  12.412  22.060  0.00  0.00    +0.000 OA
BRANCH  19  24
ATOM     20  C   UNL     1       0.620  10.940  20.454  0.00  0.00    +0.000 A 
ATOM     21  C   UNL     1       1.419  12.087  20.434  0.00  0.00    +0.000 A 
ATOM     22  C   UNL     1       0.938  13.304  20.919  0.00  0.00    +0.000 A 
ATOM     23  C   UNL     1      -0.352  13.386  21.434  0.00  0.00    +0.000 A 
ATOM     24  C   UNL     1      -1.171  12.255  21.443  0.00  0.00    +0.000 A 
ATOM     25  C   UNL     1      -0.687  11.036  20.944  0.00  0.00    +0.000 A 
BRANCH  20  28
ATOM     26  C   UNL     1       1.399   8.621  20.837  0.00  0.00    +0.000 C 
ATOM     27  O   UNL     1       1.307   8.606  22.059  0.00  0.00    +0.000 OA
ATOM     28  N   UNL     1       1.077   9.676  20.009  0.00  0.00    +0.000 N 
ATOM     29  H   UNL     1       1.058   9.516  19.010  0.00  0.00    +0.000 HD
BRANCH  26  31
ATOM     30  C   UNL     1       1.691   6.209  20.705  0.00  0.00    +0.000 C 
ATOM     31  C   UNL     1       1.837   7.402  20.099  0.00  0.00    +0.000 C 
BRANCH  30  33
ATOM     32  C   UNL     1       0.903   3.902  20.262  0.00  0.00    +0.000 C 
ATOM     33  C   UNL     1       2.073   4.877  20.125  0.00  0.00    +0.000 C 
ATOM     34  C   UNL     1       2.455   5.046  18.654  0.00  0.00    +0.000 C 
ENDBRANCH  30  33
ENDBRANCH  26  31
ENDBRANCH  20  28
ENDBRANCH  19  24
ENDBRANCH   1  19
TORSDOF 5
ENDMDL
