MODEL 1
REMARK VINA RESULT:      -8.0      0.000      0.000
REMARK  Name = 
REMARK  7 active torsions:
REMARK  status: ('A' for Active; 'I' for Inactive)
REMARK    1  A    between atoms: C_1  and  C_2
REMARK    2  A    between atoms: C_2  and  C_3
REMARK    3  A    between atoms: C_3  and  C_4
REMARK    4  A    between atoms: C_4  and  N_5
REMARK    5  A    between atoms: N_8  and  C_9
REMARK    6  A    between atoms: C_9  and  C_10
REMARK    7  A    between atoms: C_11  and  C_12
REMARK                            x       y       z     vdW  Elec       q    Type
REMARK                         _______ _______ _______ _____ _____    ______ ____
ROOT
ATOM      1  C   UNL     1       3.756   5.561  18.852  0.00  0.00    +0.000 A 
ATOM      2  C   UNL     1       2.527   6.202  19.048  0.00  0.00    +0.000 A 
ATOM      3  O   UNL     1       1.543   5.274  19.203  0.00  0.00    +0.000 OA
ATOM      4  C   UNL     1       2.107   4.051  19.105  0.00  0.00    +0.000 A 
ATOM      5  C   UNL     1       1.413   2.850  19.050  0.00  0.00    +0.000 A 
ATOM      6  C   UNL     1       2.186   1.696  18.904  0.00  0.00    +0.000 A 
ATOM      7  C   UNL     1       3.576   1.750  18.973  0.00  0.00    +0.000 A 
ATOM      8  C   UNL     1       4.239   2.977  19.029  0.00  0.00    +0.000 A 
ATOM      9  C   UNL     1       3.484   4.166  19.013  0.00  0.00    +0.000 A 
ENDROOT
BRANCH   2  10
ATOM     10  C   UNL     1       2.057   7.584  19.066  0.00  0.00    +0.000 A 
ATOM     11  C   UNL     1       1.572   8.155  20.257  0.00  0.00    +0.000 A 
ATOM     12  C   UNL     1       1.090   9.465  20.281  0.00  0.00    +0.000 A 
ATOM     13  C   UNL     1       1.090  10.226  19.117  0.00  0.00    +0.000 A 
ATOM     14  C   UNL     1       1.581   9.682  17.933  0.00  0.00    +0.000 A 
ATOM     15  C   UNL     1       2.062   8.373  17.910  0.00  0.00    +0.000 A 
ENDBRANCH   2  10
BRANCH   1  16
ATOM     16  C   UNL     1       5.049   6.213  18.488  0.00  0.00    +0.000 C 
BRANCH  16  20
ATOM     17  N   UNL     1       6.646   4.639  15.705  0.00  0.00    +0.000 N 
ATOM     18  C   UNL     1       7.532   4.489  16.754  0.00  0.00    +0.000 A 
ATOM     19  N   UNL     1       7.092   4.976  17.854  0.00  0.00    +0.000 NA
ATOM     20  N   UNL     1       5.832   5.447  17.514  0.00  0.00    +0.000 N 
ATOM     21  C   UNL     1       5.571   5.213  16.231  0.00  0.00    +0.000 A 
BRANCH  17  22
ATOM     22  C   UNL     1       6.884   4.316  14.305  0.00  0.00    +0.000 C 
BRANCH  22  23
ATOM     23  C   UNL     1       5.570   4.040  13.589  0.00  0.00    +0.000 C 
BRANCH  23  25
ATOM     24  C   UNL     1       4.468   3.134  11.532  0.00  0.00    +0.000 C 
ATOM     25  C   UNL     1       5.797   3.430  12.209  0.00  0.00    +0.000 C 
ENDBRANCH  23  25
ENDBRANCH  22  23
ENDBRANCH  17  22
ENDBRANCH  16  20
ENDBRANCH   1  16
TORSDOF 6
ENDMDL
MODEL 2
REMARK VINA RESULT:      -8.0      2.395      6.658
REMARK  Name = 
REMARK  7 active torsions:
REMARK  status: ('A' for Active; 'I' for Inactive)
REMARK    1  A    between atoms: C_1  and  C_2
REMARK    2  A    between atoms: C_2  and  C_3
REMARK    3  A    between atoms: C_3  and  C_4
REMARK    4  A    between atoms: C_4  and  N_5
REMARK    5  A    between atoms: N_8  and  C_9
REMARK    6  A    between atoms: C_9  and  C_10
REMARK    7  A    between atoms: C_11  and  C_12
REMARK                            x       y       z     vdW  Elec       q    Type
REMARK                         _______ _______ _______ _____ _____    ______ ____
ROOT
ATOM      1  C   UNL     1       5.699   4.352  15.569  0.00  0.00    +0.000 A 
ATOM      2  C   UNL     1       6.773   5.204  15.853  0.00  0.00    +0.000 A 
ATOM      3  O   UNL     1       7.516   5.399  14.729  0.00  0.00    +0.000 OA
ATOM      4  C   UNL     1       6.951   4.688  13.730  0.00  0.00    +0.000 A 
ATOM      5  C   UNL     1       7.502   4.500  12.470  0.00  0.00    +0.000 A 
ATOM      6  C   UNL     1       6.775   3.692  11.592  0.00  0.00    +0.000 A 
ATOM      7  C   UNL     1       5.499   3.242  11.922  0.00  0.00    +0.000 A 
ATOM      8  C   UNL     1       4.979   3.451  13.201  0.00  0.00    +0.000 A 
ATOM      9  C   UNL     1       5.761   4.125  14.159  0.00  0.00    +0.000 A 
ENDROOT
BRANCH   2  10
ATOM     10  C   UNL     1       7.301   5.864  17.044  0.00  0.00    +0.000 A 
ATOM     11  C   UNL     1       7.481   7.259  17.064  0.00  0.00    +0.000 A 
ATOM     12  C   UNL     1       8.015   7.899  18.184  0.00  0.00    +0.000 A 
ATOM     13  C   UNL     1       8.372   7.154  19.303  0.00  0.00    +0.000 A 
ATOM     14  C   UNL     1       8.186   5.775  19.307  0.00  0.00    +0.000 A 
ATOM     15  C   UNL     1       7.653   5.137  18.186  0.00  0.00    +0.000 A 
ENDBRANCH   2  10
BRANCH   1  16
ATOM     16  C   UNL     1       4.745   3.767  16.557  0.00  0.00    +0.000 C 
BRANCH  16  20
ATOM     17  N   UNL     1       3.335   6.313  18.631  0.00  0.00    +0.000 N 
ATOM     18  C   UNL     1       3.814   5.362  19.511  0.00  0.00    +0.000 A 
ATOM     19  N   UNL     1       4.390   4.381  18.924  0.00  0.00    +0.000 NA
ATOM     20  N   UNL     1       4.310   4.721  17.581  0.00  0.00    +0.000 N 
ATOM     21  C   UNL     1       3.700   5.893  17.426  0.00  0.00    +0.000 A 
BRANCH  17  22
ATOM     22  C   UNL     1       2.525   7.479  18.957  0.00  0.00    +0.000 C 
BRANCH  22  23
ATOM     23  C   UNL     1       2.399   8.396  17.749  0.00  0.00    +0.000 C 
BRANCH  23  25
ATOM     24  C   UNL     1       0.958   9.594  19.409  0.00  0.00    +0.000 C 
ATOM     25  C   UNL     1       1.286   9.423  17.934  0.00  0.00    +0.000 C 
ENDBRANCH  23  25
ENDBRANCH  22  23
ENDBRANCH  17  22
ENDBRANCH  16  20
ENDBRANCH   1  16
TORSDOF 6
ENDMDL
MODEL 3
REMARK VINA RESULT:      -7.9      2.667      6.786
REMARK  Name = 
REMARK  7 active torsions:
REMARK  status: ('A' for Active; 'I' for Inactive)
REMARK    1  A    between atoms: C_1  and  C_2
REMARK    2  A    between atoms: C_2  and  C_3
REMARK    3  A    between atoms: C_3  and  C_4
REMARK    4  A    between atoms: C_4  and  N_5
REMARK    5  A    between atoms: N_8  and  C_9
REMARK    6  A    between atoms: C_9  and  C_10
REMARK    7  A    between atoms: C_11  and  C_12
REMARK                            x       y       z     vdW  Elec       q    Type
REMARK                         _______ _______ _______ _____ _____    ______ ____
ROOT
ATOM      1  C   UNL     1       5.755   4.309  15.535  0.00  0.00    +0.000 A 
ATOM      2  C   UNL     1       6.794   5.203  15.818  0.00  0.00    +0.000 A 
ATOM      3  O   UNL     1       7.517   5.440  14.689  0.00  0.00    +0.000 OA
ATOM      4  C   UNL     1       6.973   4.715  13.688  0.00  0.00    +0.000 A 
ATOM      5  C   UNL     1       7.518   4.563  12.420  0.00  0.00    +0.000 A 
ATOM      6  C   UNL     1       6.817   3.733  11.542  0.00  0.00    +0.000 A 
ATOM      7  C   UNL     1       5.565   3.226  11.880  0.00  0.00    +0.000 A 
ATOM      8  C   UNL     1       5.049   3.401  13.165  0.00  0.00    +0.000 A 
ATOM      9  C   UNL     1       5.812   4.098  14.122  0.00  0.00    +0.000 A 
ENDROOT
BRANCH   2  10
ATOM     10  C   UNL     1       7.306   5.873  17.010  0.00  0.00    +0.000 A 
ATOM     11  C   UNL     1       7.539   7.260  17.002  0.00  0.00    +0.000 A 
ATOM     12  C   UNL     1       8.059   7.908  18.124  0.00  0.00    +0.000 A 
ATOM     13  C   UNL     1       8.347   7.180  19.273  0.00  0.00    +0.000 A 
ATOM     14  C   UNL     1       8.107   5.810  19.305  0.00  0.00    +0.000 A 
ATOM     15  C   UNL     1       7.589   5.163  18.182  0.00  0.00    +0.000 A 
ENDBRANCH   2  10
BRANCH   1  16
ATOM     16  C   UNL     1       4.836   3.674  16.527  0.00  0.00    +0.000 C 
BRANCH  16  20
ATOM     17  N   UNL     1       2.930   5.645  18.819  0.00  0.00    +0.000 N 
ATOM     18  C   UNL     1       3.405   6.546  17.886  0.00  0.00    +0.000 A 
ATOM     19  N   UNL     1       4.092   5.990  16.959  0.00  0.00    +0.000 NA
ATOM     20  N   UNL     1       4.040   4.643  17.286  0.00  0.00    +0.000 N 
ATOM     21  C   UNL     1       3.318   4.451  18.386  0.00  0.00    +0.000 A 
BRANCH  17  22
ATOM     22  C   UNL     1       2.230   5.954  20.058  0.00  0.00    +0.000 C 
BRANCH  22  23
ATOM     23  C   UNL     1       1.381   4.772  20.502  0.00  0.00    +0.000 C 
BRANCH  23  25
ATOM     24  C   UNL     1       1.854   2.458  21.331  0.00  0.00    +0.000 C 
ATOM     25  C   UNL     1       2.085   3.941  21.570  0.00  0.00    +0.000 C 
ENDBRANCH  23  25
ENDBRANCH  22  23
ENDBRANCH  17  22
ENDBRANCH  16  20
ENDBRANCH   1  16
TORSDOF 6
ENDMDL
MODEL 4
REMARK VINA RESULT:      -7.9      3.416      6.656
REMARK  Name = 
REMARK  7 active torsions:
REMARK  status: ('A' for Active; 'I' for Inactive)
REMARK    1  A    between atoms: C_1  and  C_2
REMARK    2  A    between atoms: C_2  and  C_3
REMARK    3  A    between atoms: C_3  and  C_4
REMARK    4  A    between atoms: C_4  and  N_5
REMARK    5  A    between atoms: N_8  and  C_9
REMARK    6  A    between atoms: C_9  and  C_10
REMARK    7  A    between atoms: C_11  and  C_12
REMARK                            x       y       z     vdW  Elec       q    Type
REMARK                         _______ _______ _______ _____ _____    ______ ____
ROOT
ATOM      1  C   UNL     1       5.970   4.940  17.134  0.00  0.00    +0.000 A 
ATOM      2  C   UNL     1       5.511   4.551  15.870  0.00  0.00    +0.000 A 
ATOM      3  O   UNL     1       4.209   4.162  15.952  0.00  0.00    +0.000 OA
ATOM      4  C   UNL     1       3.820   4.285  17.239  0.00  0.00    +0.000 A 
ATOM      5  C   UNL     1       2.612   3.839  17.758  0.00  0.00    +0.000 A 
ATOM      6  C   UNL     1       2.422   4.025  19.129  0.00  0.00    +0.000 A 
ATOM      7  C   UNL     1       3.330   4.760  19.886  0.00  0.00    +0.000 A 
ATOM      8  C   UNL     1       4.535   5.193  19.329  0.00  0.00    +0.000 A 
ATOM      9  C   UNL     1       4.824   4.877  17.987  0.00  0.00    +0.000 A 
ENDROOT
BRANCH   2  10
ATOM     10  C   UNL     1       6.097   4.411  14.540  0.00  0.00    +0.000 A 
ATOM     11  C   UNL     1       7.228   5.164  14.178  0.00  0.00    +0.000 A 
ATOM     12  C   UNL     1       7.779   5.065  12.899  0.00  0.00    +0.000 A 
ATOM     13  C   UNL     1       7.210   4.207  11.964  0.00  0.00    +0.000 A 
ATOM     14  C   UNL     1       6.099   3.442  12.310  0.00  0.00    +0.000 A 
ATOM     15  C   UNL     1       5.549   3.544  13.588  0.00  0.00    +0.000 A 
ENDBRANCH   2  10
BRANCH   1  16
ATOM     16  C   UNL     1       7.376   5.281  17.502  0.00  0.00    +0.000 C 
BRANCH  16  20
ATOM     17  N   UNL     1       8.349   8.581  18.468  0.00  0.00    +0.000 N 
ATOM     18  C   UNL     1       7.506   8.761  17.389  0.00  0.00    +0.000 A 
ATOM     19  N   UNL     1       7.033   7.661  16.934  0.00  0.00    +0.000 NA
ATOM     20  N   UNL     1       7.575   6.706  17.782  0.00  0.00    +0.000 N 
ATOM     21  C   UNL     1       8.337   7.277  18.711  0.00  0.00    +0.000 A 
BRANCH  17  22
ATOM     22  C   UNL     1       9.148   9.600  19.135  0.00  0.00    +0.000 C 
BRANCH  22  23
ATOM     23  C   UNL     1       9.241  10.854  18.277  0.00  0.00    +0.000 C 
BRANCH  23  25
ATOM     24  C   UNL     1      10.726  12.662  17.389  0.00  0.00    +0.000 C 
ATOM     25  C   UNL     1      10.636  11.468  18.325  0.00  0.00    +0.000 C 
ENDBRANCH  23  25
ENDBRANCH  22  23
ENDBRANCH  17  22
ENDBRANCH  16  20
ENDBRANCH   1  16
TORSDOF 6
ENDMDL
MODEL 5
REMARK VINA RESULT:      -7.8      3.096      6.230
REMARK  Name = 
REMARK  7 active torsions:
REMARK  status: ('A' for Active; 'I' for Inactive)
REMARK    1  A    between atoms: C_1  and  C_2
REMARK    2  A    between atoms: C_2  and  C_3
REMARK    3  A    between atoms: C_3  and  C_4
REMARK    4  A    between atoms: C_4  and  N_5
REMARK    5  A    between atoms: N_8  and  C_9
REMARK    6  A    between atoms: C_9  and  C_10
REMARK    7  A    between atoms: C_11  and  C_12
REMARK                            x       y       z     vdW  Elec       q    Type
REMARK                         _______ _______ _______ _____ _____    ______ ____
ROOT
ATOM      1  C   UNL     1       3.183   5.343  19.224  0.00  0.00    +0.000 A 
ATOM      2  C   UNL     1       4.394   5.093  18.568  0.00  0.00    +0.000 A 
ATOM      3  O   UNL     1       4.376   3.843  18.029  0.00  0.00    +0.000 OA
ATOM      4  C   UNL     1       3.186   3.279  18.328  0.00  0.00    +0.000 A 
ATOM      5  C   UNL     1       2.845   1.954  18.093  0.00  0.00    +0.000 A 
ATOM      6  C   UNL     1       1.575   1.559  18.518  0.00  0.00    +0.000 A 
ATOM      7  C   UNL     1       0.658   2.489  19.001  0.00  0.00    +0.000 A 
ATOM      8  C   UNL     1       1.038   3.814  19.223  0.00  0.00    +0.000 A 
ATOM      9  C   UNL     1       2.365   4.202  18.954  0.00  0.00    +0.000 A 
ENDROOT
BRANCH   2  10
ATOM     10  C   UNL     1       5.653   5.810  18.381  0.00  0.00    +0.000 A 
ATOM     11  C   UNL     1       6.762   5.524  19.198  0.00  0.00    +0.000 A 
ATOM     12  C   UNL     1       7.961   6.223  19.052  0.00  0.00    +0.000 A 
ATOM     13  C   UNL     1       8.071   7.215  18.083  0.00  0.00    +0.000 A 
ATOM     14  C   UNL     1       6.990   7.500  17.255  0.00  0.00    +0.000 A 
ATOM     15  C   UNL     1       5.791   6.800  17.403  0.00  0.00    +0.000 A 
ENDBRANCH   2  10
BRANCH   1  16
ATOM     16  C   UNL     1       2.862   6.529  20.073  0.00  0.00    +0.000 C 
BRANCH  16  20
ATOM     17  N   UNL     1       1.151   9.402  18.814  0.00  0.00    +0.000 N 
ATOM     18  C   UNL     1       1.866   8.915  17.737  0.00  0.00    +0.000 A 
ATOM     19  N   UNL     1       2.520   7.849  18.012  0.00  0.00    +0.000 NA
ATOM     20  N   UNL     1       2.192   7.606  19.338  0.00  0.00    +0.000 N 
ATOM     21  C   UNL     1       1.350   8.530  19.794  0.00  0.00    +0.000 A 
BRANCH  17  22
ATOM     22  C   UNL     1       0.410  10.654  18.878  0.00  0.00    +0.000 C 
BRANCH  22  23
ATOM     23  C   UNL     1      -1.085  10.387  18.974  0.00  0.00    +0.000 C 
BRANCH  23  25
ATOM     24  C   UNL     1      -3.061   9.718  17.590  0.00  0.00    +0.000 C 
ATOM     25  C   UNL     1      -1.769  10.519  17.617  0.00  0.00    +0.000 C 
ENDBRANCH  23  25
ENDBRANCH  22  23
ENDBRANCH  17  22
ENDBRANCH  16  20
ENDBRANCH   1  16
TORSDOF 6
ENDMDL
MODEL 6
REMARK VINA RESULT:      -7.7      0.750      1.249
REMARK  Name = 
REMARK  7 active torsions:
REMARK  status: ('A' for Active; 'I' for Inactive)
REMARK    1  A    between atoms: C_1  and  C_2
REMARK    2  A    between atoms: C_2  and  C_3
REMARK    3  A    between atoms: C_3  and  C_4
REMARK    4  A    between atoms: C_4  and  N_5
REMARK    5  A    between atoms: N_8  and  C_9
REMARK    6  A    between atoms: C_9  and  C_10
REMARK    7  A    between atoms: C_11  and  C_12
REMARK                            x       y       z     vdW  Elec       q    Type
REMARK                         _______ _______ _______ _____ _____    ______ ____
ROOT
ATOM      1  C   UNL     1       3.630   5.752  18.085  0.00  0.00    +0.000 A 
ATOM      2  C   UNL     1       2.525   6.393  18.656  0.00  0.00    +0.000 A 
ATOM      3  O   UNL     1       1.652   5.464  19.136  0.00  0.00    +0.000 OA
ATOM      4  C   UNL     1       2.165   4.242  18.880  0.00  0.00    +0.000 A 
ATOM      5  C   UNL     1       1.500   3.038  19.071  0.00  0.00    +0.000 A 
ATOM      6  C   UNL     1       2.196   1.883  18.703  0.00  0.00    +0.000 A 
ATOM      7  C   UNL     1       3.533   1.943  18.320  0.00  0.00    +0.000 A 
ATOM      8  C   UNL     1       4.167   3.173  18.138  0.00  0.00    +0.000 A 
ATOM      9  C   UNL     1       3.437   4.359  18.347  0.00  0.00    +0.000 A 
ENDROOT
BRANCH   2  10
ATOM     10  C   UNL     1       2.073   7.774  18.802  0.00  0.00    +0.000 A 
ATOM     11  C   UNL     1       2.201   8.681  17.735  0.00  0.00    +0.000 A 
ATOM     12  C   UNL     1       1.803  10.012  17.872  0.00  0.00    +0.000 A 
ATOM     13  C   UNL     1       1.266  10.454  19.075  0.00  0.00    +0.000 A 
ATOM     14  C   UNL     1       1.117   9.567  20.137  0.00  0.00    +0.000 A 
ATOM     15  C   UNL     1       1.516   8.237  20.000  0.00  0.00    +0.000 A 
ENDBRANCH   2  10
BRANCH   1  16
ATOM     16  C   UNL     1       4.731   6.401  17.312  0.00  0.00    +0.000 C 
BRANCH  16  20
ATOM     17  N   UNL     1       6.199   4.349  14.782  0.00  0.00    +0.000 N 
ATOM     18  C   UNL     1       7.129   4.374  15.802  0.00  0.00    +0.000 A 
ATOM     19  N   UNL     1       6.740   5.050  16.818  0.00  0.00    +0.000 NA
ATOM     20  N   UNL     1       5.468   5.469  16.454  0.00  0.00    +0.000 N 
ATOM     21  C   UNL     1       5.150   5.017  15.244  0.00  0.00    +0.000 A 
BRANCH  17  22
ATOM     22  C   UNL     1       6.374   3.784  13.451  0.00  0.00    +0.000 C 
BRANCH  22  23
ATOM     23  C   UNL     1       5.151   4.060  12.587  0.00  0.00    +0.000 C 
BRANCH  23  25
ATOM     24  C   UNL     1       3.582   3.159  10.858  0.00  0.00    +0.000 C 
ATOM     25  C   UNL     1       4.877   2.917  11.615  0.00  0.00    +0.000 C 
ENDBRANCH  23  25
ENDBRANCH  22  23
ENDBRANCH  17  22
ENDBRANCH  16  20
ENDBRANCH   1  16
TORSDOF 6
ENDMDL
MODEL 7
REMARK VINA RESULT:      -7.7      3.280      6.609
REMARK  Name = 
REMARK  7 active torsions:
REMARK  status: ('A' for Active; 'I' for Inactive)
REMARK    1  A    between atoms: C_1  and  C_2
REMARK    2  A    between atoms: C_2  and  C_3
REMARK    3  A    between atoms: C_3  and  C_4
REMARK    4  A    between atoms: C_4  and  N_5
REMARK    5  A    between atoms: N_8  and  C_9
REMARK    6  A    between atoms: C_9  and  C_10
REMARK    7  A    between atoms: C_11  and  C_12
REMARK                            x       y       z     vdW  Elec       q    Type
REMARK                         _______ _______ _______ _____ _____    ______ ____
ROOT
ATOM      1  C   UNL     1       5.900   4.607  17.131  0.00  0.00    +0.000 A 
ATOM      2  C   UNL     1       5.465   4.320  15.832  0.00  0.00    +0.000 A 
ATOM      3  O   UNL     1       4.174   3.888  15.864  0.00  0.00    +0.000 OA
ATOM      4  C   UNL     1       3.770   3.883  17.152  0.00  0.00    +0.000 A 
ATOM      5  C   UNL     1       2.571   3.357  17.614  0.00  0.00    +0.000 A 
ATOM      6  C   UNL     1       2.363   3.414  18.994  0.00  0.00    +0.000 A 
ATOM      7  C   UNL     1       3.242   4.105  19.824  0.00  0.00    +0.000 A 
ATOM      8  C   UNL     1       4.438   4.621  19.323  0.00  0.00    +0.000 A 
ATOM      9  C   UNL     1       4.749   4.434  17.962  0.00  0.00    +0.000 A 
ENDROOT
BRANCH   2  10
ATOM     10  C   UNL     1       6.067   4.317  14.502  0.00  0.00    +0.000 A 
ATOM     11  C   UNL     1       5.533   3.509  13.482  0.00  0.00    +0.000 A 
ATOM     12  C   UNL     1       6.118   3.473  12.214  0.00  0.00    +0.000 A 
ATOM     13  C   UNL     1       7.241   4.248  11.946  0.00  0.00    +0.000 A 
ATOM     14  C   UNL     1       7.772   5.066  12.939  0.00  0.00    +0.000 A 
ATOM     15  C   UNL     1       7.188   5.100  14.206  0.00  0.00    +0.000 A 
ENDBRANCH   2  10
BRANCH   1  16
ATOM     16  C   UNL     1       7.292   4.956  17.545  0.00  0.00    +0.000 C 
BRANCH  16  20
ATOM     17  N   UNL     1       8.255   8.287  18.409  0.00  0.00    +0.000 N 
ATOM     18  C   UNL     1       7.428   8.430  17.312  0.00  0.00    +0.000 A 
ATOM     19  N   UNL     1       6.960   7.315  16.890  0.00  0.00    +0.000 NA
ATOM     20  N   UNL     1       7.488   6.389  17.778  0.00  0.00    +0.000 N 
ATOM     21  C   UNL     1       8.238   6.991  18.697  0.00  0.00    +0.000 A 
BRANCH  17  22
ATOM     22  C   UNL     1       9.045   9.328  19.051  0.00  0.00    +0.000 C 
BRANCH  22  23
ATOM     23  C   UNL     1       9.076  10.583  18.192  0.00  0.00    +0.000 C 
BRANCH  23  25
ATOM     24  C   UNL     1      10.011  12.893  17.955  0.00  0.00    +0.000 C 
ATOM     25  C   UNL     1       9.743  11.748  18.917  0.00  0.00    +0.000 C 
ENDBRANCH  23  25
ENDBRANCH  22  23
ENDBRANCH  17  22
ENDBRANCH  16  20
ENDBRANCH   1  16
TORSDOF 6
ENDMDL
MODEL 8
REMARK VINA RESULT:      -7.7      0.533      1.196
REMARK  Name = 
REMARK  7 active torsions:
REMARK  status: ('A' for Active; 'I' for Inactive)
REMARK    1  A    between atoms: C_1  and  C_2
REMARK    2  A    between atoms: C_2  and  C_3
REMARK    3  A    between atoms: C_3  and  C_4
REMARK    4  A    between atoms: C_4  and  N_5
REMARK    5  A    between atoms: N_8  and  C_9
REMARK    6  A    between atoms: C_9  and  C_10
REMARK    7  A    between atoms: C_11  and  C_12
REMARK                            x       y       z     vdW  Elec       q    Type
REMARK                         _______ _______ _______ _____ _____    ______ ____
ROOT
ATOM      1  C   UNL     1       3.691   5.440  19.157  0.00  0.00    +0.000 A 
ATOM      2  C   UNL     1       2.475   6.134  19.174  0.00  0.00    +0.000 A 
ATOM      3  O   UNL     1       1.441   5.248  19.161  0.00  0.00    +0.000 OA
ATOM      4  C   UNL     1       1.961   4.003  19.130  0.00  0.00    +0.000 A 
ATOM      5  C   UNL     1       1.233   2.835  18.949  0.00  0.00    +0.000 A 
ATOM      6  C   UNL     1       1.969   1.649  18.904  0.00  0.00    +0.000 A 
ATOM      7  C   UNL     1       3.333   1.640  19.187  0.00  0.00    +0.000 A 
ATOM      8  C   UNL     1       4.031   2.836  19.363  0.00  0.00    +0.000 A 
ATOM      9  C   UNL     1       3.339   4.058  19.252  0.00  0.00    +0.000 A 
ENDROOT
BRANCH   2  10
ATOM     10  C   UNL     1       2.067   7.535  19.142  0.00  0.00    +0.000 A 
ATOM     11  C   UNL     1       2.217   8.294  17.968  0.00  0.00    +0.000 A 
ATOM     12  C   UNL     1       1.861   9.643  17.933  0.00  0.00    +0.000 A 
ATOM     13  C   UNL     1       1.343  10.253  19.070  0.00  0.00    +0.000 A 
ATOM     14  C   UNL     1       1.173   9.514  20.237  0.00  0.00    +0.000 A 
ATOM     15  C   UNL     1       1.530   8.165  20.271  0.00  0.00    +0.000 A 
ENDBRANCH   2  10
BRANCH   1  16
ATOM     16  C   UNL     1       5.051   6.038  19.007  0.00  0.00    +0.000 C 
BRANCH  16  20
ATOM     17  N   UNL     1       6.721   4.804  16.098  0.00  0.00    +0.000 N 
ATOM     18  C   UNL     1       7.575   4.519  17.146  0.00  0.00    +0.000 A 
ATOM     19  N   UNL     1       7.106   4.871  18.284  0.00  0.00    +0.000 NA
ATOM     20  N   UNL     1       5.859   5.391  17.969  0.00  0.00    +0.000 N 
ATOM     21  C   UNL     1       5.634   5.317  16.660  0.00  0.00    +0.000 A 
BRANCH  17  22
ATOM     22  C   UNL     1       6.998   4.652  14.677  0.00  0.00    +0.000 C 
BRANCH  22  23
ATOM     23  C   UNL     1       5.824   3.989  13.971  0.00  0.00    +0.000 C 
BRANCH  23  25
ATOM     24  C   UNL     1       7.289   4.404  11.984  0.00  0.00    +0.000 C 
ATOM     25  C   UNL     1       6.201   3.519  12.569  0.00  0.00    +0.000 C 
ENDBRANCH  23  25
ENDBRANCH  22  23
ENDBRANCH  17  22
ENDBRANCH  16  20
ENDBRANCH   1  16
TORSDOF 6
ENDMDL
MODEL 9
REMARK VINA RESULT:      -7.7      3.112      6.268
REMARK  Name = 
REMARK  7 active torsions:
REMARK  status: ('A' for Active; 'I' for Inactive)
REMARK    1  A    between atoms: C_1  and  C_2
REMARK    2  A    between atoms: C_2  and  C_3
REMARK    3  A    between atoms: C_3  and  C_4
REMARK    4  A    between atoms: C_4  and  N_5
REMARK    5  A    between atoms: N_8  and  C_9
REMARK    6  A    between atoms: C_9  and  C_10
REMARK    7  A    between atoms: C_11  and  C_12
REMARK                            x       y       z     vdW  Elec       q    Type
REMARK                         _______ _______ _______ _____ _____    ______ ____
ROOT
ATOM      1  C   UNL     1       3.156   5.334  19.255  0.00  0.00    +0.000 A 
ATOM      2  C   UNL     1       4.370   5.093  18.601  0.00  0.00    +0.000 A 
ATOM      3  O   UNL     1       4.358   3.846  18.053  0.00  0.00    +0.000 OA
ATOM      4  C   UNL     1       3.169   3.277  18.345  0.00  0.00    +0.000 A 
ATOM      5  C   UNL     1       2.833   1.952  18.101  0.00  0.00    +0.000 A 
ATOM      6  C   UNL     1       1.563   1.550  18.520  0.00  0.00    +0.000 A 
ATOM      7  C   UNL     1       0.641   2.474  19.005  0.00  0.00    +0.000 A 
ATOM      8  C   UNL     1       1.016   3.798  19.238  0.00  0.00    +0.000 A 
ATOM      9  C   UNL     1       2.343   4.192  18.975  0.00  0.00    +0.000 A 
ENDROOT
BRANCH   2  10
ATOM     10  C   UNL     1       5.627   5.815  18.423  0.00  0.00    +0.000 A 
ATOM     11  C   UNL     1       5.744   6.805  17.430  0.00  0.00    +0.000 A 
ATOM     12  C   UNL     1       6.949   7.480  17.228  0.00  0.00    +0.000 A 
ATOM     13  C   UNL     1       8.053   7.180  18.018  0.00  0.00    +0.000 A 
ATOM     14  C   UNL     1       7.951   6.214  19.015  0.00  0.00    +0.000 A 
ATOM     15  C   UNL     1       6.746   5.539  19.216  0.00  0.00    +0.000 A 
ENDBRANCH   2  10
BRANCH   1  16
ATOM     16  C   UNL     1       2.828   6.513  20.111  0.00  0.00    +0.000 C 
BRANCH  16  20
ATOM     17  N   UNL     1       1.161   9.415  18.859  0.00  0.00    +0.000 N 
ATOM     18  C   UNL     1       1.797   8.869  17.761  0.00  0.00    +0.000 A 
ATOM     19  N   UNL     1       2.424   7.786  18.033  0.00  0.00    +0.000 NA
ATOM     20  N   UNL     1       2.161   7.595  19.381  0.00  0.00    +0.000 N 
ATOM     21  C   UNL     1       1.381   8.564  19.853  0.00  0.00    +0.000 A 
BRANCH  17  22
ATOM     22  C   UNL     1       0.473  10.697  18.925  0.00  0.00    +0.000 C 
BRANCH  22  23
ATOM     23  C   UNL     1      -1.024  10.492  19.110  0.00  0.00    +0.000 C 
BRANCH  23  25
ATOM     24  C   UNL     1      -2.073   9.928  16.909  0.00  0.00    +0.000 C 
ATOM     25  C   UNL     1      -1.818  11.030  17.924  0.00  0.00    +0.000 C 
ENDBRANCH  23  25
ENDBRANCH  22  23
ENDBRANCH  17  22
ENDBRANCH  16  20
ENDBRANCH   1  16
TORSDOF 6
ENDMDL
