MODEL 1
REMARK VINA RESULT:      -7.0      0.000      0.000
REMARK  Name = 
REMARK  8 active torsions:
REMARK  status: ('A' for Active; 'I' for Inactive)
REMARK    1  A    between atoms: C_1  and  C_2
REMARK    2  A    between atoms: C_2  and  O_3
REMARK    3  A    between atoms: C_2  and  C_4
REMARK    4  A    between atoms: C_7  and  O_8
REMARK    5  A    between atoms: O_8  and  C_9
REMARK    6  A    between atoms: C_9  and  C_10
REMARK    7  A    between atoms: N_13  and  C_14
REMARK    8  A    between atoms: C_14  and  C_15
REMARK                            x       y       z     vdW  Elec       q    Type
REMARK                         _______ _______ _______ _____ _____    ______ ____
ROOT
ATOM      1  O   UNL     1       7.557   5.755  15.371  0.00  0.00    +0.000 OA
ENDROOT
BRANCH   1   5
ATOM      2  C   UNL     1       5.950   3.468  12.243  0.00  0.00    +0.000 A 
ATOM      3  C   UNL     1       5.345   3.554  13.506  0.00  0.00    +0.000 A 
ATOM      4  C   UNL     1       5.906   4.334  14.522  0.00  0.00    +0.000 A 
ATOM      5  C   UNL     1       7.099   5.020  14.310  0.00  0.00    +0.000 A 
ATOM      6  C   UNL     1       7.718   4.943  13.064  0.00  0.00    +0.000 A 
ATOM      7  C   UNL     1       7.154   4.164  12.047  0.00  0.00    +0.000 A 
BRANCH   2   9
ATOM      8  C   UNL     1       5.820   1.129  11.177  0.00  0.00    +0.000 C 
ATOM      9  C   UNL     1       5.386   2.592  11.136  0.00  0.00    +0.000 C 
BRANCH   9  10
ATOM     10  O   UNL     1       3.957   2.599  11.176  0.00  0.00    +0.000 OA
ATOM     11  H   UNL     1       3.687   3.521  11.331  0.00  0.00    +0.000 HD
ENDBRANCH   9  10
ENDBRANCH   2   9
ENDBRANCH   1   5
BRANCH   1  12
ATOM     12  C   UNL     1       7.381   5.144  16.653  0.00  0.00    +0.000 C 
BRANCH  12  13
ATOM     13  C   UNL     1       7.138   6.236  17.712  0.00  0.00    +0.000 C 
ATOM     14  C   UNL     1       6.896   5.615  19.092  0.00  0.00    +0.000 C 
ATOM     15  C   UNL     1       5.521   4.947  19.199  0.00  0.00    +0.000 C 
ATOM     16  N   UNL     1       4.437   5.883  18.873  0.00  0.00    +0.000 NA
ATOM     17  C   UNL     1       4.612   6.461  17.527  0.00  0.00    +0.000 C 
ATOM     18  C   UNL     1       5.963   7.160  17.371  0.00  0.00    +0.000 C 
BRANCH  16  19
ATOM     19  C   UNL     1       3.109   5.248  18.955  0.00  0.00    +0.000 C 
BRANCH  19  20
ATOM     20  C   UNL     1       2.747   4.490  17.710  0.00  0.00    +0.000 C 
ATOM     21  C   UNL     1       3.042   3.017  17.561  0.00  0.00    +0.000 C 
ATOM     22  C   UNL     1       1.624   3.481  17.738  0.00  0.00    +0.000 C 
ENDBRANCH  19  20
ENDBRANCH  16  19
ENDBRANCH  12  13
ENDBRANCH   1  12
TORSDOF 7
ENDMDL
MODEL 2
REMARK VINA RESULT:      -6.7      3.920      7.491
REMARK  Name = 
REMARK  8 active torsions:
REMARK  status: ('A' for Active; 'I' for Inactive)
REMARK    1  A    between atoms: C_1  and  C_2
REMARK    2  A    between atoms: C_2  and  O_3
REMARK    3  A    between atoms: C_2  and  C_4
REMARK    4  A    between atoms: C_7  and  O_8
REMARK    5  A    between atoms: O_8  and  C_9
REMARK    6  A    between atoms: C_9  and  C_10
REMARK    7  A    between atoms: N_13  and  C_14
REMARK    8  A    between atoms: C_14  and  C_15
REMARK                            x       y       z     vdW  Elec       q    Type
REMARK                         _______ _______ _______ _____ _____    ______ ____
ROOT
ATOM      1  O   UNL     1       3.283   6.480  17.557  0.00  0.00    +0.000 OA
ENDROOT
BRANCH   1   5
ATOM      2  C   UNL     1       1.130   9.031  20.098  0.00  0.00    +0.000 A 
ATOM      3  C   UNL     1       1.653   7.801  20.526  0.00  0.00    +0.000 A 
ATOM      4  C   UNL     1       2.373   6.981  19.651  0.00  0.00    +0.000 A 
ATOM      5  C   UNL     1       2.561   7.356  18.324  0.00  0.00    +0.000 A 
ATOM      6  C   UNL     1       2.045   8.571  17.879  0.00  0.00    +0.000 A 
ATOM      7  C   UNL     1       1.328   9.392  18.756  0.00  0.00    +0.000 A 
BRANCH   2   9
ATOM      8  C   UNL     1      -0.285   9.225  22.239  0.00  0.00    +0.000 C 
ATOM      9  C   UNL     1       0.305   9.920  21.015  0.00  0.00    +0.000 C 
BRANCH   9  10
ATOM     10  O   UNL     1       1.099  11.005  21.501  0.00  0.00    +0.000 OA
ATOM     11  H   UNL     1       1.912  10.615  21.866  0.00  0.00    +0.000 HD
ENDBRANCH   9  10
ENDBRANCH   2   9
ENDBRANCH   1   5
BRANCH   1  12
ATOM     12  C   UNL     1       4.703   6.651  17.617  0.00  0.00    +0.000 C 
BRANCH  12  13
ATOM     13  C   UNL     1       5.395   5.351  17.168  0.00  0.00    +0.000 C 
ATOM     14  C   UNL     1       4.413   4.436  16.429  0.00  0.00    +0.000 C 
ATOM     15  C   UNL     1       3.396   3.786  17.373  0.00  0.00    +0.000 C 
ATOM     16  N   UNL     1       4.057   3.043  18.453  0.00  0.00    +0.000 NA
ATOM     17  C   UNL     1       4.973   3.909  19.219  0.00  0.00    +0.000 C 
ATOM     18  C   UNL     1       6.025   4.570  18.327  0.00  0.00    +0.000 C 
BRANCH  16  19
ATOM     19  C   UNL     1       3.090   2.427  19.379  0.00  0.00    +0.000 C 
BRANCH  19  20
ATOM     20  C   UNL     1       2.429   3.428  20.283  0.00  0.00    +0.000 C 
ATOM     21  C   UNL     1       0.928   3.500  20.429  0.00  0.00    +0.000 C 
ATOM     22  C   UNL     1       1.764   2.972  21.560  0.00  0.00    +0.000 C 
ENDBRANCH  19  20
ENDBRANCH  16  19
ENDBRANCH  12  13
ENDBRANCH   1  12
TORSDOF 7
ENDMDL
MODEL 3
REMARK VINA RESULT:      -6.6      3.482      5.931
REMARK  Name = 
REMARK  8 active torsions:
REMARK  status: ('A' for Active; 'I' for Inactive)
REMARK    1  A    between atoms: C_1  and  C_2
REMARK    2  A    between atoms: C_2  and  O_3
REMARK    3  A    between atoms: C_2  and  C_4
REMARK    4  A    between atoms: C_7  and  O_8
REMARK    5  A    between atoms: O_8  and  C_9
REMARK    6  A    between atoms: C_9  and  C_10
REMARK    7  A    between atoms: N_13  and  C_14
REMARK    8  A    between atoms: C_14  and  C_15
REMARK                            x       y       z     vdW  Elec       q    Type
REMARK                         _______ _______ _______ _____ _____    ______ ____
ROOT
ATOM      1  O   UNL     1       3.690   2.743  18.041  0.00  0.00    +0.000 OA
ENDROOT
BRANCH   1   5
ATOM      2  C   UNL     1       6.692   5.672  17.949  0.00  0.00    +0.000 A 
ATOM      3  C   UNL     1       6.166   5.090  16.786  0.00  0.00    +0.000 A 
ATOM      4  C   UNL     1       5.160   4.122  16.856  0.00  0.00    +0.000 A 
ATOM      5  C   UNL     1       4.678   3.691  18.088  0.00  0.00    +0.000 A 
ATOM      6  C   UNL     1       5.189   4.254  19.256  0.00  0.00    +0.000 A 
ATOM      7  C   UNL     1       6.195   5.225  19.184  0.00  0.00    +0.000 A 
BRANCH   2   9
ATOM      8  C   UNL     1       7.407   8.098  17.473  0.00  0.00    +0.000 C 
ATOM      9  C   UNL     1       7.817   6.693  17.903  0.00  0.00    +0.000 C 
BRANCH   9  10
ATOM     10  O   UNL     1       8.428   6.818  19.190  0.00  0.00    +0.000 OA
ATOM     11  H   UNL     1       8.233   5.996  19.672  0.00  0.00    +0.000 HD
ENDBRANCH   9  10
ENDBRANCH   2   9
ENDBRANCH   1   5
BRANCH   1  12
ATOM     12  C   UNL     1       3.442   2.063  19.276  0.00  0.00    +0.000 C 
BRANCH  12  13
ATOM     13  C   UNL     1       2.009   2.368  19.749  0.00  0.00    +0.000 C 
ATOM     14  C   UNL     1       1.224   3.122  18.669  0.00  0.00    +0.000 C 
ATOM     15  C   UNL     1       1.683   4.576  18.523  0.00  0.00    +0.000 C 
ATOM     16  N   UNL     1       1.602   5.302  19.797  0.00  0.00    +0.000 NA
ATOM     17  C   UNL     1       2.390   4.629  20.848  0.00  0.00    +0.000 C 
ATOM     18  C   UNL     1       1.960   3.176  21.051  0.00  0.00    +0.000 C 
BRANCH  16  19
ATOM     19  C   UNL     1       2.057   6.698  19.673  0.00  0.00    +0.000 C 
BRANCH  19  20
ATOM     20  C   UNL     1       2.211   7.137  18.245  0.00  0.00    +0.000 C 
ATOM     21  C   UNL     1       2.450   8.581  17.878  0.00  0.00    +0.000 C 
ATOM     22  C   UNL     1       3.560   7.579  17.730  0.00  0.00    +0.000 C 
ENDBRANCH  19  20
ENDBRANCH  16  19
ENDBRANCH  12  13
ENDBRANCH   1  12
TORSDOF 7
ENDMDL
MODEL 4
REMARK VINA RESULT:      -6.5      3.733      7.364
REMARK  Name = 
REMARK  8 active torsions:
REMARK  status: ('A' for Active; 'I' for Inactive)
REMARK    1  A    between atoms: C_1  and  C_2
REMARK    2  A    between atoms: C_2  and  O_3
REMARK    3  A    between atoms: C_2  and  C_4
REMARK    4  A    between atoms: C_7  and  O_8
REMARK    5  A    between atoms: O_8  and  C_9
REMARK    6  A    between atoms: C_9  and  C_10
REMARK    7  A    between atoms: N_13  and  C_14
REMARK    8  A    between atoms: C_14  and  C_15
REMARK                            x       y       z     vdW  Elec       q    Type
REMARK                         _______ _______ _______ _____ _____    ______ ____
ROOT
ATOM      1  O   UNL     1       3.469   6.539  17.441  0.00  0.00    +0.000 OA
ENDROOT
BRANCH   1   5
ATOM      2  C   UNL     1       1.138   8.900  20.008  0.00  0.00    +0.000 A 
ATOM      3  C   UNL     1       1.417   9.270  18.683  0.00  0.00    +0.000 A 
ATOM      4  C   UNL     1       2.192   8.453  17.854  0.00  0.00    +0.000 A 
ATOM      5  C   UNL     1       2.730   7.264  18.338  0.00  0.00    +0.000 A 
ATOM      6  C   UNL     1       2.469   6.881  19.652  0.00  0.00    +0.000 A 
ATOM      7  C   UNL     1       1.691   7.699  20.479  0.00  0.00    +0.000 A 
BRANCH   2   9
ATOM      8  C   UNL     1      -0.254   9.093  22.164  0.00  0.00    +0.000 C 
ATOM      9  C   UNL     1       0.338   9.792  20.943  0.00  0.00    +0.000 C 
BRANCH   9  10
ATOM     10  O   UNL     1       1.155  10.858  21.435  0.00  0.00    +0.000 OA
ATOM     11  H   UNL     1       1.386  11.409  20.667  0.00  0.00    +0.000 HD
ENDBRANCH   9  10
ENDBRANCH   2   9
ENDBRANCH   1   5
BRANCH   1  12
ATOM     12  C   UNL     1       4.869   6.838  17.426  0.00  0.00    +0.000 C 
BRANCH  12  13
ATOM     13  C   UNL     1       5.664   5.555  17.123  0.00  0.00    +0.000 C 
ATOM     14  C   UNL     1       4.823   4.572  16.300  0.00  0.00    +0.000 C 
ATOM     15  C   UNL     1       3.718   3.911  17.131  0.00  0.00    +0.000 C 
ATOM     16  N   UNL     1       4.261   3.236  18.317  0.00  0.00    +0.000 NA
ATOM     17  C   UNL     1       5.035   4.168  19.159  0.00  0.00    +0.000 C 
ATOM     18  C   UNL     1       6.167   4.843  18.383  0.00  0.00    +0.000 C 
BRANCH  16  19
ATOM     19  C   UNL     1       3.206   2.611  19.134  0.00  0.00    +0.000 C 
BRANCH  19  20
ATOM     20  C   UNL     1       1.887   3.321  19.026  0.00  0.00    +0.000 C 
ATOM     21  C   UNL     1       0.577   2.603  19.247  0.00  0.00    +0.000 C 
ATOM     22  C   UNL     1       1.069   3.591  20.266  0.00  0.00    +0.000 C 
ENDBRANCH  19  20
ENDBRANCH  16  19
ENDBRANCH  12  13
ENDBRANCH   1  12
TORSDOF 7
ENDMDL
MODEL 5
REMARK VINA RESULT:      -6.4      1.236      1.443
REMARK  Name = 
REMARK  8 active torsions:
REMARK  status: ('A' for Active; 'I' for Inactive)
REMARK    1  A    between atoms: C_1  and  C_2
REMARK    2  A    between atoms: C_2  and  O_3
REMARK    3  A    between atoms: C_2  and  C_4
REMARK    4  A    between atoms: C_7  and  O_8
REMARK    5  A    between atoms: O_8  and  C_9
REMARK    6  A    between atoms: C_9  and  C_10
REMARK    7  A    between atoms: N_13  and  C_14
REMARK    8  A    between atoms: C_14  and  C_15
REMARK                            x       y       z     vdW  Elec       q    Type
REMARK                         _______ _______ _______ _____ _____    ______ ____
ROOT
ATOM      1  O   UNL     1       7.260   6.025  15.637  0.00  0.00    +0.000 OA
ENDROOT
BRANCH   1   5
ATOM      2  C   UNL     1       6.528   3.478  12.385  0.00  0.00    +0.000 A 
ATOM      3  C   UNL     1       5.825   3.381  13.596  0.00  0.00    +0.000 A 
ATOM      4  C   UNL     1       6.092   4.254  14.655  0.00  0.00    +0.000 A 
ATOM      5  C   UNL     1       7.086   5.222  14.541  0.00  0.00    +0.000 A 
ATOM      6  C   UNL     1       7.797   5.331  13.349  0.00  0.00    +0.000 A 
ATOM      7  C   UNL     1       7.528   4.459  12.288  0.00  0.00    +0.000 A 
BRANCH   2   9
ATOM      8  C   UNL     1       7.539   1.827  10.689  0.00  0.00    +0.000 C 
ATOM      9  C   UNL     1       6.290   2.513  11.235  0.00  0.00    +0.000 C 
BRANCH   9  10
ATOM     10  O   UNL     1       5.392   1.475  11.634  0.00  0.00    +0.000 OA
ATOM     11  H   UNL     1       5.938   0.694  11.830  0.00  0.00    +0.000 HD
ENDBRANCH   9  10
ENDBRANCH   2   9
ENDBRANCH   1   5
BRANCH   1  12
ATOM     12  C   UNL     1       7.240   5.346  16.896  0.00  0.00    +0.000 C 
BRANCH  12  13
ATOM     13  C   UNL     1       6.473   6.196  17.925  0.00  0.00    +0.000 C 
ATOM     14  C   UNL     1       6.309   5.439  19.248  0.00  0.00    +0.000 C 
ATOM     15  C   UNL     1       5.286   4.303  19.148  0.00  0.00    +0.000 C 
ATOM     16  N   UNL     1       3.980   4.789  18.685  0.00  0.00    +0.000 NA
ATOM     17  C   UNL     1       4.093   5.479  17.387  0.00  0.00    +0.000 C 
ATOM     18  C   UNL     1       5.090   6.638  17.434  0.00  0.00    +0.000 C 
BRANCH  16  19
ATOM     19  C   UNL     1       2.991   3.703  18.568  0.00  0.00    +0.000 C 
BRANCH  19  20
ATOM     20  C   UNL     1       2.313   3.388  19.872  0.00  0.00    +0.000 C 
ATOM     21  C   UNL     1       1.939   4.470  20.855  0.00  0.00    +0.000 C 
ATOM     22  C   UNL     1       0.865   3.761  20.081  0.00  0.00    +0.000 C 
ENDBRANCH  19  20
ENDBRANCH  16  19
ENDBRANCH  12  13
ENDBRANCH   1  12
TORSDOF 7
ENDMDL
MODEL 6
REMARK VINA RESULT:      -6.4      3.612      7.514
REMARK  Name = 
REMARK  8 active torsions:
REMARK  status: ('A' for Active; 'I' for Inactive)
REMARK    1  A    between atoms: C_1  and  C_2
REMARK    2  A    between atoms: C_2  and  O_3
REMARK    3  A    between atoms: C_2  and  C_4
REMARK    4  A    between atoms: C_7  and  O_8
REMARK    5  A    between atoms: O_8  and  C_9
REMARK    6  A    between atoms: C_9  and  C_10
REMARK    7  A    between atoms: N_13  and  C_14
REMARK    8  A    between atoms: C_14  and  C_15
REMARK                            x       y       z     vdW  Elec       q    Type
REMARK                         _______ _______ _______ _____ _____    ______ ____
ROOT
ATOM      1  O   UNL     1       2.533   5.265  20.331  0.00  0.00    +0.000 OA
ENDROOT
BRANCH   1   5
ATOM      2  C   UNL     1       1.578   9.122  18.986  0.00  0.00    +0.000 A 
ATOM      3  C   UNL     1       1.337   8.698  20.302  0.00  0.00    +0.000 A 
ATOM      4  C   UNL     1       1.676   7.406  20.715  0.00  0.00    +0.000 A 
ATOM      5  C   UNL     1       2.236   6.500  19.818  0.00  0.00    +0.000 A 
ATOM      6  C   UNL     1       2.480   6.901  18.507  0.00  0.00    +0.000 A 
ATOM      7  C   UNL     1       2.142   8.196  18.094  0.00  0.00    +0.000 A 
BRANCH   2   9
ATOM      8  C   UNL     1       1.130  11.588  19.572  0.00  0.00    +0.000 C 
ATOM      9  C   UNL     1       1.177  10.505  18.498  0.00  0.00    +0.000 C 
BRANCH   9  10
ATOM     10  O   UNL     1       2.086  10.961  17.493  0.00  0.00    +0.000 OA
ATOM     11  H   UNL     1       1.672  11.735  17.073  0.00  0.00    +0.000 HD
ENDBRANCH   9  10
ENDBRANCH   2   9
ENDBRANCH   1   5
BRANCH   1  12
ATOM     12  C   UNL     1       1.661   4.210  19.914  0.00  0.00    +0.000 C 
BRANCH  12  13
ATOM     13  C   UNL     1       2.495   2.965  19.561  0.00  0.00    +0.000 C 
ATOM     14  C   UNL     1       3.989   3.226  19.782  0.00  0.00    +0.000 C 
ATOM     15  C   UNL     1       4.584   4.153  18.717  0.00  0.00    +0.000 C 
ATOM     16  N   UNL     1       4.362   3.634  17.362  0.00  0.00    +0.000 NA
ATOM     17  C   UNL     1       2.927   3.420  17.097  0.00  0.00    +0.000 C 
ATOM     18  C   UNL     1       2.284   2.483  18.121  0.00  0.00    +0.000 C 
BRANCH  16  19
ATOM     19  C   UNL     1       4.914   4.526  16.327  0.00  0.00    +0.000 C 
BRANCH  19  20
ATOM     20  C   UNL     1       5.983   3.869  15.500  0.00  0.00    +0.000 C 
ATOM     21  C   UNL     1       6.005   3.981  13.994  0.00  0.00    +0.000 C 
ATOM     22  C   UNL     1       7.032   4.709  14.813  0.00  0.00    +0.000 C 
ENDBRANCH  19  20
ENDBRANCH  16  19
ENDBRANCH  12  13
ENDBRANCH   1  12
TORSDOF 7
ENDMDL
MODEL 7
REMARK VINA RESULT:      -6.4      3.518      5.898
REMARK  Name = 
REMARK  8 active torsions:
REMARK  status: ('A' for Active; 'I' for Inactive)
REMARK    1  A    between atoms: C_1  and  C_2
REMARK    2  A    between atoms: C_2  and  O_3
REMARK    3  A    between atoms: C_2  and  C_4
REMARK    4  A    between atoms: C_7  and  O_8
REMARK    5  A    between atoms: O_8  and  C_9
REMARK    6  A    between atoms: C_9  and  C_10
REMARK    7  A    between atoms: N_13  and  C_14
REMARK    8  A    between atoms: C_14  and  C_15
REMARK                            x       y       z     vdW  Elec       q    Type
REMARK                         _______ _______ _______ _____ _____    ______ ____
ROOT
ATOM      1  O   UNL     1       3.415   2.831  17.986  0.00  0.00    +0.000 OA
ENDROOT
BRANCH   1   5
ATOM      2  C   UNL     1       6.620   5.537  17.918  0.00  0.00    +0.000 A 
ATOM      3  C   UNL     1       6.138   4.964  19.105  0.00  0.00    +0.000 A 
ATOM      4  C   UNL     1       5.072   4.059  19.087  0.00  0.00    +0.000 A 
ATOM      5  C   UNL     1       4.444   3.729  17.889  0.00  0.00    +0.000 A 
ATOM      6  C   UNL     1       4.905   4.291  16.700  0.00  0.00    +0.000 A 
ATOM      7  C   UNL     1       5.974   5.194  16.719  0.00  0.00    +0.000 A 
BRANCH   2   9
ATOM      8  C   UNL     1       7.347   7.969  17.492  0.00  0.00    +0.000 C 
ATOM      9  C   UNL     1       7.747   6.557  17.914  0.00  0.00    +0.000 C 
BRANCH   9  10
ATOM     10  O   UNL     1       8.324   6.665  19.218  0.00  0.00    +0.000 OA
ATOM     11  H   UNL     1       9.154   7.162  19.114  0.00  0.00    +0.000 HD
ENDBRANCH   9  10
ENDBRANCH   2   9
ENDBRANCH   1   5
BRANCH   1  12
ATOM     12  C   UNL     1       3.453   1.988  19.142  0.00  0.00    +0.000 C 
BRANCH  12  13
ATOM     13  C   UNL     1       2.068   1.979  19.814  0.00  0.00    +0.000 C 
ATOM     14  C   UNL     1       1.045   2.751  18.973  0.00  0.00    +0.000 C 
ATOM     15  C   UNL     1       1.267   4.266  19.031  0.00  0.00    +0.000 C 
ATOM     16  N   UNL     1       1.256   4.763  20.412  0.00  0.00    +0.000 NA
ATOM     17  C   UNL     1       2.265   4.076  21.239  0.00  0.00    +0.000 C 
ATOM     18  C   UNL     1       2.079   2.558  21.234  0.00  0.00    +0.000 C 
BRANCH  16  19
ATOM     19  C   UNL     1       1.485   6.217  20.482  0.00  0.00    +0.000 C 
BRANCH  19  20
ATOM     20  C   UNL     1       2.573   6.682  19.556  0.00  0.00    +0.000 C 
ATOM     21  C   UNL     1       2.381   6.719  18.060  0.00  0.00    +0.000 C 
ATOM     22  C   UNL     1       2.441   8.003  18.837  0.00  0.00    +0.000 C 
ENDBRANCH  19  20
ENDBRANCH  16  19
ENDBRANCH  12  13
ENDBRANCH   1  12
TORSDOF 7
ENDMDL
MODEL 8
REMARK VINA RESULT:      -6.3      4.183      7.610
REMARK  Name = 
REMARK  8 active torsions:
REMARK  status: ('A' for Active; 'I' for Inactive)
REMARK    1  A    between atoms: C_1  and  C_2
REMARK    2  A    between atoms: C_2  and  O_3
REMARK    3  A    between atoms: C_2  and  C_4
REMARK    4  A    between atoms: C_7  and  O_8
REMARK    5  A    between atoms: O_8  and  C_9
REMARK    6  A    between atoms: C_9  and  C_10
REMARK    7  A    between atoms: N_13  and  C_14
REMARK    8  A    between atoms: C_14  and  C_15
REMARK                            x       y       z     vdW  Elec       q    Type
REMARK                         _______ _______ _______ _____ _____    ______ ____
ROOT
ATOM      1  O   UNL     1       3.082   6.303  18.195  0.00  0.00    +0.000 OA
ENDROOT
BRANCH   1   5
ATOM      2  C   UNL     1       1.114   9.707  19.659  0.00  0.00    +0.000 A 
ATOM      3  C   UNL     1       1.580   9.610  18.338  0.00  0.00    +0.000 A 
ATOM      4  C   UNL     1       2.225   8.456  17.885  0.00  0.00    +0.000 A 
ATOM      5  C   UNL     1       2.446   7.384  18.745  0.00  0.00    +0.000 A 
ATOM      6  C   UNL     1       1.995   7.462  20.061  0.00  0.00    +0.000 A 
ATOM      7  C   UNL     1       1.347   8.617  20.514  0.00  0.00    +0.000 A 
BRANCH   2   9
ATOM      8  C   UNL     1      -1.063  11.030  20.020  0.00  0.00    +0.000 C 
ATOM      9  C   UNL     1       0.452  10.967  20.190  0.00  0.00    +0.000 C 
BRANCH   9  10
ATOM     10  O   UNL     1       0.715  11.116  21.588  0.00  0.00    +0.000 OA
ATOM     11  H   UNL     1      -0.140  11.299  22.014  0.00  0.00    +0.000 HD
ENDBRANCH   9  10
ENDBRANCH   2   9
ENDBRANCH   1   5
BRANCH   1  12
ATOM     12  C   UNL     1       4.104   6.620  17.245  0.00  0.00    +0.000 C 
BRANCH  12  13
ATOM     13  C   UNL     1       5.219   5.561  17.320  0.00  0.00    +0.000 C 
ATOM     14  C   UNL     1       4.784   4.258  16.639  0.00  0.00    +0.000 C 
ATOM     15  C   UNL     1       3.745   3.489  17.461  0.00  0.00    +0.000 C 
ATOM     16  N   UNL     1       4.228   3.206  18.818  0.00  0.00    +0.000 NA
ATOM     17  C   UNL     1       4.608   4.446  19.522  0.00  0.00    +0.000 C 
ATOM     18  C   UNL     1       5.660   5.247  18.754  0.00  0.00    +0.000 C 
BRANCH  16  19
ATOM     19  C   UNL     1       3.230   2.482  19.625  0.00  0.00    +0.000 C 
BRANCH  19  20
ATOM     20  C   UNL     1       2.471   3.380  20.560  0.00  0.00    +0.000 C 
ATOM     21  C   UNL     1       1.040   3.778  20.293  0.00  0.00    +0.000 C 
ATOM     22  C   UNL     1       1.353   2.820  21.407  0.00  0.00    +0.000 C 
ENDBRANCH  19  20
ENDBRANCH  16  19
ENDBRANCH  12  13
ENDBRANCH   1  12
TORSDOF 7
ENDMDL
MODEL 9
REMARK VINA RESULT:      -6.3      3.983      7.562
REMARK  Name = 
REMARK  8 active torsions:
REMARK  status: ('A' for Active; 'I' for Inactive)
REMARK    1  A    between atoms: C_1  and  C_2
REMARK    2  A    between atoms: C_2  and  O_3
REMARK    3  A    between atoms: C_2  and  C_4
REMARK    4  A    between atoms: C_7  and  O_8
REMARK    5  A    between atoms: O_8  and  C_9
REMARK    6  A    between atoms: C_9  and  C_10
REMARK    7  A    between atoms: N_13  and  C_14
REMARK    8  A    between atoms: C_14  and  C_15
REMARK                            x       y       z     vdW  Elec       q    Type
REMARK                         _______ _______ _______ _____ _____    ______ ____
ROOT
ATOM      1  O   UNL     1       2.676   5.331  20.264  0.00  0.00    +0.000 OA
ENDROOT
BRANCH   1   5
ATOM      2  C   UNL     1       1.564   9.127  18.866  0.00  0.00    +0.000 A 
ATOM      3  C   UNL     1       2.251   8.197  18.070  0.00  0.00    +0.000 A 
ATOM      4  C   UNL     1       2.598   6.938  18.569  0.00  0.00    +0.000 A 
ATOM      5  C   UNL     1       2.294   6.589  19.881  0.00  0.00    +0.000 A 
ATOM      6  C   UNL     1       1.616   7.499  20.690  0.00  0.00    +0.000 A 
ATOM      7  C   UNL     1       1.266   8.759  20.188  0.00  0.00    +0.000 A 
BRANCH   2   9
ATOM      8  C   UNL     1       1.104  11.592  19.442  0.00  0.00    +0.000 C 
ATOM      9  C   UNL     1       1.215  10.518  18.364  0.00  0.00    +0.000 C 
BRANCH   9  10
ATOM     10  O   UNL     1       2.200  10.971  17.432  0.00  0.00    +0.000 OA
ATOM     11  H   UNL     1       2.474  11.858  17.725  0.00  0.00    +0.000 HD
ENDBRANCH   9  10
ENDBRANCH   2   9
ENDBRANCH   1   5
BRANCH   1  12
ATOM     12  C   UNL     1       1.606   4.469  20.667  0.00  0.00    +0.000 C 
BRANCH  12  13
ATOM     13  C   UNL     1       1.921   3.026  20.233  0.00  0.00    +0.000 C 
ATOM     14  C   UNL     1       3.426   2.747  20.308  0.00  0.00    +0.000 C 
ATOM     15  C   UNL     1       4.206   3.449  19.192  0.00  0.00    +0.000 C 
ATOM     16  N   UNL     1       3.696   3.086  17.863  0.00  0.00    +0.000 NA
ATOM     17  C   UNL     1       2.258   3.390  17.739  0.00  0.00    +0.000 C 
ATOM     18  C   UNL     1       1.426   2.697  18.819  0.00  0.00    +0.000 C 
BRANCH  16  19
ATOM     19  C   UNL     1       4.428   3.768  16.781  0.00  0.00    +0.000 C 
BRANCH  19  20
ATOM     20  C   UNL     1       5.369   4.824  17.287  0.00  0.00    +0.000 C 
ATOM     21  C   UNL     1       6.815   4.872  16.858  0.00  0.00    +0.000 C 
ATOM     22  C   UNL     1       5.853   5.914  16.361  0.00  0.00    +0.000 C 
ENDBRANCH  19  20
ENDBRANCH  16  19
ENDBRANCH  12  13
ENDBRANCH   1  12
TORSDOF 7
ENDMDL
