MODEL 1
REMARK VINA RESULT:      -8.1      0.000      0.000
REMARK  Name = 
REMARK  5 active torsions:
REMARK  status: ('A' for Active; 'I' for Inactive)
REMARK    1  A    between atoms: C_1  and  C_2
REMARK    2  A    between atoms: C_8  and  N_9
REMARK    3  A    between atoms: C_10  and  C_12
REMARK    4  A    between atoms: C_12  and  O_13
REMARK    5  A    between atoms: O_13  and  C_14
REMARK                            x       y       z     vdW  Elec       q    Type
REMARK                         _______ _______ _______ _____ _____    ______ ____
ROOT
ATOM      1  N   UNL     1       2.612   6.115  20.512  0.00  0.00    +0.000 N 
ATOM      2  C   UNL     1       1.837   4.995  20.785  0.00  0.00    +0.000 C 
ATOM      3  O   UNL     1       0.656   4.842  20.469  0.00  0.00    +0.000 OA
ATOM      4  H   UNL     1       3.576   6.126  20.825  0.00  0.00    +0.000 HD
ENDROOT
BRANCH   1  12
ATOM      5  C   UNL     1      -0.379   9.923  23.018  0.00  0.00    +0.000 C 
ATOM      6  C   UNL     1       0.263   9.535  21.746  0.00  0.00    +0.000 A 
ATOM      7  N   UNL     1       0.253  10.208  20.616  0.00  0.00    +0.000 NA
ATOM      8  C   UNL     1       0.980   9.422  19.762  0.00  0.00    +0.000 A 
ATOM      9  C   UNL     1       1.300   9.633  18.417  0.00  0.00    +0.000 A 
ATOM     10  C   UNL     1       2.058   8.658  17.770  0.00  0.00    +0.000 A 
ATOM     11  C   UNL     1       2.485   7.509  18.449  0.00  0.00    +0.000 A 
ATOM     12  C   UNL     1       2.184   7.268  19.803  0.00  0.00    +0.000 A 
ATOM     13  C   UNL     1       1.419   8.275  20.412  0.00  0.00    +0.000 A 
ATOM     14  O   UNL     1       0.953   8.345  21.706  0.00  0.00    +0.000 OA
ENDBRANCH   1  12
BRANCH   2  15
ATOM     15  C   UNL     1       2.541   3.888  21.567  0.00  0.00    +0.000 C 
BRANCH  15  16
ATOM     16  O   UNL     1       2.898   2.851  20.664  0.00  0.00    +0.000 OA
BRANCH  16  17
ATOM     17  C   UNL     1       3.483   3.221  19.480  0.00  0.00    +0.000 A 
ATOM     18  C   UNL     1       4.770   3.760  19.369  0.00  0.00    +0.000 A 
ATOM     19  C   UNL     1       5.285   4.110  18.115  0.00  0.00    +0.000 A 
ATOM     20  C   UNL     1       4.520   3.914  16.967  0.00  0.00    +0.000 A 
ATOM     21 CL   UNL     1       5.148   4.375  15.434  0.00  0.00    +0.000 Cl
ATOM     22  C   UNL     1       3.253   3.347  17.055  0.00  0.00    +0.000 A 
ATOM     23  C   UNL     1       2.743   2.994  18.306  0.00  0.00    +0.000 A 
ATOM     24 CL   UNL     1       1.163   2.292  18.367  0.00  0.00    +0.000 Cl
ENDBRANCH  16  17
ENDBRANCH  15  16
ENDBRANCH   2  15
TORSDOF 4
ENDMDL
MODEL 2
REMARK VINA RESULT:      -7.9      7.100      9.474
REMARK  Name = 
REMARK  5 active torsions:
REMARK  status: ('A' for Active; 'I' for Inactive)
REMARK    1  A    between atoms: C_1  and  C_2
REMARK    2  A    between atoms: C_8  and  N_9
REMARK    3  A    between atoms: C_10  and  C_12
REMARK    4  A    between atoms: C_12  and  O_13
REMARK    5  A    between atoms: O_13  and  C_14
REMARK                            x       y       z     vdW  Elec       q    Type
REMARK                         _______ _______ _______ _____ _____    ______ ____
ROOT
ATOM      1  N   UNL     1       6.613   7.622  17.129  0.00  0.00    +0.000 N 
ATOM      2  C   UNL     1       7.716   7.912  17.922  0.00  0.00    +0.000 C 
ATOM      3  O   UNL     1       8.288   7.124  18.678  0.00  0.00    +0.000 OA
ATOM      4  H   UNL     1       6.228   8.357  16.547  0.00  0.00    +0.000 HD
ENDROOT
BRANCH   1  12
ATOM      5  C   UNL     1       7.366   4.474  12.743  0.00  0.00    +0.000 C 
ATOM      6  C   UNL     1       6.688   4.581  14.050  0.00  0.00    +0.000 A 
ATOM      7  N   UNL     1       5.888   3.696  14.603  0.00  0.00    +0.000 NA
ATOM      8  C   UNL     1       5.532   4.275  15.791  0.00  0.00    +0.000 A 
ATOM      9  C   UNL     1       4.692   3.790  16.799  0.00  0.00    +0.000 A 
ATOM     10  C   UNL     1       4.490   4.595  17.919  0.00  0.00    +0.000 A 
ATOM     11  C   UNL     1       5.112   5.846  18.028  0.00  0.00    +0.000 A 
ATOM     12  C   UNL     1       5.967   6.362  17.036  0.00  0.00    +0.000 A 
ATOM     13  C   UNL     1       6.139   5.518  15.927  0.00  0.00    +0.000 A 
ATOM     14  O   UNL     1       6.894   5.721  14.793  0.00  0.00    +0.000 OA
ENDBRANCH   1  12
BRANCH   2  15
ATOM     15  C   UNL     1       8.221   9.351  17.839  0.00  0.00    +0.000 C 
BRANCH  15  16
ATOM     16  O   UNL     1       8.968   9.640  19.012  0.00  0.00    +0.000 OA
BRANCH  16  17
ATOM     17  C   UNL     1       9.759  10.760  18.996  0.00  0.00    +0.000 A 
ATOM     18  C   UNL     1      10.475  11.204  17.879  0.00  0.00    +0.000 A 
ATOM     19  C   UNL     1      11.259  12.363  17.957  0.00  0.00    +0.000 A 
ATOM     20  C   UNL     1      11.322  13.084  19.146  0.00  0.00    +0.000 A 
ATOM     21 CL   UNL     1      12.312  14.488  19.241  0.00  0.00    +0.000 Cl
ATOM     22  C   UNL     1      10.589  12.677  20.255  0.00  0.00    +0.000 A 
ATOM     23  C   UNL     1       9.804  11.524  20.175  0.00  0.00    +0.000 A 
ATOM     24 CL   UNL     1       8.910  11.055  21.579  0.00  0.00    +0.000 Cl
ENDBRANCH  16  17
ENDBRANCH  15  16
ENDBRANCH   2  15
TORSDOF 4
ENDMDL
MODEL 3
REMARK VINA RESULT:      -7.7      1.957      2.443
REMARK  Name = 
REMARK  5 active torsions:
REMARK  status: ('A' for Active; 'I' for Inactive)
REMARK    1  A    between atoms: C_1  and  C_2
REMARK    2  A    between atoms: C_8  and  N_9
REMARK    3  A    between atoms: C_10  and  C_12
REMARK    4  A    between atoms: C_12  and  O_13
REMARK    5  A    between atoms: O_13  and  C_14
REMARK                            x       y       z     vdW  Elec       q    Type
REMARK                         _______ _______ _______ _____ _____    ______ ____
ROOT
ATOM      1  N   UNL     1       2.777   6.440  19.702  0.00  0.00    +0.000 N 
ATOM      2  C   UNL     1       2.540   5.239  19.046  0.00  0.00    +0.000 C 
ATOM      3  O   UNL     1       1.807   5.085  18.067  0.00  0.00    +0.000 OA
ATOM      4  H   UNL     1       3.403   6.442  20.500  0.00  0.00    +0.000 HD
ENDROOT
BRANCH   1  12
ATOM      5  C   UNL     1      -0.005   9.356  23.374  0.00  0.00    +0.000 C 
ATOM      6  C   UNL     1       0.491   9.322  21.984  0.00  0.00    +0.000 A 
ATOM      7  N   UNL     1       0.324  10.243  21.060  0.00  0.00    +0.000 NA
ATOM      8  C   UNL     1       0.966   9.729  19.966  0.00  0.00    +0.000 A 
ATOM      9  C   UNL     1       1.115  10.274  18.687  0.00  0.00    +0.000 A 
ATOM     10  C   UNL     1       1.819   9.528  17.742  0.00  0.00    +0.000 A 
ATOM     11  C   UNL     1       2.359   8.277  18.069  0.00  0.00    +0.000 A 
ATOM     12  C   UNL     1       2.232   7.702  19.347  0.00  0.00    +0.000 A 
ATOM     13  C   UNL     1       1.515   8.487  20.265  0.00  0.00    +0.000 A 
ATOM     14  O   UNL     1       1.207   8.218  21.579  0.00  0.00    +0.000 OA
ENDBRANCH   1  12
BRANCH   2  15
ATOM     15  C   UNL     1       3.254   4.023  19.632  0.00  0.00    +0.000 C 
BRANCH  15  16
ATOM     16  O   UNL     1       4.656   4.231  19.541  0.00  0.00    +0.000 OA
BRANCH  16  17
ATOM     17  C   UNL     1       5.203   4.301  18.286  0.00  0.00    +0.000 A 
ATOM     18  C   UNL     1       4.599   3.789  17.132  0.00  0.00    +0.000 A 
ATOM     19  C   UNL     1       5.235   3.907  15.889  0.00  0.00    +0.000 A 
ATOM     20  C   UNL     1       6.469   4.544  15.795  0.00  0.00    +0.000 A 
ATOM     21 CL   UNL     1       7.257   4.656  14.269  0.00  0.00    +0.000 Cl
ATOM     22  C   UNL     1       7.068   5.089  16.926  0.00  0.00    +0.000 A 
ATOM     23  C   UNL     1       6.431   4.975  18.163  0.00  0.00    +0.000 A 
ATOM     24 CL   UNL     1       7.212   5.668  19.542  0.00  0.00    +0.000 Cl
ENDBRANCH  16  17
ENDBRANCH  15  16
ENDBRANCH   2  15
TORSDOF 4
ENDMDL
MODEL 4
REMARK VINA RESULT:      -7.7      3.861      7.069
REMARK  Name = 
REMARK  5 active torsions:
REMARK  status: ('A' for Active; 'I' for Inactive)
REMARK    1  A    between atoms: C_1  and  C_2
REMARK    2  A    between atoms: C_8  and  N_9
REMARK    3  A    between atoms: C_10  and  C_12
REMARK    4  A    between atoms: C_12  and  O_13
REMARK    5  A    between atoms: O_13  and  C_14
REMARK                            x       y       z     vdW  Elec       q    Type
REMARK                         _______ _______ _______ _____ _____    ______ ____
ROOT
ATOM      1  N   UNL     1       3.311   6.186  18.328  0.00  0.00    +0.000 N 
ATOM      2  C   UNL     1       2.938   5.676  19.565  0.00  0.00    +0.000 C 
ATOM      3  O   UNL     1       3.399   4.664  20.096  0.00  0.00    +0.000 OA
ATOM      4  H   UNL     1       2.857   7.030  17.995  0.00  0.00    +0.000 HD
ENDROOT
BRANCH   1  12
ATOM      5  C   UNL     1       8.122   8.688  17.770  0.00  0.00    +0.000 C 
ATOM      6  C   UNL     1       7.309   7.528  17.355  0.00  0.00    +0.000 A 
ATOM      7  N   UNL     1       7.660   6.571  16.523  0.00  0.00    +0.000 NA
ATOM      8  C   UNL     1       6.561   5.756  16.481  0.00  0.00    +0.000 A 
ATOM      9  C   UNL     1       6.357   4.577  15.756  0.00  0.00    +0.000 A 
ATOM     10  C   UNL     1       5.125   3.938  15.890  0.00  0.00    +0.000 A 
ATOM     11  C   UNL     1       4.129   4.462  16.725  0.00  0.00    +0.000 A 
ATOM     12  C   UNL     1       4.302   5.643  17.471  0.00  0.00    +0.000 A 
ATOM     13  C   UNL     1       5.557   6.252  17.304  0.00  0.00    +0.000 A 
ATOM     14  O   UNL     1       6.041   7.407  17.876  0.00  0.00    +0.000 OA
ENDBRANCH   1  12
BRANCH   2  15
ATOM     15  C   UNL     1       1.841   6.454  20.290  0.00  0.00    +0.000 C 
BRANCH  15  16
ATOM     16  O   UNL     1       2.021   7.840  20.032  0.00  0.00    +0.000 OA
BRANCH  16  17
ATOM     17  C   UNL     1       1.197   8.715  20.691  0.00  0.00    +0.000 A 
ATOM     18  C   UNL     1       1.017   8.737  22.079  0.00  0.00    +0.000 A 
ATOM     19  C   UNL     1       0.150   9.669  22.665  0.00  0.00    +0.000 A 
ATOM     20  C   UNL     1      -0.530  10.586  21.868  0.00  0.00    +0.000 A 
ATOM     21 CL   UNL     1      -1.616  11.707  22.593  0.00  0.00    +0.000 Cl
ATOM     22  C   UNL     1      -0.337  10.601  20.491  0.00  0.00    +0.000 A 
ATOM     23  C   UNL     1       0.531   9.674  19.909  0.00  0.00    +0.000 A 
ATOM     24 CL   UNL     1       0.740   9.730  18.193  0.00  0.00    +0.000 Cl
ENDBRANCH  16  17
ENDBRANCH  15  16
ENDBRANCH   2  15
TORSDOF 4
ENDMDL
MODEL 5
REMARK VINA RESULT:      -7.7      4.299      7.749
REMARK  Name = 
REMARK  5 active torsions:
REMARK  status: ('A' for Active; 'I' for Inactive)
REMARK    1  A    between atoms: C_1  and  C_2
REMARK    2  A    between atoms: C_8  and  N_9
REMARK    3  A    between atoms: C_10  and  C_12
REMARK    4  A    between atoms: C_12  and  O_13
REMARK    5  A    between atoms: O_13  and  C_14
REMARK                            x       y       z     vdW  Elec       q    Type
REMARK                         _______ _______ _______ _____ _____    ______ ____
ROOT
ATOM      1  N   UNL     1       2.208   7.585  18.826  0.00  0.00    +0.000 N 
ATOM      2  C   UNL     1       1.813   8.827  18.345  0.00  0.00    +0.000 C 
ATOM      3  O   UNL     1       2.116   9.304  17.249  0.00  0.00    +0.000 OA
ATOM      4  H   UNL     1       1.895   7.301  19.748  0.00  0.00    +0.000 HD
ENDROOT
BRANCH   1  12
ATOM      5  C   UNL     1       0.834   2.310  18.798  0.00  0.00    +0.000 C 
ATOM      6  C   UNL     1       1.815   3.305  18.322  0.00  0.00    +0.000 A 
ATOM      7  N   UNL     1       2.876   3.078  17.578  0.00  0.00    +0.000 NA
ATOM      8  C   UNL     1       3.439   4.317  17.426  0.00  0.00    +0.000 A 
ATOM      9  C   UNL     1       4.593   4.688  16.729  0.00  0.00    +0.000 A 
ATOM     10  C   UNL     1       4.953   6.035  16.740  0.00  0.00    +0.000 A 
ATOM     11  C   UNL     1       4.179   6.981  17.426  0.00  0.00    +0.000 A 
ATOM     12  C   UNL     1       3.010   6.643  18.133  0.00  0.00    +0.000 A 
ATOM     13  C   UNL     1       2.688   5.276  18.094  0.00  0.00    +0.000 A 
ATOM     14  O   UNL     1       1.629   4.620  18.680  0.00  0.00    +0.000 OA
ENDBRANCH   1  12
BRANCH   2  15
ATOM     15  C   UNL     1       0.947   9.652  19.294  0.00  0.00    +0.000 C 
BRANCH  15  16
ATOM     16  O   UNL     1       0.436  10.772  18.586  0.00  0.00    +0.000 OA
BRANCH  16  17
ATOM     17  C   UNL     1      -0.911  10.794  18.331  0.00  0.00    +0.000 A 
ATOM     18  C   UNL     1      -1.562   9.931  17.442  0.00  0.00    +0.000 A 
ATOM     19  C   UNL     1      -2.945  10.029  17.245  0.00  0.00    +0.000 A 
ATOM     20  C   UNL     1      -3.683  10.982  17.942  0.00  0.00    +0.000 A 
ATOM     21 CL   UNL     1      -5.377  11.116  17.671  0.00  0.00    +0.000 Cl
ATOM     22  C   UNL     1      -3.059  11.825  18.856  0.00  0.00    +0.000 A 
ATOM     23  C   UNL     1      -1.680  11.723  19.055  0.00  0.00    +0.000 A 
ATOM     24 CL   UNL     1      -0.948  12.791  20.200  0.00  0.00    +0.000 Cl
ENDBRANCH  16  17
ENDBRANCH  15  16
ENDBRANCH   2  15
TORSDOF 4
ENDMDL
MODEL 6
REMARK VINA RESULT:      -7.6      3.684      7.561
REMARK  Name = 
REMARK  5 active torsions:
REMARK  status: ('A' for Active; 'I' for Inactive)
REMARK    1  A    between atoms: C_1  and  C_2
REMARK    2  A    between atoms: C_8  and  N_9
REMARK    3  A    between atoms: C_10  and  C_12
REMARK    4  A    between atoms: C_12  and  O_13
REMARK    5  A    between atoms: O_13  and  C_14
REMARK                            x       y       z     vdW  Elec       q    Type
REMARK                         _______ _______ _______ _____ _____    ______ ____
ROOT
ATOM      1  N   UNL     1       2.374   6.091  20.135  0.00  0.00    +0.000 N 
ATOM      2  C   UNL     1       2.081   7.437  19.959  0.00  0.00    +0.000 C 
ATOM      3  O   UNL     1       2.222   8.075  18.914  0.00  0.00    +0.000 OA
ATOM      4  H   UNL     1       2.215   5.675  21.047  0.00  0.00    +0.000 HD
ENDROOT
BRANCH   1  12
ATOM      5  C   UNL     1       7.732   5.741  19.194  0.00  0.00    +0.000 C 
ATOM      6  C   UNL     1       6.401   5.237  18.800  0.00  0.00    +0.000 A 
ATOM      7  N   UNL     1       6.135   4.342  17.874  0.00  0.00    +0.000 NA
ATOM      8  C   UNL     1       4.770   4.237  17.904  0.00  0.00    +0.000 A 
ATOM      9  C   UNL     1       3.925   3.433  17.133  0.00  0.00    +0.000 A 
ATOM     10  C   UNL     1       2.553   3.525  17.365  0.00  0.00    +0.000 A 
ATOM     11  C   UNL     1       2.044   4.393  18.340  0.00  0.00    +0.000 A 
ATOM     12  C   UNL     1       2.867   5.211  19.137  0.00  0.00    +0.000 A 
ATOM     13  C   UNL     1       4.239   5.086  18.868  0.00  0.00    +0.000 A 
ATOM     14  O   UNL     1       5.299   5.740  19.454  0.00  0.00    +0.000 OA
ENDBRANCH   1  12
BRANCH   2  15
ATOM     15  C   UNL     1       1.560   8.161  21.199  0.00  0.00    +0.000 C 
BRANCH  15  16
ATOM     16  O   UNL     1       0.156   8.337  21.067  0.00  0.00    +0.000 OA
BRANCH  16  17
ATOM     17  C   UNL     1      -0.371   9.529  21.491  0.00  0.00    +0.000 A 
ATOM     18  C   UNL     1      -0.614   9.853  22.831  0.00  0.00    +0.000 A 
ATOM     19  C   UNL     1      -1.158  11.099  23.170  0.00  0.00    +0.000 A 
ATOM     20  C   UNL     1      -1.451  12.027  22.174  0.00  0.00    +0.000 A 
ATOM     21 CL   UNL     1      -2.147  13.542  22.597  0.00  0.00    +0.000 Cl
ATOM     22  C   UNL     1      -1.183  11.735  20.841  0.00  0.00    +0.000 A 
ATOM     23  C   UNL     1      -0.638  10.495  20.504  0.00  0.00    +0.000 A 
ATOM     24 CL   UNL     1      -0.322  10.176  18.834  0.00  0.00    +0.000 Cl
ENDBRANCH  16  17
ENDBRANCH  15  16
ENDBRANCH   2  15
TORSDOF 4
ENDMDL
MODEL 7
REMARK VINA RESULT:      -7.5      3.825      6.800
REMARK  Name = 
REMARK  5 active torsions:
REMARK  status: ('A' for Active; 'I' for Inactive)
REMARK    1  A    between atoms: C_1  and  C_2
REMARK    2  A    between atoms: C_8  and  N_9
REMARK    3  A    between atoms: C_10  and  C_12
REMARK    4  A    between atoms: C_12  and  O_13
REMARK    5  A    between atoms: O_13  and  C_14
REMARK                            x       y       z     vdW  Elec       q    Type
REMARK                         _______ _______ _______ _____ _____    ______ ____
ROOT
ATOM      1  N   UNL     1       3.347   5.992  18.155  0.00  0.00    +0.000 N 
ATOM      2  C   UNL     1       3.062   5.624  19.464  0.00  0.00    +0.000 C 
ATOM      3  O   UNL     1       3.676   4.786  20.127  0.00  0.00    +0.000 OA
ATOM      4  H   UNL     1       2.768   6.696  17.712  0.00  0.00    +0.000 HD
ENDROOT
BRANCH   1  12
ATOM      5  C   UNL     1       8.043   8.735  17.766  0.00  0.00    +0.000 C 
ATOM      6  C   UNL     1       7.314   7.523  17.342  0.00  0.00    +0.000 A 
ATOM      7  N   UNL     1       7.756   6.567  16.555  0.00  0.00    +0.000 NA
ATOM      8  C   UNL     1       6.704   5.693  16.480  0.00  0.00    +0.000 A 
ATOM      9  C   UNL     1       6.599   4.488  15.778  0.00  0.00    +0.000 A 
ATOM     10  C   UNL     1       5.398   3.787  15.869  0.00  0.00    +0.000 A 
ATOM     11  C   UNL     1       4.335   4.276  16.640  0.00  0.00    +0.000 A 
ATOM     12  C   UNL     1       4.408   5.482  17.362  0.00  0.00    +0.000 A 
ATOM     13  C   UNL     1       5.636   6.154  17.240  0.00  0.00    +0.000 A 
ATOM     14  O   UNL     1       6.029   7.347  17.804  0.00  0.00    +0.000 OA
ENDBRANCH   1  12
BRANCH   2  15
ATOM     15  C   UNL     1       1.861   6.327  20.093  0.00  0.00    +0.000 C 
BRANCH  15  16
ATOM     16  O   UNL     1       2.206   7.683  20.340  0.00  0.00    +0.000 OA
BRANCH  16  17
ATOM     17  C   UNL     1       1.409   8.647  19.779  0.00  0.00    +0.000 A 
ATOM     18  C   UNL     1       1.399   8.970  18.417  0.00  0.00    +0.000 A 
ATOM     19  C   UNL     1       0.549   9.973  17.934  0.00  0.00    +0.000 A 
ATOM     20  C   UNL     1      -0.300  10.649  18.807  0.00  0.00    +0.000 A 
ATOM     21 CL   UNL     1      -1.318  11.900  18.210  0.00  0.00    +0.000 Cl
ATOM     22  C   UNL     1      -0.329  10.316  20.157  0.00  0.00    +0.000 A 
ATOM     23  C   UNL     1       0.516   9.313  20.637  0.00  0.00    +0.000 A 
ATOM     24 CL   UNL     1       0.446   8.934  22.323  0.00  0.00    +0.000 Cl
ENDBRANCH  16  17
ENDBRANCH  15  16
ENDBRANCH   2  15
TORSDOF 4
ENDMDL
MODEL 8
REMARK VINA RESULT:      -7.5      6.671      8.682
REMARK  Name = 
REMARK  5 active torsions:
REMARK  status: ('A' for Active; 'I' for Inactive)
REMARK    1  A    between atoms: C_1  and  C_2
REMARK    2  A    between atoms: C_8  and  N_9
REMARK    3  A    between atoms: C_10  and  C_12
REMARK    4  A    between atoms: C_12  and  O_13
REMARK    5  A    between atoms: O_13  and  C_14
REMARK                            x       y       z     vdW  Elec       q    Type
REMARK                         _______ _______ _______ _____ _____    ______ ____
ROOT
ATOM      1  N   UNL     1       6.942   7.708  17.012  0.00  0.00    +0.000 N 
ATOM      2  C   UNL     1       7.887   7.991  17.989  0.00  0.00    +0.000 C 
ATOM      3  O   UNL     1       8.399   7.172  18.755  0.00  0.00    +0.000 OA
ATOM      4  H   UNL     1       6.592   8.470  16.441  0.00  0.00    +0.000 HD
ENDROOT
BRANCH   1  12
ATOM      5  C   UNL     1       2.287   6.039  19.307  0.00  0.00    +0.000 C 
ATOM      6  C   UNL     1       3.374   5.673  18.378  0.00  0.00    +0.000 A 
ATOM      7  N   UNL     1       3.500   4.547  17.710  0.00  0.00    +0.000 NA
ATOM      8  C   UNL     1       4.664   4.713  17.007  0.00  0.00    +0.000 A 
ATOM      9  C   UNL     1       5.300   3.835  16.124  0.00  0.00    +0.000 A 
ATOM     10  C   UNL     1       6.495   4.255  15.541  0.00  0.00    +0.000 A 
ATOM     11  C   UNL     1       7.034   5.515  15.830  0.00  0.00    +0.000 A 
ATOM     12  C   UNL     1       6.418   6.425  16.710  0.00  0.00    +0.000 A 
ATOM     13  C   UNL     1       5.219   5.959  17.274  0.00  0.00    +0.000 A 
ATOM     14  O   UNL     1       4.381   6.588  18.168  0.00  0.00    +0.000 OA
ENDBRANCH   1  12
BRANCH   2  15
ATOM     15  C   UNL     1       8.284   9.461  18.109  0.00  0.00    +0.000 C 
BRANCH  15  16
ATOM     16  O   UNL     1       9.411   9.558  18.970  0.00  0.00    +0.000 OA
BRANCH  16  17
ATOM     17  C   UNL     1       9.554  10.715  19.691  0.00  0.00    +0.000 A 
ATOM     18  C   UNL     1       9.049  10.909  20.982  0.00  0.00    +0.000 A 
ATOM     19  C   UNL     1       9.244  12.129  21.642  0.00  0.00    +0.000 A 
ATOM     20  C   UNL     1       9.951  13.154  21.019  0.00  0.00    +0.000 A 
ATOM     21 CL   UNL     1      10.159  14.660  21.825  0.00  0.00    +0.000 Cl
ATOM     22  C   UNL     1      10.490  12.967  19.751  0.00  0.00    +0.000 A 
ATOM     23  C   UNL     1      10.299  11.749  19.095  0.00  0.00    +0.000 A 
ATOM     24 CL   UNL     1      10.987  11.561  17.520  0.00  0.00    +0.000 Cl
ENDBRANCH  16  17
ENDBRANCH  15  16
ENDBRANCH   2  15
TORSDOF 4
ENDMDL
MODEL 9
REMARK VINA RESULT:      -7.5      4.065      7.597
REMARK  Name = 
REMARK  5 active torsions:
REMARK  status: ('A' for Active; 'I' for Inactive)
REMARK    1  A    between atoms: C_1  and  C_2
REMARK    2  A    between atoms: C_8  and  N_9
REMARK    3  A    between atoms: C_10  and  C_12
REMARK    4  A    between atoms: C_12  and  O_13
REMARK    5  A    between atoms: O_13  and  C_14
REMARK                            x       y       z     vdW  Elec       q    Type
REMARK                         _______ _______ _______ _____ _____    ______ ____
ROOT
ATOM      1  N   UNL     1       2.573   7.057  17.786  0.00  0.00    +0.000 N 
ATOM      2  C   UNL     1       2.138   7.924  18.780  0.00  0.00    +0.000 C 
ATOM      3  O   UNL     1       1.971   7.635  19.966  0.00  0.00    +0.000 OA
ATOM      4  H   UNL     1       2.672   7.413  16.841  0.00  0.00    +0.000 HD
ENDROOT
BRANCH   1  12
ATOM      5  C   UNL     1       7.642   5.692  19.257  0.00  0.00    +0.000 C 
ATOM      6  C   UNL     1       6.299   5.174  18.929  0.00  0.00    +0.000 A 
ATOM      7  N   UNL     1       5.917   3.916  18.911  0.00  0.00    +0.000 NA
ATOM      8  C   UNL     1       4.599   3.979  18.547  0.00  0.00    +0.000 A 
ATOM      9  C   UNL     1       3.678   2.943  18.365  0.00  0.00    +0.000 A 
ATOM     10  C   UNL     1       2.382   3.287  17.981  0.00  0.00    +0.000 A 
ATOM     11  C   UNL     1       2.020   4.627  17.788  0.00  0.00    +0.000 A 
ATOM     12  C   UNL     1       2.921   5.694  17.967  0.00  0.00    +0.000 A 
ATOM     13  C   UNL     1       4.212   5.300  18.353  0.00  0.00    +0.000 A 
ATOM     14  O   UNL     1       5.318   6.082  18.601  0.00  0.00    +0.000 OA
ENDBRANCH   1  12
BRANCH   2  15
ATOM     15  C   UNL     1       1.829   9.347  18.318  0.00  0.00    +0.000 C 
BRANCH  15  16
ATOM     16  O   UNL     1       0.830   9.894  19.167  0.00  0.00    +0.000 OA
BRANCH  16  17
ATOM     17  C   UNL     1      -0.363  10.246  18.589  0.00  0.00    +0.000 A 
ATOM     18  C   UNL     1      -0.980   9.534  17.554  0.00  0.00    +0.000 A 
ATOM     19  C   UNL     1      -2.201   9.971  17.025  0.00  0.00    +0.000 A 
ATOM     20  C   UNL     1      -2.813  11.113  17.534  0.00  0.00    +0.000 A 
ATOM     21 CL   UNL     1      -4.297  11.660  16.857  0.00  0.00    +0.000 Cl
ATOM     22  C   UNL     1      -2.232  11.813  18.585  0.00  0.00    +0.000 A 
ATOM     23  C   UNL     1      -1.016  11.374  19.115  0.00  0.00    +0.000 A 
ATOM     24 CL   UNL     1      -0.331  12.276  20.422  0.00  0.00    +0.000 Cl
ENDBRANCH  16  17
ENDBRANCH  15  16
ENDBRANCH   2  15
TORSDOF 4
ENDMDL
