MODEL 1
REMARK VINA RESULT:      -6.9      0.000      0.000
REMARK  Name = 
REMARK  7 active torsions:
REMARK  status: ('A' for Active; 'I' for Inactive)
REMARK    1  A    between atoms: C_1  and  O_2
REMARK    2  A    between atoms: O_2  and  C_3
REMARK    3  A    between atoms: C_3  and  C_4
REMARK    4  A    between atoms: C_3  and  C_5
REMARK    5  A    between atoms: C_3  and  C_6
REMARK    6  A    between atoms: C_8  and  C_9
REMARK    7  A    between atoms: C_9  and  N_10
REMARK                            x       y       z     vdW  Elec       q    Type
REMARK                         _______ _______ _______ _____ _____    ______ ____
ROOT
ATOM      1  C   UNL     1       2.664   3.530  19.199  0.00  0.00    +0.000 A 
ATOM      2  N   UNL     1       3.905   3.730  18.798  0.00  0.00    +0.000 NA
ATOM      3  C   UNL     1       3.834   3.426  17.463  0.00  0.00    +0.000 A 
ATOM      4  N   UNL     1       2.612   3.092  17.024  0.00  0.00    +0.000 NA
ATOM      5  O   UNL     1       1.829   3.157  18.181  0.00  0.00    +0.000 OA
ENDROOT
BRANCH   1   6
ATOM      6  C   UNL     1       2.077   3.602  20.587  0.00  0.00    +0.000 C 
ATOM      7  C   UNL     1       2.711   2.499  21.452  0.00  0.00    +0.000 C 
ATOM      8  C   UNL     1       0.557   3.398  20.500  0.00  0.00    +0.000 C 
BRANCH   6  10
ATOM      9  C   UNL     1       1.660   6.000  20.570  0.00  0.00    +0.000 C 
ATOM     10  O   UNL     1       2.411   4.909  21.082  0.00  0.00    +0.000 OA
ENDBRANCH   6  10
ENDBRANCH   1   6
BRANCH   3  11
ATOM     11  C   UNL     1       5.018   3.469  16.577  0.00  0.00    +0.000 C 
BRANCH  11  12
ATOM     12  N   UNL     1       5.535   4.822  16.493  0.00  0.00    +0.000 N 
ATOM     13  C   UNL     1       5.108   5.769  15.603  0.00  0.00    +0.000 A 
ATOM     14  N   UNL     1       5.690   6.927  15.808  0.00  0.00    +0.000 NA
ATOM     15  C   UNL     1       6.533   6.723  16.873  0.00  0.00    +0.000 A 
ATOM     16  C   UNL     1       7.386   7.629  17.520  0.00  0.00    +0.000 A 
ATOM     17  C   UNL     1       8.151   7.179  18.603  0.00  0.00    +0.000 A 
ATOM     18  C   UNL     1       8.079   5.850  19.024  0.00  0.00    +0.000 A 
ATOM     19  C   UNL     1       7.239   4.929  18.388  0.00  0.00    +0.000 A 
ATOM     20  C   UNL     1       6.467   5.403  17.320  0.00  0.00    +0.000 A 
ENDBRANCH  11  12
ENDBRANCH   3  11
TORSDOF 4
ENDMDL
MODEL 2
REMARK VINA RESULT:      -6.9      3.606      6.794
REMARK  Name = 
REMARK  7 active torsions:
REMARK  status: ('A' for Active; 'I' for Inactive)
REMARK    1  A    between atoms: C_1  and  O_2
REMARK    2  A    between atoms: O_2  and  C_3
REMARK    3  A    between atoms: C_3  and  C_4
REMARK    4  A    between atoms: C_3  and  C_5
REMARK    5  A    between atoms: C_3  and  C_6
REMARK    6  A    between atoms: C_8  and  C_9
REMARK    7  A    between atoms: C_9  and  N_10
REMARK                            x       y       z     vdW  Elec       q    Type
REMARK                         _______ _______ _______ _____ _____    ______ ____
ROOT
ATOM      1  C   UNL     1       6.502   4.142  13.668  0.00  0.00    +0.000 A 
ATOM      2  N   UNL     1       5.999   3.726  14.815  0.00  0.00    +0.000 NA
ATOM      3  C   UNL     1       6.632   4.535  15.723  0.00  0.00    +0.000 A 
ATOM      4  N   UNL     1       7.460   5.443  15.189  0.00  0.00    +0.000 NA
ATOM      5  O   UNL     1       7.378   5.183  13.818  0.00  0.00    +0.000 OA
ENDROOT
BRANCH   1   6
ATOM      6  C   UNL     1       6.290   3.609  12.273  0.00  0.00    +0.000 C 
ATOM      7  C   UNL     1       7.097   4.468  11.285  0.00  0.00    +0.000 C 
ATOM      8  C   UNL     1       4.794   3.675  11.932  0.00  0.00    +0.000 C 
BRANCH   6  10
ATOM      9  C   UNL     1       7.041   1.647  11.044  0.00  0.00    +0.000 C 
ATOM     10  O   UNL     1       6.770   2.254  12.299  0.00  0.00    +0.000 OA
ENDBRANCH   6  10
ENDBRANCH   1   6
BRANCH   3  11
ATOM     11  C   UNL     1       6.412   4.412  17.181  0.00  0.00    +0.000 C 
BRANCH  11  12
ATOM     12  N   UNL     1       5.074   4.856  17.527  0.00  0.00    +0.000 N 
ATOM     13  C   UNL     1       4.683   6.164  17.614  0.00  0.00    +0.000 A 
ATOM     14  N   UNL     1       3.398   6.271  17.862  0.00  0.00    +0.000 NA
ATOM     15  C   UNL     1       2.938   4.979  17.943  0.00  0.00    +0.000 A 
ATOM     16  C   UNL     1       1.637   4.510  18.176  0.00  0.00    +0.000 A 
ATOM     17  C   UNL     1       1.413   3.129  18.205  0.00  0.00    +0.000 A 
ATOM     18  C   UNL     1       2.466   2.231  18.021  0.00  0.00    +0.000 A 
ATOM     19  C   UNL     1       3.773   2.679  17.793  0.00  0.00    +0.000 A 
ATOM     20  C   UNL     1       3.972   4.064  17.748  0.00  0.00    +0.000 A 
ENDBRANCH  11  12
ENDBRANCH   3  11
TORSDOF 4
ENDMDL
MODEL 3
REMARK VINA RESULT:      -6.7      3.496      6.662
REMARK  Name = 
REMARK  7 active torsions:
REMARK  status: ('A' for Active; 'I' for Inactive)
REMARK    1  A    between atoms: C_1  and  O_2
REMARK    2  A    between atoms: O_2  and  C_3
REMARK    3  A    between atoms: C_3  and  C_4
REMARK    4  A    between atoms: C_3  and  C_5
REMARK    5  A    between atoms: C_3  and  C_6
REMARK    6  A    between atoms: C_8  and  C_9
REMARK    7  A    between atoms: C_9  and  N_10
REMARK                            x       y       z     vdW  Elec       q    Type
REMARK                         _______ _______ _______ _____ _____    ______ ____
ROOT
ATOM      1  C   UNL     1       6.415   4.143  13.615  0.00  0.00    +0.000 A 
ATOM      2  N   UNL     1       5.914   3.734  14.766  0.00  0.00    +0.000 NA
ATOM      3  C   UNL     1       6.600   4.500  15.673  0.00  0.00    +0.000 A 
ATOM      4  N   UNL     1       7.459   5.377  15.136  0.00  0.00    +0.000 NA
ATOM      5  O   UNL     1       7.341   5.140  13.763  0.00  0.00    +0.000 OA
ENDROOT
BRANCH   1   6
ATOM      6  C   UNL     1       6.154   3.639  12.218  0.00  0.00    +0.000 C 
ATOM      7  C   UNL     1       6.339   2.112  12.198  0.00  0.00    +0.000 C 
ATOM      8  C   UNL     1       7.144   4.305  11.251  0.00  0.00    +0.000 C 
BRANCH   6  10
ATOM      9  C   UNL     1       4.065   3.122  11.080  0.00  0.00    +0.000 C 
ATOM     10  O   UNL     1       4.795   4.002  11.923  0.00  0.00    +0.000 OA
ENDBRANCH   6  10
ENDBRANCH   1   6
BRANCH   3  11
ATOM     11  C   UNL     1       6.400   4.368  17.133  0.00  0.00    +0.000 C 
BRANCH  11  12
ATOM     12  N   UNL     1       5.062   4.795  17.498  0.00  0.00    +0.000 N 
ATOM     13  C   UNL     1       4.649   6.097  17.569  0.00  0.00    +0.000 A 
ATOM     14  N   UNL     1       3.368   6.187  17.842  0.00  0.00    +0.000 NA
ATOM     15  C   UNL     1       2.933   4.889  17.958  0.00  0.00    +0.000 A 
ATOM     16  C   UNL     1       1.645   4.402  18.227  0.00  0.00    +0.000 A 
ATOM     17  C   UNL     1       1.447   3.018  18.288  0.00  0.00    +0.000 A 
ATOM     18  C   UNL     1       2.512   2.136  18.099  0.00  0.00    +0.000 A 
ATOM     19  C   UNL     1       3.805   2.601  17.835  0.00  0.00    +0.000 A 
ATOM     20  C   UNL     1       3.979   3.989  17.759  0.00  0.00    +0.000 A 
ENDBRANCH  11  12
ENDBRANCH   3  11
TORSDOF 4
ENDMDL
MODEL 4
REMARK VINA RESULT:      -6.6      1.032      1.764
REMARK  Name = 
REMARK  7 active torsions:
REMARK  status: ('A' for Active; 'I' for Inactive)
REMARK    1  A    between atoms: C_1  and  O_2
REMARK    2  A    between atoms: O_2  and  C_3
REMARK    3  A    between atoms: C_3  and  C_4
REMARK    4  A    between atoms: C_3  and  C_5
REMARK    5  A    between atoms: C_3  and  C_6
REMARK    6  A    between atoms: C_8  and  C_9
REMARK    7  A    between atoms: C_9  and  N_10
REMARK                            x       y       z     vdW  Elec       q    Type
REMARK                         _______ _______ _______ _____ _____    ______ ____
ROOT
ATOM      1  C   UNL     1       2.904   3.551  19.537  0.00  0.00    +0.000 A 
ATOM      2  N   UNL     1       3.156   3.790  18.264  0.00  0.00    +0.000 NA
ATOM      3  C   UNL     1       4.478   3.443  18.157  0.00  0.00    +0.000 A 
ATOM      4  N   UNL     1       5.031   2.970  19.283  0.00  0.00    +0.000 NA
ATOM      5  O   UNL     1       3.984   3.044  20.207  0.00  0.00    +0.000 OA
ENDROOT
BRANCH   1   6
ATOM      6  C   UNL     1       1.649   3.805  20.334  0.00  0.00    +0.000 C 
ATOM      7  C   UNL     1       1.597   5.294  20.717  0.00  0.00    +0.000 C 
ATOM      8  C   UNL     1       1.673   2.934  21.599  0.00  0.00    +0.000 C 
BRANCH   6  10
ATOM      9  C   UNL     1       0.567   2.136  18.931  0.00  0.00    +0.000 C 
ATOM     10  O   UNL     1       0.560   3.452  19.465  0.00  0.00    +0.000 OA
ENDBRANCH   6  10
ENDBRANCH   1   6
BRANCH   3  11
ATOM     11  C   UNL     1       5.233   3.578  16.890  0.00  0.00    +0.000 C 
BRANCH  11  12
ATOM     12  N   UNL     1       5.655   4.952  16.701  0.00  0.00    +0.000 N 
ATOM     13  C   UNL     1       5.124   5.813  15.780  0.00  0.00    +0.000 A 
ATOM     14  N   UNL     1       5.639   7.017  15.886  0.00  0.00    +0.000 NA
ATOM     15  C   UNL     1       6.544   6.931  16.914  0.00  0.00    +0.000 A 
ATOM     16  C   UNL     1       7.367   7.927  17.461  0.00  0.00    +0.000 A 
ATOM     17  C   UNL     1       8.212   7.594  18.527  0.00  0.00    +0.000 A 
ATOM     18  C   UNL     1       8.248   6.292  19.029  0.00  0.00    +0.000 A 
ATOM     19  C   UNL     1       7.439   5.283  18.493  0.00  0.00    +0.000 A 
ATOM     20  C   UNL     1       6.587   5.641  17.441  0.00  0.00    +0.000 A 
ENDBRANCH  11  12
ENDBRANCH   3  11
TORSDOF 4
ENDMDL
MODEL 5
REMARK VINA RESULT:      -6.6      3.602      6.205
REMARK  Name = 
REMARK  7 active torsions:
REMARK  status: ('A' for Active; 'I' for Inactive)
REMARK    1  A    between atoms: C_1  and  O_2
REMARK    2  A    between atoms: O_2  and  C_3
REMARK    3  A    between atoms: C_3  and  C_4
REMARK    4  A    between atoms: C_3  and  C_5
REMARK    5  A    between atoms: C_3  and  C_6
REMARK    6  A    between atoms: C_8  and  C_9
REMARK    7  A    between atoms: C_9  and  N_10
REMARK                            x       y       z     vdW  Elec       q    Type
REMARK                         _______ _______ _______ _____ _____    ______ ____
ROOT
ATOM      1  C   UNL     1       1.219   9.288  19.148  0.00  0.00    +0.000 A 
ATOM      2  N   UNL     1       1.809   8.175  19.541  0.00  0.00    +0.000 NA
ATOM      3  C   UNL     1       2.484   7.787  18.413  0.00  0.00    +0.000 A 
ATOM      4  N   UNL     1       2.368   8.622  17.371  0.00  0.00    +0.000 NA
ATOM      5  O   UNL     1       1.523   9.624  17.857  0.00  0.00    +0.000 OA
ENDROOT
BRANCH   1   6
ATOM      6  C   UNL     1       0.248  10.176  19.886  0.00  0.00    +0.000 C 
ATOM      7  C   UNL     1      -1.017  10.349  19.029  0.00  0.00    +0.000 C 
ATOM      8  C   UNL     1       0.908  11.540  20.139  0.00  0.00    +0.000 C 
BRANCH   6  10
ATOM      9  C   UNL     1      -0.427  10.296  22.222  0.00  0.00    +0.000 C 
ATOM     10  O   UNL     1      -0.046   9.491  21.116  0.00  0.00    +0.000 OA
ENDBRANCH   6  10
ENDBRANCH   1   6
BRANCH   3  11
ATOM     11  C   UNL     1       3.281   6.542  18.356  0.00  0.00    +0.000 C 
BRANCH  11  12
ATOM     12  N   UNL     1       2.413   5.383  18.447  0.00  0.00    +0.000 N 
ATOM     13  C   UNL     1       1.736   4.829  17.396  0.00  0.00    +0.000 A 
ATOM     14  N   UNL     1       1.093   3.741  17.751  0.00  0.00    +0.000 NA
ATOM     15  C   UNL     1       1.360   3.586  19.089  0.00  0.00    +0.000 A 
ATOM     16  C   UNL     1       0.937   2.580  19.971  0.00  0.00    +0.000 A 
ATOM     17  C   UNL     1       1.353   2.635  21.306  0.00  0.00    +0.000 A 
ATOM     18  C   UNL     1       2.162   3.679  21.759  0.00  0.00    +0.000 A 
ATOM     19  C   UNL     1       2.590   4.695  20.897  0.00  0.00    +0.000 A 
ATOM     20  C   UNL     1       2.179   4.611  19.561  0.00  0.00    +0.000 A 
ENDBRANCH  11  12
ENDBRANCH   3  11
TORSDOF 4
ENDMDL
MODEL 6
REMARK VINA RESULT:      -6.5      2.911      6.298
REMARK  Name = 
REMARK  7 active torsions:
REMARK  status: ('A' for Active; 'I' for Inactive)
REMARK    1  A    between atoms: C_1  and  O_2
REMARK    2  A    between atoms: O_2  and  C_3
REMARK    3  A    between atoms: C_3  and  C_4
REMARK    4  A    between atoms: C_3  and  C_5
REMARK    5  A    between atoms: C_3  and  C_6
REMARK    6  A    between atoms: C_8  and  C_9
REMARK    7  A    between atoms: C_9  and  N_10
REMARK                            x       y       z     vdW  Elec       q    Type
REMARK                         _______ _______ _______ _____ _____    ______ ____
ROOT
ATOM      1  C   UNL     1       6.682   4.930  16.149  0.00  0.00    +0.000 A 
ATOM      2  N   UNL     1       5.779   5.175  17.080  0.00  0.00    +0.000 NA
ATOM      3  C   UNL     1       6.448   4.847  18.231  0.00  0.00    +0.000 A 
ATOM      4  N   UNL     1       7.717   4.455  18.054  0.00  0.00    +0.000 NA
ATOM      5  O   UNL     1       7.876   4.506  16.666  0.00  0.00    +0.000 OA
ENDROOT
BRANCH   1   6
ATOM      6  C   UNL     1       6.560   4.999  14.647  0.00  0.00    +0.000 C 
ATOM      7  C   UNL     1       5.421   5.968  14.286  0.00  0.00    +0.000 C 
ATOM      8  C   UNL     1       6.255   3.596  14.103  0.00  0.00    +0.000 C 
BRANCH   6  10
ATOM      9  C   UNL     1       8.069   5.408  12.781  0.00  0.00    +0.000 C 
ATOM     10  O   UNL     1       7.828   5.489  14.178  0.00  0.00    +0.000 OA
ENDBRANCH   6  10
ENDBRANCH   1   6
BRANCH   3  11
ATOM     11  C   UNL     1       5.813   4.926  19.566  0.00  0.00    +0.000 C 
BRANCH  11  12
ATOM     12  N   UNL     1       4.369   4.948  19.435  0.00  0.00    +0.000 N 
ATOM     13  C   UNL     1       3.600   6.079  19.454  0.00  0.00    +0.000 A 
ATOM     14  N   UNL     1       2.334   5.810  19.232  0.00  0.00    +0.000 NA
ATOM     15  C   UNL     1       2.279   4.448  19.067  0.00  0.00    +0.000 A 
ATOM     16  C   UNL     1       1.175   3.627  18.792  0.00  0.00    +0.000 A 
ATOM     17  C   UNL     1       1.376   2.249  18.658  0.00  0.00    +0.000 A 
ATOM     18  C   UNL     1       2.648   1.695  18.810  0.00  0.00    +0.000 A 
ATOM     19  C   UNL     1       3.762   2.495  19.091  0.00  0.00    +0.000 A 
ATOM     20  C   UNL     1       3.543   3.874  19.202  0.00  0.00    +0.000 A 
ENDBRANCH  11  12
ENDBRANCH   3  11
TORSDOF 4
ENDMDL
MODEL 7
REMARK VINA RESULT:      -6.5      3.742      6.226
REMARK  Name = 
REMARK  7 active torsions:
REMARK  status: ('A' for Active; 'I' for Inactive)
REMARK    1  A    between atoms: C_1  and  O_2
REMARK    2  A    between atoms: O_2  and  C_3
REMARK    3  A    between atoms: C_3  and  C_4
REMARK    4  A    between atoms: C_3  and  C_5
REMARK    5  A    between atoms: C_3  and  C_6
REMARK    6  A    between atoms: C_8  and  C_9
REMARK    7  A    between atoms: C_9  and  N_10
REMARK                            x       y       z     vdW  Elec       q    Type
REMARK                         _______ _______ _______ _____ _____    ______ ____
ROOT
ATOM      1  C   UNL     1       1.437   9.204  18.676  0.00  0.00    +0.000 A 
ATOM      2  N   UNL     1       1.888   8.076  19.194  0.00  0.00    +0.000 NA
ATOM      3  C   UNL     1       2.762   7.641  18.231  0.00  0.00    +0.000 A 
ATOM      4  N   UNL     1       2.897   8.460  17.179  0.00  0.00    +0.000 NA
ATOM      5  O   UNL     1       2.012   9.502  17.471  0.00  0.00    +0.000 OA
ENDROOT
BRANCH   1   6
ATOM      6  C   UNL     1       0.374  10.142  19.190  0.00  0.00    +0.000 C 
ATOM      7  C   UNL     1       0.956  11.564  19.254  0.00  0.00    +0.000 C 
ATOM      8  C   UNL     1      -0.064   9.686  20.590  0.00  0.00    +0.000 C 
BRANCH   6  10
ATOM      9  C   UNL     1      -1.587  11.174  18.183  0.00  0.00    +0.000 C 
ATOM     10  O   UNL     1      -0.704  10.063  18.242  0.00  0.00    +0.000 OA
ENDBRANCH   6  10
ENDBRANCH   1   6
BRANCH   3  11
ATOM     11  C   UNL     1       3.502   6.365  18.352  0.00  0.00    +0.000 C 
BRANCH  11  12
ATOM     12  N   UNL     1       2.575   5.253  18.443  0.00  0.00    +0.000 N 
ATOM     13  C   UNL     1       1.897   4.713  17.385  0.00  0.00    +0.000 A 
ATOM     14  N   UNL     1       1.192   3.664  17.743  0.00  0.00    +0.000 NA
ATOM     15  C   UNL     1       1.420   3.521  19.090  0.00  0.00    +0.000 A 
ATOM     16  C   UNL     1       0.927   2.554  19.979  0.00  0.00    +0.000 A 
ATOM     17  C   UNL     1       1.315   2.613  21.322  0.00  0.00    +0.000 A 
ATOM     18  C   UNL     1       2.163   3.624  21.776  0.00  0.00    +0.000 A 
ATOM     19  C   UNL     1       2.661   4.602  20.907  0.00  0.00    +0.000 A 
ATOM     20  C   UNL     1       2.277   4.514  19.563  0.00  0.00    +0.000 A 
ENDBRANCH  11  12
ENDBRANCH   3  11
TORSDOF 4
ENDMDL
MODEL 8
REMARK VINA RESULT:      -6.5      0.625      1.351
REMARK  Name = 
REMARK  7 active torsions:
REMARK  status: ('A' for Active; 'I' for Inactive)
REMARK    1  A    between atoms: C_1  and  O_2
REMARK    2  A    between atoms: O_2  and  C_3
REMARK    3  A    between atoms: C_3  and  C_4
REMARK    4  A    between atoms: C_3  and  C_5
REMARK    5  A    between atoms: C_3  and  C_6
REMARK    6  A    between atoms: C_8  and  C_9
REMARK    7  A    between atoms: C_9  and  N_10
REMARK                            x       y       z     vdW  Elec       q    Type
REMARK                         _______ _______ _______ _____ _____    ______ ____
ROOT
ATOM      1  C   UNL     1       2.767   3.693  19.029  0.00  0.00    +0.000 A 
ATOM      2  N   UNL     1       3.759   4.238  18.351  0.00  0.00    +0.000 NA
ATOM      3  C   UNL     1       4.113   3.232  17.490  0.00  0.00    +0.000 A 
ATOM      4  N   UNL     1       3.367   2.123  17.580  0.00  0.00    +0.000 NA
ATOM      5  O   UNL     1       2.469   2.425  18.608  0.00  0.00    +0.000 OA
ENDROOT
BRANCH   1   6
ATOM      6  C   UNL     1       1.984   4.238  20.197  0.00  0.00    +0.000 C 
ATOM      7  C   UNL     1       0.510   3.828  20.041  0.00  0.00    +0.000 C 
ATOM      8  C   UNL     1       2.109   5.769  20.214  0.00  0.00    +0.000 C 
BRANCH   6  10
ATOM      9  C   UNL     1       1.854   2.571  21.966  0.00  0.00    +0.000 C 
ATOM     10  O   UNL     1       2.569   3.643  21.368  0.00  0.00    +0.000 OA
ENDBRANCH   6  10
ENDBRANCH   1   6
BRANCH   3  11
ATOM     11  C   UNL     1       5.233   3.367  16.532  0.00  0.00    +0.000 C 
BRANCH  11  12
ATOM     12  N   UNL     1       5.667   4.749  16.457  0.00  0.00    +0.000 N 
ATOM     13  C   UNL     1       5.189   5.672  15.567  0.00  0.00    +0.000 A 
ATOM     14  N   UNL     1       5.698   6.863  15.781  0.00  0.00    +0.000 NA
ATOM     15  C   UNL     1       6.545   6.706  16.850  0.00  0.00    +0.000 A 
ATOM     16  C   UNL     1       7.337   7.660  17.507  0.00  0.00    +0.000 A 
ATOM     17  C   UNL     1       8.120   7.253  18.593  0.00  0.00    +0.000 A 
ATOM     18  C   UNL     1       8.127   5.921  19.009  0.00  0.00    +0.000 A 
ATOM     19  C   UNL     1       7.348   4.953  18.364  0.00  0.00    +0.000 A 
ATOM     20  C   UNL     1       6.557   5.383  17.292  0.00  0.00    +0.000 A 
ENDBRANCH  11  12
ENDBRANCH   3  11
TORSDOF 4
ENDMDL
MODEL 9
REMARK VINA RESULT:      -6.5      2.214      3.453
REMARK  Name = 
REMARK  7 active torsions:
REMARK  status: ('A' for Active; 'I' for Inactive)
REMARK    1  A    between atoms: C_1  and  O_2
REMARK    2  A    between atoms: O_2  and  C_3
REMARK    3  A    between atoms: C_3  and  C_4
REMARK    4  A    between atoms: C_3  and  C_5
REMARK    5  A    between atoms: C_3  and  C_6
REMARK    6  A    between atoms: C_8  and  C_9
REMARK    7  A    between atoms: C_9  and  N_10
REMARK                            x       y       z     vdW  Elec       q    Type
REMARK                         _______ _______ _______ _____ _____    ______ ____
ROOT
ATOM      1  C   UNL     1       2.895   4.471  19.043  0.00  0.00    +0.000 A 
ATOM      2  N   UNL     1       3.570   3.456  18.539  0.00  0.00    +0.000 NA
ATOM      3  C   UNL     1       4.118   4.001  17.406  0.00  0.00    +0.000 A 
ATOM      4  N   UNL     1       3.846   5.300  17.217  0.00  0.00    +0.000 NA
ATOM      5  O   UNL     1       3.027   5.616  18.305  0.00  0.00    +0.000 OA
ENDROOT
BRANCH   1   6
ATOM      6  C   UNL     1       1.988   4.522  20.246  0.00  0.00    +0.000 C 
ATOM      7  C   UNL     1       0.683   3.779  19.916  0.00  0.00    +0.000 C 
ATOM      8  C   UNL     1       1.689   5.990  20.589  0.00  0.00    +0.000 C 
BRANCH   6  10
ATOM      9  C   UNL     1       2.143   2.666  21.814  0.00  0.00    +0.000 C 
ATOM     10  O   UNL     1       2.708   3.865  21.303  0.00  0.00    +0.000 OA
ENDBRANCH   6  10
ENDBRANCH   1   6
BRANCH   3  11
ATOM     11  C   UNL     1       4.950   3.213  16.470  0.00  0.00    +0.000 C 
BRANCH  11  12
ATOM     12  N   UNL     1       5.912   4.072  15.807  0.00  0.00    +0.000 N 
ATOM     13  C   UNL     1       6.728   4.968  16.442  0.00  0.00    +0.000 A 
ATOM     14  N   UNL     1       7.555   5.550  15.605  0.00  0.00    +0.000 NA
ATOM     15  C   UNL     1       7.261   5.013  14.376  0.00  0.00    +0.000 A 
ATOM     16  C   UNL     1       7.850   5.267  13.128  0.00  0.00    +0.000 A 
ATOM     17  C   UNL     1       7.376   4.579  12.006  0.00  0.00    +0.000 A 
ATOM     18  C   UNL     1       6.325   3.667  12.119  0.00  0.00    +0.000 A 
ATOM     19  C   UNL     1       5.720   3.404  13.353  0.00  0.00    +0.000 A 
ATOM     20  C   UNL     1       6.222   4.087  14.467  0.00  0.00    +0.000 A 
ENDBRANCH  11  12
ENDBRANCH   3  11
TORSDOF 4
ENDMDL
