MODEL 1
REMARK VINA RESULT:      -6.7      0.000      0.000
REMARK  Name = 
REMARK  5 active torsions:
REMARK  status: ('A' for Active; 'I' for Inactive)
REMARK    1  A    between atoms: C_1  and  C_2
REMARK    2  A    between atoms: C_2  and  C_3
REMARK    3  A    between atoms: C_3  and  C_4
REMARK    4  A    between atoms: C_3  and  N_6
REMARK    5  A    between atoms: C_4  and  O_5
REMARK                            x       y       z     vdW  Elec       q    Type
REMARK                         _______ _______ _______ _____ _____    ______ ____
ROOT
ATOM      1  N   UNL     1       1.506   9.522  19.666  0.00  0.00    +0.000 NA
ATOM      2  C   UNL     1       1.495   8.347  20.574  0.00  0.00    +0.000 C 
ATOM      3  C   UNL     1       1.158   7.024  19.866  0.00  0.00    +0.000 C 
ATOM      4  C   UNL     1       2.231   6.708  18.825  0.00  0.00    +0.000 C 
ATOM      5  C   UNL     1       2.956   5.552  18.763  0.00  0.00    +0.000 C 
ATOM      6  C   UNL     1       4.009   5.412  17.721  0.00  0.00    +0.000 A 
ATOM      7  C   UNL     1       5.164   6.211  17.768  0.00  0.00    +0.000 A 
ATOM      8  C   UNL     1       6.166   6.073  16.808  0.00  0.00    +0.000 A 
ATOM      9  C   UNL     1       6.037   5.110  15.811  0.00  0.00    +0.000 A 
ATOM     10 CL   UNL     1       7.285   4.917  14.643  0.00  0.00    +0.000 Cl
ATOM     11  C   UNL     1       4.908   4.293  15.761  0.00  0.00    +0.000 A 
ATOM     12  C   UNL     1       3.886   4.439  16.713  0.00  0.00    +0.000 A 
ATOM     13  C   UNL     1       2.681   3.533  16.686  0.00  0.00    +0.000 C 
ATOM     14  C   UNL     1       2.692   2.549  17.854  0.00  0.00    +0.000 C 
ATOM     15  C   UNL     1       2.501   3.078  19.260  0.00  0.00    +0.000 A 
ATOM     16  C   UNL     1       2.161   2.122  20.238  0.00  0.00    +0.000 A 
ATOM     17  C   UNL     1       2.003   2.488  21.566  0.00  0.00    +0.000 A 
ATOM     18  C   UNL     1       2.243   3.800  21.900  0.00  0.00    +0.000 A 
ATOM     19  N   UNL     1       2.601   4.744  21.006  0.00  0.00    +0.000 NA
ATOM     20  C   UNL     1       2.677   4.403  19.690  0.00  0.00    +0.000 A 
ATOM     21  C   UNL     1       2.354   7.903  17.874  0.00  0.00    +0.000 C 
ATOM     22  C   UNL     1       2.529   9.244  18.627  0.00  0.00    +0.000 C 
ENDROOT
BRANCH   1  23
ATOM     23  C   UNL     1       0.150   9.882  19.146  0.00  0.00    +0.000 C 
BRANCH  23  25
ATOM     24  C   UNL     1      -0.618  11.341  21.154  0.00  0.00    +0.000 C 
ATOM     25  C   UNL     1      -0.835  10.071  20.339  0.00  0.00    +0.000 C 
ENDBRANCH  23  25
BRANCH  23  26
ATOM     26  C   UNL     1       0.134  11.138  18.217  0.00  0.00    +0.000 C 
BRANCH  26  27
ATOM     27  O   UNL     1      -1.123  11.394  17.600  0.00  0.00    +0.000 OA
ATOM     28  H   UNL     1      -1.537  12.144  18.055  0.00  0.00    +0.000 HD
ENDBRANCH  26  27
ENDBRANCH  23  26
ENDBRANCH   1  23
TORSDOF 4
ENDMDL
MODEL 2
REMARK VINA RESULT:      -6.5      3.621      6.470
REMARK  Name = 
REMARK  5 active torsions:
REMARK  status: ('A' for Active; 'I' for Inactive)
REMARK    1  A    between atoms: C_1  and  C_2
REMARK    2  A    between atoms: C_2  and  C_3
REMARK    3  A    between atoms: C_3  and  C_4
REMARK    4  A    between atoms: C_3  and  N_6
REMARK    5  A    between atoms: C_4  and  O_5
REMARK                            x       y       z     vdW  Elec       q    Type
REMARK                         _______ _______ _______ _____ _____    ______ ____
ROOT
ATOM      1  N   UNL     1       5.653   5.625  15.046  0.00  0.00    +0.000 NA
ATOM      2  C   UNL     1       4.702   4.551  15.435  0.00  0.00    +0.000 C 
ATOM      3  C   UNL     1       4.468   4.457  16.952  0.00  0.00    +0.000 C 
ATOM      4  C   UNL     1       3.830   5.750  17.457  0.00  0.00    +0.000 C 
ATOM      5  C   UNL     1       2.660   5.834  18.157  0.00  0.00    +0.000 C 
ATOM      6  C   UNL     1       2.136   7.174  18.534  0.00  0.00    +0.000 A 
ATOM      7  C   UNL     1       1.682   8.063  17.544  0.00  0.00    +0.000 A 
ATOM      8  C   UNL     1       1.170   9.313  17.889  0.00  0.00    +0.000 A 
ATOM      9  C   UNL     1       1.074   9.672  19.230  0.00  0.00    +0.000 A 
ATOM     10 CL   UNL     1       0.415  11.202  19.661  0.00  0.00    +0.000 Cl
ATOM     11  C   UNL     1       1.498   8.795  20.228  0.00  0.00    +0.000 A 
ATOM     12  C   UNL     1       2.033   7.542  19.888  0.00  0.00    +0.000 A 
ATOM     13  C   UNL     1       2.458   6.575  20.964  0.00  0.00    +0.000 C 
ATOM     14  C   UNL     1       1.508   5.381  21.052  0.00  0.00    +0.000 C 
ATOM     15  C   UNL     1       1.469   4.389  19.909  0.00  0.00    +0.000 A 
ATOM     16  C   UNL     1       0.866   3.146  20.191  0.00  0.00    +0.000 A 
ATOM     17  C   UNL     1       0.738   2.179  19.207  0.00  0.00    +0.000 A 
ATOM     18  C   UNL     1       1.168   2.495  17.940  0.00  0.00    +0.000 A 
ATOM     19  N   UNL     1       1.721   3.681  17.614  0.00  0.00    +0.000 NA
ATOM     20  C   UNL     1       1.921   4.601  18.597  0.00  0.00    +0.000 A 
ATOM     21  C   UNL     1       4.720   6.926  17.043  0.00  0.00    +0.000 C 
ATOM     22  C   UNL     1       5.073   6.900  15.536  0.00  0.00    +0.000 C 
ENDROOT
BRANCH   1  23
ATOM     23  C   UNL     1       7.060   5.356  15.477  0.00  0.00    +0.000 C 
BRANCH  23  25
ATOM     24  C   UNL     1       7.725   4.857  17.939  0.00  0.00    +0.000 C 
ATOM     25  C   UNL     1       7.059   4.348  16.666  0.00  0.00    +0.000 C 
ENDBRANCH  23  25
BRANCH  23  26
ATOM     26  C   UNL     1       7.995   4.852  14.332  0.00  0.00    +0.000 C 
BRANCH  26  27
ATOM     27  O   UNL     1       8.364   5.857  13.394  0.00  0.00    +0.000 OA
ATOM     28  H   UNL     1       7.642   6.502  13.339  0.00  0.00    +0.000 HD
ENDBRANCH  26  27
ENDBRANCH  23  26
ENDBRANCH   1  23
TORSDOF 4
ENDMDL
MODEL 3
REMARK VINA RESULT:      -6.5      3.696      6.362
REMARK  Name = 
REMARK  5 active torsions:
REMARK  status: ('A' for Active; 'I' for Inactive)
REMARK    1  A    between atoms: C_1  and  C_2
REMARK    2  A    between atoms: C_2  and  C_3
REMARK    3  A    between atoms: C_3  and  C_4
REMARK    4  A    between atoms: C_3  and  N_6
REMARK    5  A    between atoms: C_4  and  O_5
REMARK                            x       y       z     vdW  Elec       q    Type
REMARK                         _______ _______ _______ _____ _____    ______ ____
ROOT
ATOM      1  N   UNL     1       6.066   5.970  15.881  0.00  0.00    +0.000 NA
ATOM      2  C   UNL     1       5.130   4.863  16.206  0.00  0.00    +0.000 C 
ATOM      3  C   UNL     1       4.668   4.856  17.672  0.00  0.00    +0.000 C 
ATOM      4  C   UNL     1       3.887   6.134  17.973  0.00  0.00    +0.000 C 
ATOM      5  C   UNL     1       2.620   6.186  18.481  0.00  0.00    +0.000 C 
ATOM      6  C   UNL     1       1.967   7.510  18.668  0.00  0.00    +0.000 A 
ATOM      7  C   UNL     1       1.623   8.296  17.556  0.00  0.00    +0.000 A 
ATOM      8  C   UNL     1       0.993   9.529  17.720  0.00  0.00    +0.000 A 
ATOM      9  C   UNL     1       0.670   9.971  19.000  0.00  0.00    +0.000 A 
ATOM     10 CL   UNL     1      -0.135  11.478  19.206  0.00  0.00    +0.000 Cl
ATOM     11  C   UNL     1       0.983   9.195  20.116  0.00  0.00    +0.000 A 
ATOM     12  C   UNL     1       1.635   7.961  19.959  0.00  0.00    +0.000 A 
ATOM     13  C   UNL     1       1.942   7.101  21.158  0.00  0.00    +0.000 C 
ATOM     14  C   UNL     1       1.060   5.854  21.196  0.00  0.00    +0.000 C 
ATOM     15  C   UNL     1       1.256   4.786  20.141  0.00  0.00    +0.000 A 
ATOM     16  C   UNL     1       0.688   3.527  20.425  0.00  0.00    +0.000 A 
ATOM     17  C   UNL     1       0.770   2.488  19.511  0.00  0.00    +0.000 A 
ATOM     18  C   UNL     1       1.373   2.746  18.302  0.00  0.00    +0.000 A 
ATOM     19  N   UNL     1       1.901   3.942  17.972  0.00  0.00    +0.000 NA
ATOM     20  C   UNL     1       1.893   4.938  18.899  0.00  0.00    +0.000 A 
ATOM     21  C   UNL     1       4.762   7.338  17.608  0.00  0.00    +0.000 C 
ATOM     22  C   UNL     1       5.345   7.233  16.178  0.00  0.00    +0.000 C 
ENDROOT
BRANCH   1  23
ATOM     23  C   UNL     1       7.402   5.828  16.539  0.00  0.00    +0.000 C 
BRANCH  23  25
ATOM     24  C   UNL     1       8.191   7.232  18.578  0.00  0.00    +0.000 C 
ATOM     25  C   UNL     1       7.864   7.211  17.089  0.00  0.00    +0.000 C 
ENDBRANCH  23  25
BRANCH  23  26
ATOM     26  C   UNL     1       7.449   4.746  17.665  0.00  0.00    +0.000 C 
BRANCH  26  27
ATOM     27  O   UNL     1       8.568   3.870  17.590  0.00  0.00    +0.000 OA
ATOM     28  H   UNL     1       8.325   3.031  18.011  0.00  0.00    +0.000 HD
ENDBRANCH  26  27
ENDBRANCH  23  26
ENDBRANCH   1  23
TORSDOF 4
ENDMDL
MODEL 4
REMARK VINA RESULT:      -6.4      3.555      6.573
REMARK  Name = 
REMARK  5 active torsions:
REMARK  status: ('A' for Active; 'I' for Inactive)
REMARK    1  A    between atoms: C_1  and  C_2
REMARK    2  A    between atoms: C_2  and  C_3
REMARK    3  A    between atoms: C_3  and  C_4
REMARK    4  A    between atoms: C_3  and  N_6
REMARK    5  A    between atoms: C_4  and  O_5
REMARK                            x       y       z     vdW  Elec       q    Type
REMARK                         _______ _______ _______ _____ _____    ______ ____
ROOT
ATOM      1  N   UNL     1       5.675   5.136  15.065  0.00  0.00    +0.000 NA
ATOM      2  C   UNL     1       4.665   4.134  15.493  0.00  0.00    +0.000 C 
ATOM      3  C   UNL     1       4.422   4.114  17.012  0.00  0.00    +0.000 C 
ATOM      4  C   UNL     1       3.856   5.461  17.461  0.00  0.00    +0.000 C 
ATOM      5  C   UNL     1       2.691   5.638  18.152  0.00  0.00    +0.000 C 
ATOM      6  C   UNL     1       2.241   7.020  18.471  0.00  0.00    +0.000 A 
ATOM      7  C   UNL     1       1.840   7.891  17.443  0.00  0.00    +0.000 A 
ATOM      8  C   UNL     1       1.398   9.181  17.734  0.00  0.00    +0.000 A 
ATOM      9  C   UNL     1       1.319   9.599  19.060  0.00  0.00    +0.000 A 
ATOM     10 CL   UNL     1       0.744  11.180  19.424  0.00  0.00    +0.000 Cl
ATOM     11  C   UNL     1       1.691   8.741  20.094  0.00  0.00    +0.000 A 
ATOM     12  C   UNL     1       2.156   7.448  19.808  0.00  0.00    +0.000 A 
ATOM     13  C   UNL     1       2.524   6.504  20.924  0.00  0.00    +0.000 C 
ATOM     14  C   UNL     1       1.510   5.369  21.058  0.00  0.00    +0.000 C 
ATOM     15  C   UNL     1       1.418   4.335  19.956  0.00  0.00    +0.000 A 
ATOM     16  C   UNL     1       0.746   3.140  20.285  0.00  0.00    +0.000 A 
ATOM     17  C   UNL     1       0.566   2.141  19.341  0.00  0.00    +0.000 A 
ATOM     18  C   UNL     1       1.016   2.381  18.064  0.00  0.00    +0.000 A 
ATOM     19  N   UNL     1       1.636   3.520  17.693  0.00  0.00    +0.000 NA
ATOM     20  C   UNL     1       1.884   4.467  18.638  0.00  0.00    +0.000 A 
ATOM     21  C   UNL     1       4.812   6.568  17.003  0.00  0.00    +0.000 C 
ATOM     22  C   UNL     1       5.166   6.460  15.500  0.00  0.00    +0.000 C 
ENDROOT
BRANCH   1  23
ATOM     23  C   UNL     1       7.064   4.807  15.513  0.00  0.00    +0.000 C 
BRANCH  23  25
ATOM     24  C   UNL     1       7.628   5.138  12.998  0.00  0.00    +0.000 C 
ATOM     25  C   UNL     1       8.088   5.294  14.444  0.00  0.00    +0.000 C 
ENDBRANCH  23  25
BRANCH  23  26
ATOM     26  C   UNL     1       7.432   5.372  16.922  0.00  0.00    +0.000 C 
BRANCH  26  27
ATOM     27  O   UNL     1       7.749   4.376  17.888  0.00  0.00    +0.000 OA
ATOM     28  H   UNL     1       6.919   4.018  18.239  0.00  0.00    +0.000 HD
ENDBRANCH  26  27
ENDBRANCH  23  26
ENDBRANCH   1  23
TORSDOF 4
ENDMDL
MODEL 5
REMARK VINA RESULT:      -6.2      5.701      9.051
REMARK  Name = 
REMARK  5 active torsions:
REMARK  status: ('A' for Active; 'I' for Inactive)
REMARK    1  A    between atoms: C_1  and  C_2
REMARK    2  A    between atoms: C_2  and  C_3
REMARK    3  A    between atoms: C_3  and  C_4
REMARK    4  A    between atoms: C_3  and  N_6
REMARK    5  A    between atoms: C_4  and  O_5
REMARK                            x       y       z     vdW  Elec       q    Type
REMARK                         _______ _______ _______ _____ _____    ______ ____
ROOT
ATOM      1  N   UNL     1       1.771  14.890  18.188  0.00  0.00    +0.000 NA
ATOM      2  C   UNL     1       2.029  13.429  18.267  0.00  0.00    +0.000 C 
ATOM      3  C   UNL     1       1.872  12.852  19.683  0.00  0.00    +0.000 C 
ATOM      4  C   UNL     1       0.428  13.022  20.152  0.00  0.00    +0.000 C 
ATOM      5  C   UNL     1      -0.386  12.016  20.589  0.00  0.00    +0.000 C 
ATOM      6  C   UNL     1      -1.792  12.331  20.962  0.00  0.00    +0.000 A 
ATOM      7  C   UNL     1      -2.712  12.737  19.981  0.00  0.00    +0.000 A 
ATOM      8  C   UNL     1      -4.037  13.015  20.317  0.00  0.00    +0.000 A 
ATOM      9  C   UNL     1      -4.461  12.855  21.633  0.00  0.00    +0.000 A 
ATOM     10 CL   UNL     1      -6.102  13.167  22.046  0.00  0.00    +0.000 Cl
ATOM     11  C   UNL     1      -3.568  12.431  22.617  0.00  0.00    +0.000 A 
ATOM     12  C   UNL     1      -2.228  12.168  22.290  0.00  0.00    +0.000 A 
ATOM     13  C   UNL     1      -1.268  11.674  23.341  0.00  0.00    +0.000 C 
ATOM     14  C   UNL     1      -0.895  10.209  23.117  0.00  0.00    +0.000 C 
ATOM     15  C   UNL     1      -0.060   9.842  21.909  0.00  0.00    +0.000 A 
ATOM     16  C   UNL     1       0.549   8.571  21.943  0.00  0.00    +0.000 A 
ATOM     17  C   UNL     1       1.302   8.114  20.872  0.00  0.00    +0.000 A 
ATOM     18  C   UNL     1       1.385   8.918  19.760  0.00  0.00    +0.000 A 
ATOM     19  N   UNL     1       0.795  10.127  19.668  0.00  0.00    +0.000 NA
ATOM     20  C   UNL     1       0.123  10.611  20.749  0.00  0.00    +0.000 A 
ATOM     21  C   UNL     1       0.053  14.504  20.046  0.00  0.00    +0.000 C 
ATOM     22  C   UNL     1       0.377  15.098  18.653  0.00  0.00    +0.000 C 
ENDROOT
BRANCH   1  23
ATOM     23  C   UNL     1       2.806  15.714  18.886  0.00  0.00    +0.000 C 
BRANCH  23  25
ATOM     24  C   UNL     1       5.391  15.945  19.017  0.00  0.00    +0.000 C 
ATOM     25  C   UNL     1       4.186  15.524  18.185  0.00  0.00    +0.000 C 
ENDBRANCH  23  25
BRANCH  23  26
ATOM     26  C   UNL     1       2.451  17.231  18.994  0.00  0.00    +0.000 C 
BRANCH  26  27
ATOM     27  O   UNL     1       2.269  17.881  17.741  0.00  0.00    +0.000 OA
ATOM     28  H   UNL     1       2.689  18.754  17.788  0.00  0.00    +0.000 HD
ENDBRANCH  26  27
ENDBRANCH  23  26
ENDBRANCH   1  23
TORSDOF 4
ENDMDL
MODEL 6
REMARK VINA RESULT:      -6.1      6.428      9.356
REMARK  Name = 
REMARK  5 active torsions:
REMARK  status: ('A' for Active; 'I' for Inactive)
REMARK    1  A    between atoms: C_1  and  C_2
REMARK    2  A    between atoms: C_2  and  C_3
REMARK    3  A    between atoms: C_3  and  C_4
REMARK    4  A    between atoms: C_3  and  N_6
REMARK    5  A    between atoms: C_4  and  O_5
REMARK                            x       y       z     vdW  Elec       q    Type
REMARK                         _______ _______ _______ _____ _____    ______ ____
ROOT
ATOM      1  N   UNL     1      -4.358  14.344  24.031  0.00  0.00    +0.000 NA
ATOM      2  C   UNL     1      -3.600  13.077  24.196  0.00  0.00    +0.000 C 
ATOM      3  C   UNL     1      -3.204  12.419  22.864  0.00  0.00    +0.000 C 
ATOM      4  C   UNL     1      -2.263  13.343  22.092  0.00  0.00    +0.000 C 
ATOM      5  C   UNL     1      -1.023  13.004  21.632  0.00  0.00    +0.000 C 
ATOM      6  C   UNL     1      -0.199  14.034  20.942  0.00  0.00    +0.000 A 
ATOM      7  C   UNL     1       0.296  15.140  21.654  0.00  0.00    +0.000 A 
ATOM      8  C   UNL     1       1.085  16.100  21.021  0.00  0.00    +0.000 A 
ATOM      9  C   UNL     1       1.416  15.943  19.678  0.00  0.00    +0.000 A 
ATOM     10 CL   UNL     1       2.415  17.109  18.902  0.00  0.00    +0.000 Cl
ATOM     11  C   UNL     1       0.953  14.841  18.961  0.00  0.00    +0.000 A 
ATOM     12  C   UNL     1       0.141  13.880  19.586  0.00  0.00    +0.000 A 
ATOM     13  C   UNL     1      -0.331  12.667  18.825  0.00  0.00    +0.000 C 
ATOM     14  C   UNL     1       0.365  11.396  19.308  0.00  0.00    +0.000 C 
ATOM     15  C   UNL     1       0.064  10.878  20.698  0.00  0.00    +0.000 A 
ATOM     16  C   UNL     1       0.437   9.543  20.954  0.00  0.00    +0.000 A 
ATOM     17  C   UNL     1       0.248   8.978  22.205  0.00  0.00    +0.000 A 
ATOM     18  C   UNL     1      -0.264   9.781  23.198  0.00  0.00    +0.000 A 
ATOM     19  N   UNL     1      -0.606  11.072  23.011  0.00  0.00    +0.000 NA
ATOM     20  C   UNL     1      -0.496  11.603  21.762  0.00  0.00    +0.000 A 
ATOM     21  C   UNL     1      -2.946  14.705  21.928  0.00  0.00    +0.000 C 
ATOM     22  C   UNL     1      -3.480  15.265  23.268  0.00  0.00    +0.000 C 
ENDROOT
BRANCH   1  23
ATOM     23  C   UNL     1      -5.727  14.146  23.459  0.00  0.00    +0.000 C 
BRANCH  23  25
ATOM     24  C   UNL     1      -7.606  12.352  23.409  0.00  0.00    +0.000 C 
ATOM     25  C   UNL     1      -6.418  12.939  24.163  0.00  0.00    +0.000 C 
ENDBRANCH  23  25
BRANCH  23  26
ATOM     26  C   UNL     1      -6.636  15.414  23.523  0.00  0.00    +0.000 C 
BRANCH  26  27
ATOM     27  O   UNL     1      -7.228  15.773  22.280  0.00  0.00    +0.000 OA
ATOM     28  H   UNL     1      -8.188  15.655  22.354  0.00  0.00    +0.000 HD
ENDBRANCH  26  27
ENDBRANCH  23  26
ENDBRANCH   1  23
TORSDOF 4
ENDMDL
MODEL 7
REMARK VINA RESULT:      -5.9      6.507      9.000
REMARK  Name = 
REMARK  5 active torsions:
REMARK  status: ('A' for Active; 'I' for Inactive)
REMARK    1  A    between atoms: C_1  and  C_2
REMARK    2  A    between atoms: C_2  and  C_3
REMARK    3  A    between atoms: C_3  and  C_4
REMARK    4  A    between atoms: C_3  and  N_6
REMARK    5  A    between atoms: C_4  and  O_5
REMARK                            x       y       z     vdW  Elec       q    Type
REMARK                         _______ _______ _______ _____ _____    ______ ____
ROOT
ATOM      1  N   UNL     1      -3.237  14.350  22.798  0.00  0.00    +0.000 NA
ATOM      2  C   UNL     1      -2.013  14.992  22.254  0.00  0.00    +0.000 C 
ATOM      3  C   UNL     1      -0.886  13.996  21.934  0.00  0.00    +0.000 C 
ATOM      4  C   UNL     1      -1.344  13.032  20.841  0.00  0.00    +0.000 C 
ATOM      5  C   UNL     1      -0.696  12.811  19.659  0.00  0.00    +0.000 C 
ATOM      6  C   UNL     1      -1.297  11.879  18.667  0.00  0.00    +0.000 A 
ATOM      7  C   UNL     1      -2.500  12.210  18.020  0.00  0.00    +0.000 A 
ATOM      8  C   UNL     1      -3.061  11.353  17.074  0.00  0.00    +0.000 A 
ATOM      9  C   UNL     1      -2.403  10.172  16.740  0.00  0.00    +0.000 A 
ATOM     10 CL   UNL     1      -3.076   9.126  15.550  0.00  0.00    +0.000 Cl
ATOM     11  C   UNL     1      -1.197   9.837  17.354  0.00  0.00    +0.000 A 
ATOM     12  C   UNL     1      -0.637  10.685  18.322  0.00  0.00    +0.000 A 
ATOM     13  C   UNL     1       0.686  10.347  18.962  0.00  0.00    +0.000 C 
ATOM     14  C   UNL     1       1.796  11.283  18.488  0.00  0.00    +0.000 C 
ATOM     15  C   UNL     1       1.752  12.739  18.900  0.00  0.00    +0.000 A 
ATOM     16  C   UNL     1       2.954  13.460  18.749  0.00  0.00    +0.000 A 
ATOM     17  C   UNL     1       3.018  14.810  19.055  0.00  0.00    +0.000 A 
ATOM     18  C   UNL     1       1.858  15.430  19.457  0.00  0.00    +0.000 A 
ATOM     19  N   UNL     1       0.677  14.790  19.586  0.00  0.00    +0.000 NA
ATOM     20  C   UNL     1       0.632  13.448  19.363  0.00  0.00    +0.000 A 
ATOM     21  C   UNL     1      -2.646  12.364  21.296  0.00  0.00    +0.000 C 
ATOM     22  C   UNL     1      -3.704  13.390  21.767  0.00  0.00    +0.000 C 
ENDROOT
BRANCH   1  23
ATOM     23  C   UNL     1      -3.047  13.775  24.166  0.00  0.00    +0.000 C 
BRANCH  23  25
ATOM     24  C   UNL     1      -1.847  15.385  25.816  0.00  0.00    +0.000 C 
ATOM     25  C   UNL     1      -3.171  14.907  25.231  0.00  0.00    +0.000 C 
ENDBRANCH  23  25
BRANCH  23  26
ATOM     26  C   UNL     1      -4.013  12.595  24.504  0.00  0.00    +0.000 C 
BRANCH  26  27
ATOM     27  O   UNL     1      -4.409  12.535  25.869  0.00  0.00    +0.000 OA
ATOM     28  H   UNL     1      -5.278  12.957  25.952  0.00  0.00    +0.000 HD
ENDBRANCH  26  27
ENDBRANCH  23  26
ENDBRANCH   1  23
TORSDOF 4
ENDMDL
MODEL 8
REMARK VINA RESULT:      -5.8      6.333     11.347
REMARK  Name = 
REMARK  5 active torsions:
REMARK  status: ('A' for Active; 'I' for Inactive)
REMARK    1  A    between atoms: C_1  and  C_2
REMARK    2  A    between atoms: C_2  and  C_3
REMARK    3  A    between atoms: C_3  and  C_4
REMARK    4  A    between atoms: C_3  and  N_6
REMARK    5  A    between atoms: C_4  and  O_5
REMARK                            x       y       z     vdW  Elec       q    Type
REMARK                         _______ _______ _______ _____ _____    ______ ____
ROOT
ATOM      1  N   UNL     1      -0.248  12.699  18.411  0.00  0.00    +0.000 NA
ATOM      2  C   UNL     1      -1.625  12.225  18.117  0.00  0.00    +0.000 C 
ATOM      3  C   UNL     1      -2.415  11.816  19.371  0.00  0.00    +0.000 C 
ATOM      4  C   UNL     1      -2.602  13.028  20.282  0.00  0.00    +0.000 C 
ATOM      5  C   UNL     1      -3.801  13.497  20.739  0.00  0.00    +0.000 C 
ATOM      6  C   UNL     1      -3.825  14.727  21.577  0.00  0.00    +0.000 A 
ATOM      7  C   UNL     1      -3.476  15.970  21.024  0.00  0.00    +0.000 A 
ATOM      8  C   UNL     1      -3.516  17.131  21.796  0.00  0.00    +0.000 A 
ATOM      9  C   UNL     1      -3.940  17.063  23.120  0.00  0.00    +0.000 A 
ATOM     10 CL   UNL     1      -4.020  18.498  24.066  0.00  0.00    +0.000 Cl
ATOM     11  C   UNL     1      -4.312  15.841  23.681  0.00  0.00    +0.000 A 
ATOM     12  C   UNL     1      -4.256  14.665  22.915  0.00  0.00    +0.000 A 
ATOM     13  C   UNL     1      -4.693  13.349  23.505  0.00  0.00    +0.000 C 
ATOM     14  C   UNL     1      -6.009  12.869  22.894  0.00  0.00    +0.000 C 
ATOM     15  C   UNL     1      -6.030  12.443  21.441  0.00  0.00    +0.000 A 
ATOM     16  C   UNL     1      -7.147  11.685  21.036  0.00  0.00    +0.000 A 
ATOM     17  C   UNL     1      -7.292  11.278  19.719  0.00  0.00    +0.000 A 
ATOM     18  C   UNL     1      -6.338  11.686  18.816  0.00  0.00    +0.000 A 
ATOM     19  N   UNL     1      -5.270  12.438  19.149  0.00  0.00    +0.000 NA
ATOM     20  C   UNL     1      -5.085  12.770  20.456  0.00  0.00    +0.000 A 
ATOM     21  C   UNL     1      -1.223  13.623  20.589  0.00  0.00    +0.000 C 
ATOM     22  C   UNL     1      -0.387  13.871  19.310  0.00  0.00    +0.000 C 
ENDROOT
BRANCH   1  23
ATOM     23  C   UNL     1       0.658  11.617  18.907  0.00  0.00    +0.000 C 
BRANCH  23  25
ATOM     24  C   UNL     1       1.333   9.280  17.992  0.00  0.00    +0.000 C 
ATOM     25  C   UNL     1       0.200  10.244  18.328  0.00  0.00    +0.000 C 
ENDBRANCH  23  25
BRANCH  23  26
ATOM     26  C   UNL     1       2.171  11.862  18.607  0.00  0.00    +0.000 C 
BRANCH  26  27
ATOM     27  O   UNL     1       2.422  12.556  17.390  0.00  0.00    +0.000 OA
ATOM     28  H   UNL     1       2.540  13.496  17.596  0.00  0.00    +0.000 HD
ENDBRANCH  26  27
ENDBRANCH  23  26
ENDBRANCH   1  23
TORSDOF 4
ENDMDL
MODEL 9
REMARK VINA RESULT:      -5.7      5.769      8.207
REMARK  Name = 
REMARK  5 active torsions:
REMARK  status: ('A' for Active; 'I' for Inactive)
REMARK    1  A    between atoms: C_1  and  C_2
REMARK    2  A    between atoms: C_2  and  C_3
REMARK    3  A    between atoms: C_3  and  C_4
REMARK    4  A    between atoms: C_3  and  N_6
REMARK    5  A    between atoms: C_4  and  O_5
REMARK                            x       y       z     vdW  Elec       q    Type
REMARK                         _______ _______ _______ _____ _____    ______ ____
ROOT
ATOM      1  N   UNL     1      -2.885  15.304  23.075  0.00  0.00    +0.000 NA
ATOM      2  C   UNL     1      -2.556  13.922  23.510  0.00  0.00    +0.000 C 
ATOM      3  C   UNL     1      -2.376  12.936  22.344  0.00  0.00    +0.000 C 
ATOM      4  C   UNL     1      -1.192  13.369  21.480  0.00  0.00    +0.000 C 
ATOM      5  C   UNL     1      -0.115  12.590  21.167  0.00  0.00    +0.000 C 
ATOM      6  C   UNL     1       0.990  13.173  20.358  0.00  0.00    +0.000 A 
ATOM      7  C   UNL     1       1.799  14.191  20.891  0.00  0.00    +0.000 A 
ATOM      8  C   UNL     1       2.849  14.729  20.148  0.00  0.00    +0.000 A 
ATOM      9  C   UNL     1       3.122  14.229  18.878  0.00  0.00    +0.000 A 
ATOM     10 CL   UNL     1       4.436  14.870  17.971  0.00  0.00    +0.000 Cl
ATOM     11  C   UNL     1       2.344  13.204  18.341  0.00  0.00    +0.000 A 
ATOM     12  C   UNL     1       1.272  12.670  19.075  0.00  0.00    +0.000 A 
ATOM     13  C   UNL     1       0.452  11.536  18.514  0.00  0.00    +0.000 C 
ATOM     14  C   UNL     1       0.719  10.229  19.258  0.00  0.00    +0.000 C 
ATOM     15  C   UNL     1       0.266  10.099  20.697  0.00  0.00    +0.000 A 
ATOM     16  C   UNL     1       0.207   8.786  21.209  0.00  0.00    +0.000 A 
ATOM     17  C   UNL     1      -0.153   8.553  22.527  0.00  0.00    +0.000 A 
ATOM     18  C   UNL     1      -0.397   9.645  23.327  0.00  0.00    +0.000 A 
ATOM     19  N   UNL     1      -0.322  10.919  22.891  0.00  0.00    +0.000 NA
ATOM     20  C   UNL     1      -0.047  11.147  21.578  0.00  0.00    +0.000 A 
ATOM     21  C   UNL     1      -1.420  14.817  21.034  0.00  0.00    +0.000 C 
ATOM     22  C   UNL     1      -1.762  15.755  22.217  0.00  0.00    +0.000 C 
ENDROOT
BRANCH   1  23
ATOM     23  C   UNL     1      -4.245  15.425  22.463  0.00  0.00    +0.000 C 
BRANCH  23  25
ATOM     24  C   UNL     1      -5.229  16.704  24.499  0.00  0.00    +0.000 C 
ATOM     25  C   UNL     1      -5.322  15.486  23.588  0.00  0.00    +0.000 C 
ENDBRANCH  23  25
BRANCH  23  26
ATOM     26  C   UNL     1      -4.402  16.635  21.487  0.00  0.00    +0.000 C 
BRANCH  26  27
ATOM     27  O   UNL     1      -4.552  16.269  20.120  0.00  0.00    +0.000 OA
ATOM     28  H   UNL     1      -5.276  15.626  20.056  0.00  0.00    +0.000 HD
ENDBRANCH  26  27
ENDBRANCH  23  26
ENDBRANCH   1  23
TORSDOF 4
ENDMDL
