MODEL 1
REMARK VINA RESULT:      -7.4      0.000      0.000
REMARK  Name = 
REMARK  4 active torsions:
REMARK  status: ('A' for Active; 'I' for Inactive)
REMARK    1  A    between atoms: C_1  and  C_2
REMARK    2  A    between atoms: C_2  and  S_3
REMARK    3  A    between atoms: S_3  and  C_4
REMARK    4  A    between atoms: N_14  and  C_15
REMARK                            x       y       z     vdW  Elec       q    Type
REMARK                         _______ _______ _______ _____ _____    ______ ____
ROOT
ATOM      1  C   UNL     1       4.869   3.912  17.006  0.00  0.00    +0.000 A 
ATOM      2  N   UNL     1       3.859   3.100  16.996  0.00  0.00    +0.000 NA
ATOM      3  C   UNL     1       2.876   3.234  17.983  0.00  0.00    +0.000 A 
ATOM      4  C   UNL     1       1.792   2.354  17.994  0.00  0.00    +0.000 A 
ATOM      5  C   UNL     1       0.787   2.462  18.965  0.00  0.00    +0.000 A 
ATOM      6  C   UNL     1       0.859   3.456  19.938  0.00  0.00    +0.000 A 
ATOM      7  C   UNL     1       1.942   4.329  19.948  0.00  0.00    +0.000 A 
ATOM      8  C   UNL     1       2.945   4.204  18.977  0.00  0.00    +0.000 A 
ATOM      9  C   UNL     1       4.105   5.103  18.976  0.00  0.00    +0.000 A 
ATOM     10  O   UNL     1       4.158   5.961  19.862  0.00  0.00    +0.000 OA
ATOM     11  N   UNL     1       5.041   4.929  17.948  0.00  0.00    +0.000 N 
ENDROOT
BRANCH  11  12
ATOM     12  C   UNL     1       6.121   5.867  17.925  0.00  0.00    +0.000 A 
ATOM     13  C   UNL     1       7.216   5.679  18.784  0.00  0.00    +0.000 A 
ATOM     14  C   UNL     1       8.210   6.652  18.892  0.00  0.00    +0.000 A 
ATOM     15  C   UNL     1       8.118   7.822  18.147  0.00  0.00    +0.000 A 
ATOM     16  C   UNL     1       7.045   8.015  17.277  0.00  0.00    +0.000 A 
ATOM     17  C   UNL     1       6.047   7.039  17.162  0.00  0.00    +0.000 A 
ENDBRANCH  11  12
BRANCH   1  18
ATOM     18  S   UNL     1       6.157   3.611  15.834  0.00  0.00    +0.000 S 
BRANCH  18  20
ATOM     19  C   UNL     1       6.044   3.709  13.092  0.00  0.00    +0.000 C 
ATOM     20  C   UNL     1       5.486   4.387  14.337  0.00  0.00    +0.000 C 
ENDBRANCH  18  20
ENDBRANCH   1  18
TORSDOF 3
ENDMDL
MODEL 2
REMARK VINA RESULT:      -7.3      0.210      1.100
REMARK  Name = 
REMARK  4 active torsions:
REMARK  status: ('A' for Active; 'I' for Inactive)
REMARK    1  A    between atoms: C_1  and  C_2
REMARK    2  A    between atoms: C_2  and  S_3
REMARK    3  A    between atoms: S_3  and  C_4
REMARK    4  A    between atoms: N_14  and  C_15
REMARK                            x       y       z     vdW  Elec       q    Type
REMARK                         _______ _______ _______ _____ _____    ______ ____
ROOT
ATOM      1  C   UNL     1       4.832   3.923  17.122  0.00  0.00    +0.000 A 
ATOM      2  N   UNL     1       3.866   3.061  17.051  0.00  0.00    +0.000 NA
ATOM      3  C   UNL     1       2.836   3.121  17.997  0.00  0.00    +0.000 A 
ATOM      4  C   UNL     1       1.800   2.186  17.941  0.00  0.00    +0.000 A 
ATOM      5  C   UNL     1       0.751   2.219  18.869  0.00  0.00    +0.000 A 
ATOM      6  C   UNL     1       0.730   3.191  19.867  0.00  0.00    +0.000 A 
ATOM      7  C   UNL     1       1.765   4.117  19.944  0.00  0.00    +0.000 A 
ATOM      8  C   UNL     1       2.813   4.068  19.014  0.00  0.00    +0.000 A 
ATOM      9  C   UNL     1       3.924   5.024  19.085  0.00  0.00    +0.000 A 
ATOM     10  O   UNL     1       3.895   5.861  19.991  0.00  0.00    +0.000 OA
ATOM     11  N   UNL     1       4.910   4.924  18.095  0.00  0.00    +0.000 N 
ENDROOT
BRANCH  11  12
ATOM     12  C   UNL     1       5.940   5.915  18.139  0.00  0.00    +0.000 A 
ATOM     13  C   UNL     1       5.865   7.028  17.285  0.00  0.00    +0.000 A 
ATOM     14  C   UNL     1       6.924   7.930  17.198  0.00  0.00    +0.000 A 
ATOM     15  C   UNL     1       8.071   7.729  17.958  0.00  0.00    +0.000 A 
ATOM     16  C   UNL     1       8.153   6.638  18.823  0.00  0.00    +0.000 A 
ATOM     17  C   UNL     1       7.090   5.731  18.918  0.00  0.00    +0.000 A 
ENDBRANCH  11  12
BRANCH   1  18
ATOM     18  S   UNL     1       6.182   3.717  16.001  0.00  0.00    +0.000 S 
BRANCH  18  20
ATOM     19  C   UNL     1       6.000   3.734  13.261  0.00  0.00    +0.000 C 
ATOM     20  C   UNL     1       5.535   4.497  14.495  0.00  0.00    +0.000 C 
ENDBRANCH  18  20
ENDBRANCH   1  18
TORSDOF 3
ENDMDL
MODEL 3
REMARK VINA RESULT:      -7.1      2.641      5.968
REMARK  Name = 
REMARK  4 active torsions:
REMARK  status: ('A' for Active; 'I' for Inactive)
REMARK    1  A    between atoms: C_1  and  C_2
REMARK    2  A    between atoms: C_2  and  S_3
REMARK    3  A    between atoms: S_3  and  C_4
REMARK    4  A    between atoms: N_14  and  C_15
REMARK                            x       y       z     vdW  Elec       q    Type
REMARK                         _______ _______ _______ _____ _____    ______ ____
ROOT
ATOM      1  C   UNL     1       3.406   6.082  17.966  0.00  0.00    +0.000 A 
ATOM      2  N   UNL     1       4.126   6.561  17.000  0.00  0.00    +0.000 NA
ATOM      3  C   UNL     1       4.914   5.683  16.246  0.00  0.00    +0.000 A 
ATOM      4  C   UNL     1       5.707   6.190  15.214  0.00  0.00    +0.000 A 
ATOM      5  C   UNL     1       6.504   5.341  14.437  0.00  0.00    +0.000 A 
ATOM      6  C   UNL     1       6.517   3.970  14.686  0.00  0.00    +0.000 A 
ATOM      7  C   UNL     1       5.744   3.455  15.722  0.00  0.00    +0.000 A 
ATOM      8  C   UNL     1       4.957   4.317  16.499  0.00  0.00    +0.000 A 
ATOM      9  C   UNL     1       4.146   3.799  17.607  0.00  0.00    +0.000 A 
ATOM     10  O   UNL     1       4.191   2.585  17.823  0.00  0.00    +0.000 OA
ATOM     11  N   UNL     1       3.364   4.727  18.306  0.00  0.00    +0.000 N 
ENDROOT
BRANCH  11  12
ATOM     12  C   UNL     1       2.524   4.186  19.330  0.00  0.00    +0.000 A 
ATOM     13  C   UNL     1       3.009   4.099  20.646  0.00  0.00    +0.000 A 
ATOM     14  C   UNL     1       2.274   3.442  21.632  0.00  0.00    +0.000 A 
ATOM     15  C   UNL     1       1.051   2.861  21.315  0.00  0.00    +0.000 A 
ATOM     16  C   UNL     1       0.549   2.954  20.017  0.00  0.00    +0.000 A 
ATOM     17  C   UNL     1       1.281   3.617  19.023  0.00  0.00    +0.000 A 
ENDBRANCH  11  12
BRANCH   1  18
ATOM     18  S   UNL     1       2.545   7.242  18.983  0.00  0.00    +0.000 S 
BRANCH  18  20
ATOM     19  C   UNL     1       1.179   9.552  18.401  0.00  0.00    +0.000 C 
ATOM     20  C   UNL     1       2.175   8.569  17.800  0.00  0.00    +0.000 C 
ENDBRANCH  18  20
ENDBRANCH   1  18
TORSDOF 3
ENDMDL
MODEL 4
REMARK VINA RESULT:      -7.1      2.291      5.662
REMARK  Name = 
REMARK  4 active torsions:
REMARK  status: ('A' for Active; 'I' for Inactive)
REMARK    1  A    between atoms: C_1  and  C_2
REMARK    2  A    between atoms: C_2  and  S_3
REMARK    3  A    between atoms: S_3  and  C_4
REMARK    4  A    between atoms: N_14  and  C_15
REMARK                            x       y       z     vdW  Elec       q    Type
REMARK                         _______ _______ _______ _____ _____    ______ ____
ROOT
ATOM      1  C   UNL     1       6.799   5.752  16.669  0.00  0.00    +0.000 A 
ATOM      2  N   UNL     1       7.500   5.748  15.578  0.00  0.00    +0.000 NA
ATOM      3  C   UNL     1       7.030   5.024  14.476  0.00  0.00    +0.000 A 
ATOM      4  C   UNL     1       7.786   4.998  13.302  0.00  0.00    +0.000 A 
ATOM      5  C   UNL     1       7.344   4.287  12.179  0.00  0.00    +0.000 A 
ATOM      6  C   UNL     1       6.138   3.592  12.220  0.00  0.00    +0.000 A 
ATOM      7  C   UNL     1       5.384   3.596  13.390  0.00  0.00    +0.000 A 
ATOM      8  C   UNL     1       5.841   4.304  14.510  0.00  0.00    +0.000 A 
ATOM      9  C   UNL     1       5.072   4.311  15.760  0.00  0.00    +0.000 A 
ATOM     10  O   UNL     1       4.018   3.669  15.780  0.00  0.00    +0.000 OA
ATOM     11  N   UNL     1       5.586   5.073  16.816  0.00  0.00    +0.000 N 
ENDROOT
BRANCH  11  12
ATOM     12  C   UNL     1       4.779   5.126  17.996  0.00  0.00    +0.000 A 
ATOM     13  C   UNL     1       4.791   4.042  18.889  0.00  0.00    +0.000 A 
ATOM     14  C   UNL     1       3.906   3.998  19.966  0.00  0.00    +0.000 A 
ATOM     15  C   UNL     1       2.997   5.033  20.159  0.00  0.00    +0.000 A 
ATOM     16  C   UNL     1       2.986   6.123  19.290  0.00  0.00    +0.000 A 
ATOM     17  C   UNL     1       3.875   6.174  18.210  0.00  0.00    +0.000 A 
ENDBRANCH  11  12
BRANCH   1  18
ATOM     18  S   UNL     1       7.502   6.555  18.077  0.00  0.00    +0.000 S 
BRANCH  18  20
ATOM     19  C   UNL     1       8.542   9.071  18.430  0.00  0.00    +0.000 C 
ATOM     20  C   UNL     1       7.652   8.266  17.492  0.00  0.00    +0.000 C 
ENDBRANCH  18  20
ENDBRANCH   1  18
TORSDOF 3
ENDMDL
MODEL 5
REMARK VINA RESULT:      -6.9      2.641      6.064
REMARK  Name = 
REMARK  4 active torsions:
REMARK  status: ('A' for Active; 'I' for Inactive)
REMARK    1  A    between atoms: C_1  and  C_2
REMARK    2  A    between atoms: C_2  and  S_3
REMARK    3  A    between atoms: S_3  and  C_4
REMARK    4  A    between atoms: N_14  and  C_15
REMARK                            x       y       z     vdW  Elec       q    Type
REMARK                         _______ _______ _______ _____ _____    ______ ____
ROOT
ATOM      1  C   UNL     1       3.491   5.788  18.070  0.00  0.00    +0.000 A 
ATOM      2  N   UNL     1       4.157   6.350  17.110  0.00  0.00    +0.000 NA
ATOM      3  C   UNL     1       4.911   5.545  16.249  0.00  0.00    +0.000 A 
ATOM      4  C   UNL     1       5.647   6.141  15.223  0.00  0.00    +0.000 A 
ATOM      5  C   UNL     1       6.409   5.365  14.340  0.00  0.00    +0.000 A 
ATOM      6  C   UNL     1       6.442   3.979  14.477  0.00  0.00    +0.000 A 
ATOM      7  C   UNL     1       5.727   3.374  15.506  0.00  0.00    +0.000 A 
ATOM      8  C   UNL     1       4.975   4.163  16.388  0.00  0.00    +0.000 A 
ATOM      9  C   UNL     1       4.225   3.549  17.490  0.00  0.00    +0.000 A 
ATOM     10  O   UNL     1       4.289   2.322  17.605  0.00  0.00    +0.000 OA
ATOM     11  N   UNL     1       3.474   4.409  18.301  0.00  0.00    +0.000 N 
ENDROOT
BRANCH  11  12
ATOM     12  C   UNL     1       2.691   3.780  19.319  0.00  0.00    +0.000 A 
ATOM     13  C   UNL     1       1.320   3.567  19.102  0.00  0.00    +0.000 A 
ATOM     14  C   UNL     1       0.503   3.095  20.129  0.00  0.00    +0.000 A 
ATOM     15  C   UNL     1       1.045   2.836  21.383  0.00  0.00    +0.000 A 
ATOM     16  C   UNL     1       2.408   3.026  21.608  0.00  0.00    +0.000 A 
ATOM     17  C   UNL     1       3.234   3.496  20.579  0.00  0.00    +0.000 A 
ENDBRANCH  11  12
BRANCH   1  18
ATOM     18  S   UNL     1       2.676   6.854  19.219  0.00  0.00    +0.000 S 
BRANCH  18  20
ATOM     19  C   UNL     1       1.367   9.250  18.926  0.00  0.00    +0.000 C 
ATOM     20  C   UNL     1       2.284   8.290  18.180  0.00  0.00    +0.000 C 
ENDBRANCH  18  20
ENDBRANCH   1  18
TORSDOF 3
ENDMDL
MODEL 6
REMARK VINA RESULT:      -6.7      2.557      4.110
REMARK  Name = 
REMARK  4 active torsions:
REMARK  status: ('A' for Active; 'I' for Inactive)
REMARK    1  A    between atoms: C_1  and  C_2
REMARK    2  A    between atoms: C_2  and  S_3
REMARK    3  A    between atoms: S_3  and  C_4
REMARK    4  A    between atoms: N_14  and  C_15
REMARK                            x       y       z     vdW  Elec       q    Type
REMARK                         _______ _______ _______ _____ _____    ______ ____
ROOT
ATOM      1  C   UNL     1       3.694   4.695  19.167  0.00  0.00    +0.000 A 
ATOM      2  N   UNL     1       2.833   5.118  20.038  0.00  0.00    +0.000 NA
ATOM      3  C   UNL     1       2.312   6.410  19.902  0.00  0.00    +0.000 A 
ATOM      4  C   UNL     1       1.397   6.883  20.845  0.00  0.00    +0.000 A 
ATOM      5  C   UNL     1       0.853   8.169  20.736  0.00  0.00    +0.000 A 
ATOM      6  C   UNL     1       1.222   8.999  19.680  0.00  0.00    +0.000 A 
ATOM      7  C   UNL     1       2.146   8.545  18.743  0.00  0.00    +0.000 A 
ATOM      8  C   UNL     1       2.690   7.259  18.868  0.00  0.00    +0.000 A 
ATOM      9  C   UNL     1       3.677   6.765  17.901  0.00  0.00    +0.000 A 
ATOM     10  O   UNL     1       4.006   7.526  16.987  0.00  0.00    +0.000 OA
ATOM     11  N   UNL     1       4.141   5.456  18.083  0.00  0.00    +0.000 N 
ENDROOT
BRANCH  11  12
ATOM     12  C   UNL     1       5.043   4.971  17.084  0.00  0.00    +0.000 A 
ATOM     13  C   UNL     1       6.426   5.143  17.262  0.00  0.00    +0.000 A 
ATOM     14  C   UNL     1       7.320   4.817  16.242  0.00  0.00    +0.000 A 
ATOM     15  C   UNL     1       6.842   4.323  15.034  0.00  0.00    +0.000 A 
ATOM     16  C   UNL     1       5.473   4.131  14.849  0.00  0.00    +0.000 A 
ATOM     17  C   UNL     1       4.572   4.452  15.872  0.00  0.00    +0.000 A 
ENDBRANCH  11  12
BRANCH   1  18
ATOM     18  S   UNL     1       4.434   3.118  19.463  0.00  0.00    +0.000 S 
BRANCH  18  20
ATOM     19  C   UNL     1       2.446   2.267  17.770  0.00  0.00    +0.000 C 
ATOM     20  C   UNL     1       3.047   1.992  19.143  0.00  0.00    +0.000 C 
ENDBRANCH  18  20
ENDBRANCH   1  18
TORSDOF 3
ENDMDL
MODEL 7
REMARK VINA RESULT:      -6.6      2.361      5.801
REMARK  Name = 
REMARK  4 active torsions:
REMARK  status: ('A' for Active; 'I' for Inactive)
REMARK    1  A    between atoms: C_1  and  C_2
REMARK    2  A    between atoms: C_2  and  S_3
REMARK    3  A    between atoms: S_3  and  C_4
REMARK    4  A    between atoms: N_14  and  C_15
REMARK                            x       y       z     vdW  Elec       q    Type
REMARK                         _______ _______ _______ _____ _____    ______ ____
ROOT
ATOM      1  C   UNL     1       6.703   5.743  16.588  0.00  0.00    +0.000 A 
ATOM      2  N   UNL     1       7.461   5.768  15.536  0.00  0.00    +0.000 NA
ATOM      3  C   UNL     1       7.065   5.050  14.402  0.00  0.00    +0.000 A 
ATOM      4  C   UNL     1       7.882   5.055  13.269  0.00  0.00    +0.000 A 
ATOM      5  C   UNL     1       7.514   4.351  12.115  0.00  0.00    +0.000 A 
ATOM      6  C   UNL     1       6.321   3.632  12.083  0.00  0.00    +0.000 A 
ATOM      7  C   UNL     1       5.507   3.605  13.212  0.00  0.00    +0.000 A 
ATOM      8  C   UNL     1       5.891   4.307  14.363  0.00  0.00    +0.000 A 
ATOM      9  C   UNL     1       5.056   4.281  15.570  0.00  0.00    +0.000 A 
ATOM     10  O   UNL     1       4.016   3.619  15.526  0.00  0.00    +0.000 OA
ATOM     11  N   UNL     1       5.498   5.039  16.662  0.00  0.00    +0.000 N 
ENDROOT
BRANCH  11  12
ATOM     12  C   UNL     1       4.630   5.060  17.798  0.00  0.00    +0.000 A 
ATOM     13  C   UNL     1       3.770   6.154  17.989  0.00  0.00    +0.000 A 
ATOM     14  C   UNL     1       3.022   6.275  19.160  0.00  0.00    +0.000 A 
ATOM     15  C   UNL     1       3.130   5.309  20.154  0.00  0.00    +0.000 A 
ATOM     16  C   UNL     1       3.968   4.209  19.972  0.00  0.00    +0.000 A 
ATOM     17  C   UNL     1       4.717   4.080  18.795  0.00  0.00    +0.000 A 
ENDBRANCH  11  12
BRANCH   1  18
ATOM     18  S   UNL     1       7.315   6.540  18.042  0.00  0.00    +0.000 S 
BRANCH  18  20
ATOM     19  C   UNL     1       8.519   8.980  18.416  0.00  0.00    +0.000 C 
ATOM     20  C   UNL     1       7.629   8.223  17.438  0.00  0.00    +0.000 C 
ENDBRANCH  18  20
ENDBRANCH   1  18
TORSDOF 3
ENDMDL
MODEL 8
REMARK VINA RESULT:      -6.5      4.047      5.918
REMARK  Name = 
REMARK  4 active torsions:
REMARK  status: ('A' for Active; 'I' for Inactive)
REMARK    1  A    between atoms: C_1  and  C_2
REMARK    2  A    between atoms: C_2  and  S_3
REMARK    3  A    between atoms: S_3  and  C_4
REMARK    4  A    between atoms: N_14  and  C_15
REMARK                            x       y       z     vdW  Elec       q    Type
REMARK                         _______ _______ _______ _____ _____    ______ ____
ROOT
ATOM      1  C   UNL     1       2.010   6.530  20.220  0.00  0.00    +0.000 A 
ATOM      2  N   UNL     1       1.329   7.408  20.888  0.00  0.00    +0.000 NA
ATOM      3  C   UNL     1       1.099   8.664  20.313  0.00  0.00    +0.000 A 
ATOM      4  C   UNL     1       0.383   9.624  21.031  0.00  0.00    +0.000 A 
ATOM      5  C   UNL     1       0.131  10.889  20.484  0.00  0.00    +0.000 A 
ATOM      6  C   UNL     1       0.596  11.207  19.210  0.00  0.00    +0.000 A 
ATOM      7  C   UNL     1       1.326  10.265  18.493  0.00  0.00    +0.000 A 
ATOM      8  C   UNL     1       1.579   9.005  19.054  0.00  0.00    +0.000 A 
ATOM      9  C   UNL     1       2.360   8.001  18.322  0.00  0.00    +0.000 A 
ATOM     10  O   UNL     1       2.781   8.313  17.206  0.00  0.00    +0.000 OA
ATOM     11  N   UNL     1       2.534   6.758  18.945  0.00  0.00    +0.000 N 
ENDROOT
BRANCH  11  12
ATOM     12  C   UNL     1       3.231   5.771  18.179  0.00  0.00    +0.000 A 
ATOM     13  C   UNL     1       2.508   4.730  17.574  0.00  0.00    +0.000 A 
ATOM     14  C   UNL     1       3.171   3.673  16.951  0.00  0.00    +0.000 A 
ATOM     15  C   UNL     1       4.561   3.642  16.930  0.00  0.00    +0.000 A 
ATOM     16  C   UNL     1       5.292   4.677  17.512  0.00  0.00    +0.000 A 
ATOM     17  C   UNL     1       4.631   5.743  18.136  0.00  0.00    +0.000 A 
ENDBRANCH  11  12
BRANCH   1  18
ATOM     18  S   UNL     1       2.402   5.017  21.044  0.00  0.00    +0.000 S 
BRANCH  18  20
ATOM     19  C   UNL     1       1.462   2.538  20.328  0.00  0.00    +0.000 C 
ATOM     20  C   UNL     1       0.997   3.966  20.578  0.00  0.00    +0.000 C 
ENDBRANCH  18  20
ENDBRANCH   1  18
TORSDOF 3
ENDMDL
MODEL 9
REMARK VINA RESULT:      -6.5      2.838      4.360
REMARK  Name = 
REMARK  4 active torsions:
REMARK  status: ('A' for Active; 'I' for Inactive)
REMARK    1  A    between atoms: C_1  and  C_2
REMARK    2  A    between atoms: C_2  and  S_3
REMARK    3  A    between atoms: S_3  and  C_4
REMARK    4  A    between atoms: N_14  and  C_15
REMARK                            x       y       z     vdW  Elec       q    Type
REMARK                         _______ _______ _______ _____ _____    ______ ____
ROOT
ATOM      1  C   UNL     1       3.779   5.303  19.114  0.00  0.00    +0.000 A 
ATOM      2  N   UNL     1       2.944   5.718  20.015  0.00  0.00    +0.000 NA
ATOM      3  C   UNL     1       2.295   6.944  19.821  0.00  0.00    +0.000 A 
ATOM      4  C   UNL     1       1.408   7.410  20.793  0.00  0.00    +0.000 A 
ATOM      5  C   UNL     1       0.738   8.629  20.629  0.00  0.00    +0.000 A 
ATOM      6  C   UNL     1       0.952   9.398  19.487  0.00  0.00    +0.000 A 
ATOM      7  C   UNL     1       1.848   8.953  18.519  0.00  0.00    +0.000 A 
ATOM      8  C   UNL     1       2.518   7.734  18.699  0.00  0.00    +0.000 A 
ATOM      9  C   UNL     1       3.478   7.251  17.700  0.00  0.00    +0.000 A 
ATOM     10  O   UNL     1       3.669   7.960  16.708  0.00  0.00    +0.000 OA
ATOM     11  N   UNL     1       4.075   6.008  17.944  0.00  0.00    +0.000 N 
ENDROOT
BRANCH  11  12
ATOM     12  C   UNL     1       4.947   5.524  16.919  0.00  0.00    +0.000 A 
ATOM     13  C   UNL     1       4.483   4.549  16.021  0.00  0.00    +0.000 A 
ATOM     14  C   UNL     1       5.351   3.950  15.110  0.00  0.00    +0.000 A 
ATOM     15  C   UNL     1       6.693   4.314  15.089  0.00  0.00    +0.000 A 
ATOM     16  C   UNL     1       7.166   5.292  15.964  0.00  0.00    +0.000 A 
ATOM     17  C   UNL     1       6.296   5.900  16.878  0.00  0.00    +0.000 A 
ENDBRANCH  11  12
BRANCH   1  18
ATOM     18  S   UNL     1       4.683   3.828  19.472  0.00  0.00    +0.000 S 
BRANCH  18  20
ATOM     19  C   UNL     1       3.477   1.701  18.221  0.00  0.00    +0.000 C 
ATOM     20  C   UNL     1       3.369   2.576  19.463  0.00  0.00    +0.000 C 
ENDBRANCH  18  20
ENDBRANCH   1  18
TORSDOF 3
ENDMDL
