MODEL 1
REMARK VINA RESULT:      -8.2      0.000      0.000
REMARK  Name = 
REMARK  7 active torsions:
REMARK  status: ('A' for Active; 'I' for Inactive)
REMARK    1  A    between atoms: C_1  and  C_2
REMARK    2  A    between atoms: C_2  and  O_3
REMARK    3  A    between atoms: O_3  and  C_4
REMARK    4  A    between atoms: C_4  and  C_6
REMARK    5  A    between atoms: C_10  and  C_11
REMARK    6  A    between atoms: N_14  and  C_15
REMARK    7  A    between atoms: C_15  and  C_16
REMARK                            x       y       z     vdW  Elec       q    Type
REMARK                         _______ _______ _______ _____ _____    ______ ____
ROOT
ATOM      1  C   UNL     1      -0.812  11.316  21.875  0.00  0.00    +0.000 A 
ATOM      2  O   UNL     1      -0.833  11.660  20.537  0.00  0.00    +0.000 OA
ATOM      3  C   UNL     1      -0.137  10.689  19.893  0.00  0.00    +0.000 A 
ATOM      4  C   UNL     1       0.312   9.745  20.782  0.00  0.00    +0.000 A 
ATOM      5  C   UNL     1      -0.120  10.117  22.062  0.00  0.00    +0.000 A 
ATOM      6  C   UNL     1       0.089   9.420  23.356  0.00  0.00    +0.000 C 
ATOM      7  C   UNL     1       1.108   8.641  20.299  0.00  0.00    +0.000 A 
ATOM      8  N   UNL     1       1.501   7.557  20.956  0.00  0.00    +0.000 NA
ATOM      9  N   UNL     1       2.228   6.886  20.037  0.00  0.00    +0.000 N 
ATOM     10  C   UNL     1       2.301   7.531  18.823  0.00  0.00    +0.000 A 
ATOM     11  C   UNL     1       1.574   8.693  18.960  0.00  0.00    +0.000 A 
ATOM     12  C   UNL     1       1.330   9.863  18.041  0.00  0.00    +0.000 C 
ATOM     13  C   UNL     1       0.051  10.681  18.412  0.00  0.00    +0.000 C 
ENDROOT
BRANCH   1  14
ATOM     14  C   UNL     1      -1.481  12.129  22.871  0.00  0.00    +0.000 C 
ATOM     15  O   UNL     1      -0.982  13.113  23.409  0.00  0.00    +0.000 OA
BRANCH  14  16
ATOM     16  O   UNL     1      -2.701  11.617  23.192  0.00  0.00    +0.000 OA
BRANCH  16  18
ATOM     17  C   UNL     1      -4.312  12.537  24.698  0.00  0.00    +0.000 C 
ATOM     18  C   UNL     1      -3.738  12.606  23.295  0.00  0.00    +0.000 C 
ENDBRANCH  16  18
ENDBRANCH  14  16
ENDBRANCH   1  14
BRANCH   9  19
ATOM     19  C   UNL     1       2.902   5.653  20.425  0.00  0.00    +0.000 C 
BRANCH  19  20
ATOM     20  C   UNL     1       2.675   4.567  19.412  0.00  0.00    +0.000 A 
ATOM     21  C   UNL     1       1.470   3.856  19.452  0.00  0.00    +0.000 A 
ATOM     22  F   UNL     1       0.526   4.202  20.339  0.00  0.00    +0.000 F 
ATOM     23  C   UNL     1       1.213   2.791  18.593  0.00  0.00    +0.000 A 
ATOM     24  C   UNL     1       2.176   2.407  17.666  0.00  0.00    +0.000 A 
ATOM     25  C   UNL     1       3.379   3.109  17.595  0.00  0.00    +0.000 A 
ATOM     26  C   UNL     1       3.627   4.185  18.457  0.00  0.00    +0.000 A 
ATOM     27 CL   UNL     1       5.127   5.018  18.265  0.00  0.00    +0.000 Cl
ENDBRANCH  19  20
ENDBRANCH   9  19
TORSDOF 5
ENDMDL
MODEL 2
REMARK VINA RESULT:      -7.9      0.964      1.550
REMARK  Name = 
REMARK  7 active torsions:
REMARK  status: ('A' for Active; 'I' for Inactive)
REMARK    1  A    between atoms: C_1  and  C_2
REMARK    2  A    between atoms: C_2  and  O_3
REMARK    3  A    between atoms: O_3  and  C_4
REMARK    4  A    between atoms: C_4  and  C_6
REMARK    5  A    between atoms: C_10  and  C_11
REMARK    6  A    between atoms: N_14  and  C_15
REMARK    7  A    between atoms: C_15  and  C_16
REMARK                            x       y       z     vdW  Elec       q    Type
REMARK                         _______ _______ _______ _____ _____    ______ ____
ROOT
ATOM      1  C   UNL     1      -0.579  11.338  21.600  0.00  0.00    +0.000 A 
ATOM      2  O   UNL     1      -0.471  11.641  20.256  0.00  0.00    +0.000 OA
ATOM      3  C   UNL     1       0.194  10.600  19.693  0.00  0.00    +0.000 A 
ATOM      4  C   UNL     1       0.500   9.654  20.638  0.00  0.00    +0.000 A 
ATOM      5  C   UNL     1       0.002  10.097  21.871  0.00  0.00    +0.000 A 
ATOM      6  C   UNL     1       0.058   9.428  23.194  0.00  0.00    +0.000 C 
ATOM      7  C   UNL     1       1.242   8.478  20.247  0.00  0.00    +0.000 A 
ATOM      8  N   UNL     1       1.499   7.389  20.960  0.00  0.00    +0.000 NA
ATOM      9  N   UNL     1       2.238   6.636  20.118  0.00  0.00    +0.000 N 
ATOM     10  C   UNL     1       2.453   7.235  18.897  0.00  0.00    +0.000 A 
ATOM     11  C   UNL     1       1.810   8.452  18.947  0.00  0.00    +0.000 A 
ATOM     12  C   UNL     1       1.728   9.608  17.983  0.00  0.00    +0.000 C 
ATOM     13  C   UNL     1       0.492  10.531  18.232  0.00  0.00    +0.000 C 
ENDROOT
BRANCH   1  14
ATOM     14  C   UNL     1      -1.256  12.231  22.519  0.00  0.00    +0.000 C 
ATOM     15  O   UNL     1      -2.474  12.278  22.668  0.00  0.00    +0.000 OA
BRANCH  14  16
ATOM     16  O   UNL     1      -0.377  13.066  23.138  0.00  0.00    +0.000 OA
BRANCH  16  18
ATOM     17  C   UNL     1       0.606  14.869  21.917  0.00  0.00    +0.000 C 
ATOM     18  C   UNL     1      -0.555  14.451  22.800  0.00  0.00    +0.000 C 
ENDBRANCH  16  18
ENDBRANCH  14  16
ENDBRANCH   1  14
BRANCH   9  19
ATOM     19  C   UNL     1       2.784   5.369  20.589  0.00  0.00    +0.000 C 
BRANCH  19  20
ATOM     20  C   UNL     1       2.662   4.301  19.539  0.00  0.00    +0.000 A 
ATOM     21  C   UNL     1       1.445   3.621  19.413  0.00  0.00    +0.000 A 
ATOM     22  F   UNL     1       0.404   3.981  20.177  0.00  0.00    +0.000 F 
ATOM     23  C   UNL     1       1.275   2.574  18.512  0.00  0.00    +0.000 A 
ATOM     24  C   UNL     1       2.340   2.176  17.711  0.00  0.00    +0.000 A 
ATOM     25  C   UNL     1       3.558   2.847  17.805  0.00  0.00    +0.000 A 
ATOM     26  C   UNL     1       3.720   3.906  18.708  0.00  0.00    +0.000 A 
ATOM     27 CL   UNL     1       5.252   4.702  18.722  0.00  0.00    +0.000 Cl
ENDBRANCH  19  20
ENDBRANCH   9  19
TORSDOF 5
ENDMDL
MODEL 3
REMARK VINA RESULT:      -7.6      0.864      1.037
REMARK  Name = 
REMARK  7 active torsions:
REMARK  status: ('A' for Active; 'I' for Inactive)
REMARK    1  A    between atoms: C_1  and  C_2
REMARK    2  A    between atoms: C_2  and  O_3
REMARK    3  A    between atoms: O_3  and  C_4
REMARK    4  A    between atoms: C_4  and  C_6
REMARK    5  A    between atoms: C_10  and  C_11
REMARK    6  A    between atoms: N_14  and  C_15
REMARK    7  A    between atoms: C_15  and  C_16
REMARK                            x       y       z     vdW  Elec       q    Type
REMARK                         _______ _______ _______ _____ _____    ______ ____
ROOT
ATOM      1  C   UNL     1      -0.635  11.359  21.371  0.00  0.00    +0.000 A 
ATOM      2  O   UNL     1      -0.434  11.643  20.034  0.00  0.00    +0.000 OA
ATOM      3  C   UNL     1       0.253  10.587  19.529  0.00  0.00    +0.000 A 
ATOM      4  C   UNL     1       0.481   9.648  20.503  0.00  0.00    +0.000 A 
ATOM      5  C   UNL     1      -0.091  10.114  21.695  0.00  0.00    +0.000 A 
ATOM      6  C   UNL     1      -0.133   9.461  23.027  0.00  0.00    +0.000 C 
ATOM      7  C   UNL     1       1.232   8.458  20.177  0.00  0.00    +0.000 A 
ATOM      8  N   UNL     1       1.425   7.375  20.919  0.00  0.00    +0.000 NA
ATOM      9  N   UNL     1       2.208   6.601  20.137  0.00  0.00    +0.000 N 
ATOM     10  C   UNL     1       2.513   7.182  18.926  0.00  0.00    +0.000 A 
ATOM     11  C   UNL     1       1.885   8.409  18.919  0.00  0.00    +0.000 A 
ATOM     12  C   UNL     1       1.884   9.553  17.937  0.00  0.00    +0.000 C 
ATOM     13  C   UNL     1       0.647  10.495  18.092  0.00  0.00    +0.000 C 
ENDROOT
BRANCH   1  14
ATOM     14  C   UNL     1      -1.360  12.272  22.232  0.00  0.00    +0.000 C 
ATOM     15  O   UNL     1      -1.238  12.315  23.453  0.00  0.00    +0.000 OA
BRANCH  14  16
ATOM     16  O   UNL     1      -2.251  13.019  21.526  0.00  0.00    +0.000 OA
BRANCH  16  18
ATOM     17  C   UNL     1      -4.464  12.679  20.692  0.00  0.00    +0.000 C 
ATOM     18  C   UNL     1      -3.615  12.841  21.939  0.00  0.00    +0.000 C 
ENDBRANCH  16  18
ENDBRANCH  14  16
ENDBRANCH   1  14
BRANCH   9  19
ATOM     19  C   UNL     1       2.703   5.334  20.658  0.00  0.00    +0.000 C 
BRANCH  19  20
ATOM     20  C   UNL     1       2.623   4.250  19.620  0.00  0.00    +0.000 A 
ATOM     21  C   UNL     1       1.401   3.597  19.427  0.00  0.00    +0.000 A 
ATOM     22  F   UNL     1       0.322   3.995  20.116  0.00  0.00    +0.000 F 
ATOM     23  C   UNL     1       1.262   2.539  18.534  0.00  0.00    +0.000 A 
ATOM     24  C   UNL     1       2.366   2.102  17.809  0.00  0.00    +0.000 A 
ATOM     25  C   UNL     1       3.593   2.745  17.971  0.00  0.00    +0.000 A 
ATOM     26  C   UNL     1       3.722   3.816  18.865  0.00  0.00    +0.000 A 
ATOM     27 CL   UNL     1       5.269   4.576  18.966  0.00  0.00    +0.000 Cl
ENDBRANCH  19  20
ENDBRANCH   9  19
TORSDOF 5
ENDMDL
MODEL 4
REMARK VINA RESULT:      -7.6      1.471      1.773
REMARK  Name = 
REMARK  7 active torsions:
REMARK  status: ('A' for Active; 'I' for Inactive)
REMARK    1  A    between atoms: C_1  and  C_2
REMARK    2  A    between atoms: C_2  and  O_3
REMARK    3  A    between atoms: O_3  and  C_4
REMARK    4  A    between atoms: C_4  and  C_6
REMARK    5  A    between atoms: C_10  and  C_11
REMARK    6  A    between atoms: N_14  and  C_15
REMARK    7  A    between atoms: C_15  and  C_16
REMARK                            x       y       z     vdW  Elec       q    Type
REMARK                         _______ _______ _______ _____ _____    ______ ____
ROOT
ATOM      1  C   UNL     1      -0.551  11.440  21.694  0.00  0.00    +0.000 A 
ATOM      2  O   UNL     1      -0.387  11.775  20.363  0.00  0.00    +0.000 OA
ATOM      3  C   UNL     1       0.247  10.720  19.791  0.00  0.00    +0.000 A 
ATOM      4  C   UNL     1       0.480   9.735  20.717  0.00  0.00    +0.000 A 
ATOM      5  C   UNL     1      -0.036  10.167  21.946  0.00  0.00    +0.000 A 
ATOM      6  C   UNL     1      -0.052   9.459  23.251  0.00  0.00    +0.000 C 
ATOM      7  C   UNL     1       1.180   8.537  20.314  0.00  0.00    +0.000 A 
ATOM      8  N   UNL     1       1.365   7.418  21.003  0.00  0.00    +0.000 NA
ATOM      9  N   UNL     1       2.095   6.655  20.163  0.00  0.00    +0.000 N 
ATOM     10  C   UNL     1       2.376   7.277  18.967  0.00  0.00    +0.000 A 
ATOM     11  C   UNL     1       1.788   8.521  19.033  0.00  0.00    +0.000 A 
ATOM     12  C   UNL     1       1.789   9.705  18.100  0.00  0.00    +0.000 C 
ATOM     13  C   UNL     1       0.589  10.677  18.338  0.00  0.00    +0.000 C 
ENDROOT
BRANCH   1  14
ATOM     14  C   UNL     1      -1.215  12.338  22.618  0.00  0.00    +0.000 C 
ATOM     15  O   UNL     1      -0.633  13.040  23.440  0.00  0.00    +0.000 OA
BRANCH  14  16
ATOM     16  O   UNL     1      -2.569  12.243  22.515  0.00  0.00    +0.000 OA
BRANCH  16  18
ATOM     17  C   UNL     1      -4.194  13.386  23.843  0.00  0.00    +0.000 C 
ATOM     18  C   UNL     1      -3.247  12.201  23.780  0.00  0.00    +0.000 C 
ENDBRANCH  16  18
ENDBRANCH  14  16
ENDBRANCH   1  14
BRANCH   9  19
ATOM     19  C   UNL     1       2.568   5.352  20.613  0.00  0.00    +0.000 C 
BRANCH  19  20
ATOM     20  C   UNL     1       3.041   4.516  19.458  0.00  0.00    +0.000 A 
ATOM     21  C   UNL     1       4.345   4.703  18.985  0.00  0.00    +0.000 A 
ATOM     22  F   UNL     1       5.158   5.566  19.611  0.00  0.00    +0.000 F 
ATOM     23  C   UNL     1       4.834   4.017  17.877  0.00  0.00    +0.000 A 
ATOM     24  C   UNL     1       4.011   3.119  17.206  0.00  0.00    +0.000 A 
ATOM     25  C   UNL     1       2.712   2.902  17.665  0.00  0.00    +0.000 A 
ATOM     26  C   UNL     1       2.230   3.590  18.786  0.00  0.00    +0.000 A 
ATOM     27 CL   UNL     1       0.624   3.223  19.304  0.00  0.00    +0.000 Cl
ENDBRANCH  19  20
ENDBRANCH   9  19
TORSDOF 5
ENDMDL
MODEL 5
REMARK VINA RESULT:      -7.6      1.785      2.361
REMARK  Name = 
REMARK  7 active torsions:
REMARK  status: ('A' for Active; 'I' for Inactive)
REMARK    1  A    between atoms: C_1  and  C_2
REMARK    2  A    between atoms: C_2  and  O_3
REMARK    3  A    between atoms: O_3  and  C_4
REMARK    4  A    between atoms: C_4  and  C_6
REMARK    5  A    between atoms: C_10  and  C_11
REMARK    6  A    between atoms: N_14  and  C_15
REMARK    7  A    between atoms: C_15  and  C_16
REMARK                            x       y       z     vdW  Elec       q    Type
REMARK                         _______ _______ _______ _____ _____    ______ ____
ROOT
ATOM      1  C   UNL     1      -0.565  11.191  21.844  0.00  0.00    +0.000 A 
ATOM      2  O   UNL     1      -0.587  11.592  20.522  0.00  0.00    +0.000 OA
ATOM      3  C   UNL     1       0.086  10.635  19.833  0.00  0.00    +0.000 A 
ATOM      4  C   UNL     1       0.522   9.646  20.679  0.00  0.00    +0.000 A 
ATOM      5  C   UNL     1       0.105   9.973  21.976  0.00  0.00    +0.000 A 
ATOM      6  C   UNL     1       0.309   9.218  23.239  0.00  0.00    +0.000 C 
ATOM      7  C   UNL     1       1.294   8.548  20.144  0.00  0.00    +0.000 A 
ATOM      8  N   UNL     1       1.670   7.431  20.753  0.00  0.00    +0.000 NA
ATOM      9  N   UNL     1       2.378   6.784  19.802  0.00  0.00    +0.000 N 
ATOM     10  C   UNL     1       2.457   7.478  18.615  0.00  0.00    +0.000 A 
ATOM     11  C   UNL     1       1.753   8.647  18.806  0.00  0.00    +0.000 A 
ATOM     12  C   UNL     1       1.526   9.859  17.939  0.00  0.00    +0.000 C 
ATOM     13  C   UNL     1       0.266  10.685  18.352  0.00  0.00    +0.000 C 
ENDROOT
BRANCH   1  14
ATOM     14  C   UNL     1      -1.212  11.975  22.877  0.00  0.00    +0.000 C 
ATOM     15  O   UNL     1      -2.353  11.776  23.284  0.00  0.00    +0.000 OA
BRANCH  14  16
ATOM     16  O   UNL     1      -0.425  13.008  23.283  0.00  0.00    +0.000 OA
BRANCH  16  18
ATOM     17  C   UNL     1      -0.380  15.204  22.343  0.00  0.00    +0.000 C 
ATOM     18  C   UNL     1      -1.098  14.277  23.306  0.00  0.00    +0.000 C 
ENDBRANCH  16  18
ENDBRANCH  14  16
ENDBRANCH   1  14
BRANCH   9  19
ATOM     19  C   UNL     1       3.030   5.524  20.134  0.00  0.00    +0.000 C 
BRANCH  19  20
ATOM     20  C   UNL     1       3.692   4.921  18.928  0.00  0.00    +0.000 A 
ATOM     21  C   UNL     1       5.077   5.060  18.784  0.00  0.00    +0.000 A 
ATOM     22  F   UNL     1       5.785   5.664  19.750  0.00  0.00    +0.000 F 
ATOM     23  C   UNL     1       5.755   4.590  17.663  0.00  0.00    +0.000 A 
ATOM     24  C   UNL     1       5.044   3.964  16.643  0.00  0.00    +0.000 A 
ATOM     25  C   UNL     1       3.666   3.798  16.768  0.00  0.00    +0.000 A 
ATOM     26  C   UNL     1       2.992   4.267  17.904  0.00  0.00    +0.000 A 
ATOM     27 CL   UNL     1       1.293   3.977  17.988  0.00  0.00    +0.000 Cl
ENDBRANCH  19  20
ENDBRANCH   9  19
TORSDOF 5
ENDMDL
MODEL 6
REMARK VINA RESULT:      -7.5      4.731      8.320
REMARK  Name = 
REMARK  7 active torsions:
REMARK  status: ('A' for Active; 'I' for Inactive)
REMARK    1  A    between atoms: C_1  and  C_2
REMARK    2  A    between atoms: C_2  and  O_3
REMARK    3  A    between atoms: O_3  and  C_4
REMARK    4  A    between atoms: C_4  and  C_6
REMARK    5  A    between atoms: C_10  and  C_11
REMARK    6  A    between atoms: N_14  and  C_15
REMARK    7  A    between atoms: C_15  and  C_16
REMARK                            x       y       z     vdW  Elec       q    Type
REMARK                         _______ _______ _______ _____ _____    ______ ____
ROOT
ATOM      1  C   UNL     1       3.799   3.902  19.431  0.00  0.00    +0.000 A 
ATOM      2  O   UNL     1       4.476   4.455  18.360  0.00  0.00    +0.000 OA
ATOM      3  C   UNL     1       4.014   5.726  18.245  0.00  0.00    +0.000 A 
ATOM      4  C   UNL     1       3.076   5.989  19.212  0.00  0.00    +0.000 A 
ATOM      5  C   UNL     1       2.929   4.837  19.997  0.00  0.00    +0.000 A 
ATOM      6  C   UNL     1       2.054   4.617  21.176  0.00  0.00    +0.000 C 
ATOM      7  C   UNL     1       2.433   7.283  19.240  0.00  0.00    +0.000 A 
ATOM      8  N   UNL     1       1.629   7.785  20.169  0.00  0.00    +0.000 NA
ATOM      9  N   UNL     1       1.310   9.000  19.677  0.00  0.00    +0.000 N 
ATOM     10  C   UNL     1       1.892   9.264  18.457  0.00  0.00    +0.000 A 
ATOM     11  C   UNL     1       2.640   8.152  18.139  0.00  0.00    +0.000 A 
ATOM     12  C   UNL     1       3.444   7.772  16.921  0.00  0.00    +0.000 C 
ATOM     13  C   UNL     1       4.519   6.676  17.211  0.00  0.00    +0.000 C 
ENDROOT
BRANCH   1  14
ATOM     14  C   UNL     1       4.054   2.541  19.859  0.00  0.00    +0.000 C 
ATOM     15  O   UNL     1       5.102   2.164  20.376  0.00  0.00    +0.000 OA
BRANCH  14  16
ATOM     16  O   UNL     1       3.017   1.719  19.543  0.00  0.00    +0.000 OA
BRANCH  16  18
ATOM     17  C   UNL     1       0.852   2.188  18.649  0.00  0.00    +0.000 C 
ATOM     18  C   UNL     1       2.332   2.083  18.335  0.00  0.00    +0.000 C 
ENDBRANCH  16  18
ENDBRANCH  14  16
ENDBRANCH   1  14
BRANCH   9  19
ATOM     19  C   UNL     1       0.360   9.835  20.401  0.00  0.00    +0.000 C 
BRANCH  19  20
ATOM     20  C   UNL     1       0.102  11.124  19.673  0.00  0.00    +0.000 A 
ATOM     21  C   UNL     1       0.855  12.251  20.021  0.00  0.00    +0.000 A 
ATOM     22  F   UNL     1       1.827  12.140  20.939  0.00  0.00    +0.000 F 
ATOM     23  C   UNL     1       0.631  13.497  19.443  0.00  0.00    +0.000 A 
ATOM     24  C   UNL     1      -0.374  13.641  18.492  0.00  0.00    +0.000 A 
ATOM     25  C   UNL     1      -1.129  12.531  18.115  0.00  0.00    +0.000 A 
ATOM     26  C   UNL     1      -0.891  11.279  18.696  0.00  0.00    +0.000 A 
ATOM     27 CL   UNL     1      -1.847   9.956  18.135  0.00  0.00    +0.000 Cl
ENDBRANCH  19  20
ENDBRANCH   9  19
TORSDOF 5
ENDMDL
MODEL 7
REMARK VINA RESULT:      -7.5      4.576      8.753
REMARK  Name = 
REMARK  7 active torsions:
REMARK  status: ('A' for Active; 'I' for Inactive)
REMARK    1  A    between atoms: C_1  and  C_2
REMARK    2  A    between atoms: C_2  and  O_3
REMARK    3  A    between atoms: O_3  and  C_4
REMARK    4  A    between atoms: C_4  and  C_6
REMARK    5  A    between atoms: C_10  and  C_11
REMARK    6  A    between atoms: N_14  and  C_15
REMARK    7  A    between atoms: C_15  and  C_16
REMARK                            x       y       z     vdW  Elec       q    Type
REMARK                         _______ _______ _______ _____ _____    ______ ____
ROOT
ATOM      1  C   UNL     1       4.427   4.972  18.079  0.00  0.00    +0.000 A 
ATOM      2  O   UNL     1       3.696   4.460  19.135  0.00  0.00    +0.000 OA
ATOM      3  C   UNL     1       2.852   5.452  19.516  0.00  0.00    +0.000 A 
ATOM      4  C   UNL     1       3.025   6.564  18.732  0.00  0.00    +0.000 A 
ATOM      5  C   UNL     1       4.023   6.277  17.790  0.00  0.00    +0.000 A 
ATOM      6  C   UNL     1       4.561   7.140  16.709  0.00  0.00    +0.000 C 
ATOM      7  C   UNL     1       2.242   7.748  19.000  0.00  0.00    +0.000 A 
ATOM      8  N   UNL     1       2.146   8.855  18.275  0.00  0.00    +0.000 NA
ATOM      9  N   UNL     1       1.307   9.626  19.000  0.00  0.00    +0.000 N 
ATOM     10  C   UNL     1       0.884   9.026  20.165  0.00  0.00    +0.000 A 
ATOM     11  C   UNL     1       1.482   7.785  20.197  0.00  0.00    +0.000 A 
ATOM     12  C   UNL     1       1.497   6.682  21.224  0.00  0.00    +0.000 C 
ATOM     13  C   UNL     1       1.865   5.287  20.624  0.00  0.00    +0.000 C 
ENDROOT
BRANCH   1  14
ATOM     14  C   UNL     1       5.428   4.173  17.401  0.00  0.00    +0.000 C 
ATOM     15  O   UNL     1       5.259   3.629  16.313  0.00  0.00    +0.000 OA
BRANCH  14  16
ATOM     16  O   UNL     1       6.550   4.034  18.159  0.00  0.00    +0.000 OA
BRANCH  16  18
ATOM     17  C   UNL     1       7.813   5.912  18.924  0.00  0.00    +0.000 C 
ATOM     18  C   UNL     1       7.615   4.925  17.790  0.00  0.00    +0.000 C 
ENDBRANCH  16  18
ENDBRANCH  14  16
ENDBRANCH   1  14
BRANCH   9  19
ATOM     19  C   UNL     1       1.018  10.982  18.549  0.00  0.00    +0.000 C 
BRANCH  19  20
ATOM     20  C   UNL     1      -0.395  11.374  18.877  0.00  0.00    +0.000 A 
ATOM     21  C   UNL     1      -1.433  10.851  18.097  0.00  0.00    +0.000 A 
ATOM     22  F   UNL     1      -1.153   9.967  17.128  0.00  0.00    +0.000 F 
ATOM     23  C   UNL     1      -2.761  11.219  18.293  0.00  0.00    +0.000 A 
ATOM     24  C   UNL     1      -3.080  12.137  19.288  0.00  0.00    +0.000 A 
ATOM     25  C   UNL     1      -2.067  12.661  20.090  0.00  0.00    +0.000 A 
ATOM     26  C   UNL     1      -0.734  12.280  19.892  0.00  0.00    +0.000 A 
ATOM     27 CL   UNL     1       0.444  12.950  20.961  0.00  0.00    +0.000 Cl
ENDBRANCH  19  20
ENDBRANCH   9  19
TORSDOF 5
ENDMDL
MODEL 8
REMARK VINA RESULT:      -7.4      1.737      2.030
REMARK  Name = 
REMARK  7 active torsions:
REMARK  status: ('A' for Active; 'I' for Inactive)
REMARK    1  A    between atoms: C_1  and  C_2
REMARK    2  A    between atoms: C_2  and  O_3
REMARK    3  A    between atoms: O_3  and  C_4
REMARK    4  A    between atoms: C_4  and  C_6
REMARK    5  A    between atoms: C_10  and  C_11
REMARK    6  A    between atoms: N_14  and  C_15
REMARK    7  A    between atoms: C_15  and  C_16
REMARK                            x       y       z     vdW  Elec       q    Type
REMARK                         _______ _______ _______ _____ _____    ______ ____
ROOT
ATOM      1  C   UNL     1      -0.297  10.883  21.621  0.00  0.00    +0.000 A 
ATOM      2  O   UNL     1      -0.491  11.239  20.300  0.00  0.00    +0.000 OA
ATOM      3  C   UNL     1       0.208  10.337  19.566  0.00  0.00    +0.000 A 
ATOM      4  C   UNL     1       0.828   9.425  20.383  0.00  0.00    +0.000 A 
ATOM      5  C   UNL     1       0.508   9.745  21.709  0.00  0.00    +0.000 A 
ATOM      6  C   UNL     1       0.914   9.055  22.959  0.00  0.00    +0.000 C 
ATOM      7  C   UNL     1       1.656   8.397  19.796  0.00  0.00    +0.000 A 
ATOM      8  N   UNL     1       2.207   7.343  20.385  0.00  0.00    +0.000 NA
ATOM      9  N   UNL     1       2.882   6.745  19.381  0.00  0.00    +0.000 N 
ATOM     10  C   UNL     1       2.770   7.407  18.179  0.00  0.00    +0.000 A 
ATOM     11  C   UNL     1       1.968   8.502  18.416  0.00  0.00    +0.000 A 
ATOM     12  C   UNL     1       1.530   9.657  17.552  0.00  0.00    +0.000 C 
ATOM     13  C   UNL     1       0.235  10.360  18.074  0.00  0.00    +0.000 C 
ENDROOT
BRANCH   1  14
ATOM     14  C   UNL     1      -0.919  11.626  22.699  0.00  0.00    +0.000 C 
ATOM     15  O   UNL     1      -1.982  11.317  23.229  0.00  0.00    +0.000 OA
BRANCH  14  16
ATOM     16  O   UNL     1      -0.217  12.754  22.994  0.00  0.00    +0.000 OA
BRANCH  16  18
ATOM     17  C   UNL     1      -1.309  14.649  23.956  0.00  0.00    +0.000 C 
ATOM     18  C   UNL     1      -0.905  13.971  22.660  0.00  0.00    +0.000 C 
ENDBRANCH  16  18
ENDBRANCH  14  16
ENDBRANCH   1  14
BRANCH   9  19
ATOM     19  C   UNL     1       3.694   5.570  19.670  0.00  0.00    +0.000 C 
BRANCH  19  20
ATOM     20  C   UNL     1       2.980   4.306  19.282  0.00  0.00    +0.000 A 
ATOM     21  C   UNL     1       2.991   3.917  17.938  0.00  0.00    +0.000 A 
ATOM     22  F   UNL     1       3.689   4.636  17.046  0.00  0.00    +0.000 F 
ATOM     23  C   UNL     1       2.297   2.797  17.488  0.00  0.00    +0.000 A 
ATOM     24  C   UNL     1       1.561   2.037  18.390  0.00  0.00    +0.000 A 
ATOM     25  C   UNL     1       1.546   2.393  19.738  0.00  0.00    +0.000 A 
ATOM     26  C   UNL     1       2.254   3.517  20.185  0.00  0.00    +0.000 A 
ATOM     27 CL   UNL     1       2.210   3.854  21.877  0.00  0.00    +0.000 Cl
ENDBRANCH  19  20
ENDBRANCH   9  19
TORSDOF 5
ENDMDL
MODEL 9
REMARK VINA RESULT:      -7.4      4.596      8.807
REMARK  Name = 
REMARK  7 active torsions:
REMARK  status: ('A' for Active; 'I' for Inactive)
REMARK    1  A    between atoms: C_1  and  C_2
REMARK    2  A    between atoms: C_2  and  O_3
REMARK    3  A    between atoms: O_3  and  C_4
REMARK    4  A    between atoms: C_4  and  C_6
REMARK    5  A    between atoms: C_10  and  C_11
REMARK    6  A    between atoms: N_14  and  C_15
REMARK    7  A    between atoms: C_15  and  C_16
REMARK                            x       y       z     vdW  Elec       q    Type
REMARK                         _______ _______ _______ _____ _____    ______ ____
ROOT
ATOM      1  C   UNL     1       4.324   5.034  18.188  0.00  0.00    +0.000 A 
ATOM      2  O   UNL     1       3.558   4.581  19.245  0.00  0.00    +0.000 OA
ATOM      3  C   UNL     1       2.736   5.610  19.576  0.00  0.00    +0.000 A 
ATOM      4  C   UNL     1       2.959   6.688  18.757  0.00  0.00    +0.000 A 
ATOM      5  C   UNL     1       3.965   6.339  17.846  0.00  0.00    +0.000 A 
ATOM      6  C   UNL     1       4.550   7.148  16.747  0.00  0.00    +0.000 C 
ATOM      7  C   UNL     1       2.207   7.904  18.968  0.00  0.00    +0.000 A 
ATOM      8  N   UNL     1       2.158   8.987  18.204  0.00  0.00    +0.000 NA
ATOM      9  N   UNL     1       1.329   9.808  18.884  0.00  0.00    +0.000 N 
ATOM     10  C   UNL     1       0.866   9.261  20.060  0.00  0.00    +0.000 A 
ATOM     11  C   UNL     1       1.425   8.005  20.147  0.00  0.00    +0.000 A 
ATOM     12  C   UNL     1       1.387   6.939  21.212  0.00  0.00    +0.000 C 
ATOM     13  C   UNL     1       1.724   5.513  20.667  0.00  0.00    +0.000 C 
ENDROOT
BRANCH   1  14
ATOM     14  C   UNL     1       5.313   4.182  17.558  0.00  0.00    +0.000 C 
ATOM     15  O   UNL     1       5.123   3.548  16.524  0.00  0.00    +0.000 OA
BRANCH  14  16
ATOM     16  O   UNL     1       6.451   4.110  18.301  0.00  0.00    +0.000 OA
BRANCH  16  18
ATOM     17  C   UNL     1       7.768   6.040  18.799  0.00  0.00    +0.000 C 
ATOM     18  C   UNL     1       7.525   4.923  17.801  0.00  0.00    +0.000 C 
ENDBRANCH  16  18
ENDBRANCH  14  16
ENDBRANCH   1  14
BRANCH   9  19
ATOM     19  C   UNL     1       1.090  11.154  18.381  0.00  0.00    +0.000 C 
BRANCH  19  20
ATOM     20  C   UNL     1      -0.236  11.682  18.851  0.00  0.00    +0.000 A 
ATOM     21  C   UNL     1      -0.250  12.686  19.826  0.00  0.00    +0.000 A 
ATOM     22  F   UNL     1       0.909  13.198  20.265  0.00  0.00    +0.000 F 
ATOM     23  C   UNL     1      -1.436  13.179  20.361  0.00  0.00    +0.000 A 
ATOM     24  C   UNL     1      -2.653  12.663  19.928  0.00  0.00    +0.000 A 
ATOM     25  C   UNL     1      -2.669  11.673  18.946  0.00  0.00    +0.000 A 
ATOM     26  C   UNL     1      -1.470  11.188  18.405  0.00  0.00    +0.000 A 
ATOM     27 CL   UNL     1      -1.592   9.993  17.165  0.00  0.00    +0.000 Cl
ENDBRANCH  19  20
ENDBRANCH   9  19
TORSDOF 5
ENDMDL
