MODEL 1
REMARK VINA RESULT:     -10.2      0.000      0.000
REMARK  Name = 
REMARK  7 active torsions:
REMARK  status: ('A' for Active; 'I' for Inactive)
REMARK    1  A    between atoms: C_1  and  C_2
REMARK    2  A    between atoms: N_10  and  C_11
REMARK    3  A    between atoms: C_11  and  C_12
REMARK    4  A    between atoms: C_15  and  C_16
REMARK    5  A    between atoms: C_16  and  C_18
REMARK    6  A    between atoms: N_23  and  C_24
REMARK    7  A    between atoms: N_23  and  C_25
REMARK                            x       y       z     vdW  Elec       q    Type
REMARK                         _______ _______ _______ _____ _____    ______ ____
ROOT
ATOM      1  C   UNL     1       2.463   6.784  19.422  0.00  0.00    +0.000 A 
ATOM      2  C   UNL     1       2.593   7.300  18.123  0.00  0.00    +0.000 A 
ATOM      3  C   UNL     1       2.139   8.589  17.828  0.00  0.00    +0.000 A 
ATOM      4  C   UNL     1       1.577   9.375  18.839  0.00  0.00    +0.000 A 
ATOM      5  C   UNL     1       1.300   8.806  20.084  0.00  0.00    +0.000 A 
ATOM      6  C   UNL     1       1.733   7.514  20.369  0.00  0.00    +0.000 A 
ENDROOT
BRANCH   4   7
ATOM      7  C   UNL     1       1.324  10.820  18.589  0.00  0.00    +0.000 C 
ATOM      8  O   UNL     1       2.242  11.518  18.164  0.00  0.00    +0.000 OA
BRANCH   7   9
ATOM      9  C   UNL     1      -0.014  11.348  18.876  0.00  0.00    +0.000 A 
ATOM     10  C   UNL     1      -0.356  12.316  19.807  0.00  0.00    +0.000 A 
ATOM     11  N   UNL     1      -1.735  12.483  19.830  0.00  0.00    +0.000 N 
ATOM     12  C   UNL     1      -2.500  13.250  20.741  0.00  0.00    +0.000 C 
ATOM     13  O   UNL     1      -3.485  12.722  21.247  0.00  0.00    +0.000 OA
ATOM     14  N   UNL     1      -2.083  14.560  20.980  0.00  0.00    +0.000 N 
ATOM     15  C   UNL     1      -1.152  15.348  20.175  0.00  0.00    +0.000 C 
ATOM     16  C   UNL     1      -2.906  15.346  21.890  0.00  0.00    +0.000 C 
ATOM     17  C   UNL     1      -2.282  11.621  18.880  0.00  0.00    +0.000 A 
ATOM     18  C   UNL     1      -3.625  11.411  18.514  0.00  0.00    +0.000 A 
ATOM     19  C   UNL     1      -3.905  10.502  17.493  0.00  0.00    +0.000 A 
ATOM     20  C   UNL     1      -2.880   9.823  16.848  0.00  0.00    +0.000 A 
ATOM     21  C   UNL     1      -1.546  10.034  17.216  0.00  0.00    +0.000 A 
ATOM     22  C   UNL     1      -1.235  10.950  18.245  0.00  0.00    +0.000 A 
ENDBRANCH   7   9
ENDBRANCH   4   7
BRANCH   1  23
ATOM     23  C   UNL     1       3.192   5.526  19.841  0.00  0.00    +0.000 C 
BRANCH  23  33
ATOM     24  C   UNL     1       1.778   3.756  17.752  0.00  0.00    +0.000 C 
ATOM     25  C   UNL     1       3.211   4.141  17.720  0.00  0.00    +0.000 A 
ATOM     26  N   UNL     1       4.049   3.817  16.757  0.00  0.00    +0.000 NA
ATOM     27  C   UNL     1       5.273   4.308  17.134  0.00  0.00    +0.000 A 
ATOM     28  C   UNL     1       6.506   4.251  16.477  0.00  0.00    +0.000 A 
ATOM     29  N   UNL     1       7.617   4.799  17.043  0.00  0.00    +0.000 NA
ATOM     30  C   UNL     1       7.502   5.369  18.262  0.00  0.00    +0.000 A 
ATOM     31  C   UNL     1       6.325   5.467  18.996  0.00  0.00    +0.000 A 
ATOM     32  C   UNL     1       5.190   4.939  18.375  0.00  0.00    +0.000 A 
ATOM     33  N   UNL     1       3.844   4.888  18.697  0.00  0.00    +0.000 N 
ENDBRANCH  23  33
ENDBRANCH   1  23
TORSDOF 4
ENDMDL
MODEL 2
REMARK VINA RESULT:      -9.7      1.031      1.062
REMARK  Name = 
REMARK  7 active torsions:
REMARK  status: ('A' for Active; 'I' for Inactive)
REMARK    1  A    between atoms: C_1  and  C_2
REMARK    2  A    between atoms: N_10  and  C_11
REMARK    3  A    between atoms: C_11  and  C_12
REMARK    4  A    between atoms: C_15  and  C_16
REMARK    5  A    between atoms: C_16  and  C_18
REMARK    6  A    between atoms: N_23  and  C_24
REMARK    7  A    between atoms: N_23  and  C_25
REMARK                            x       y       z     vdW  Elec       q    Type
REMARK                         _______ _______ _______ _____ _____    ______ ____
ROOT
ATOM      1  C   UNL     1       2.489   6.333  19.461  0.00  0.00    +0.000 A 
ATOM      2  C   UNL     1       2.497   6.822  18.145  0.00  0.00    +0.000 A 
ATOM      3  C   UNL     1       2.081   8.130  17.876  0.00  0.00    +0.000 A 
ATOM      4  C   UNL     1       1.679   8.959  18.927  0.00  0.00    +0.000 A 
ATOM      5  C   UNL     1       1.515   8.425  20.208  0.00  0.00    +0.000 A 
ATOM      6  C   UNL     1       1.910   7.116  20.468  0.00  0.00    +0.000 A 
ENDROOT
BRANCH   4   7
ATOM      7  C   UNL     1       1.476  10.413  18.678  0.00  0.00    +0.000 C 
ATOM      8  O   UNL     1       2.279  11.010  17.966  0.00  0.00    +0.000 OA
BRANCH   7   9
ATOM      9  C   UNL     1       0.324  11.068  19.309  0.00  0.00    +0.000 A 
ATOM     10  C   UNL     1       0.288  11.709  20.537  0.00  0.00    +0.000 A 
ATOM     11  N   UNL     1      -1.007  12.131  20.812  0.00  0.00    +0.000 N 
ATOM     12  C   UNL     1      -1.502  12.678  22.020  0.00  0.00    +0.000 C 
ATOM     13  O   UNL     1      -2.546  12.219  22.470  0.00  0.00    +0.000 OA
ATOM     14  N   UNL     1      -0.770  13.717  22.596  0.00  0.00    +0.000 N 
ATOM     15  C   UNL     1       0.262  14.528  21.955  0.00  0.00    +0.000 C 
ATOM     16  C   UNL     1      -1.317  14.294  23.817  0.00  0.00    +0.000 C 
ATOM     17  C   UNL     1      -1.808  11.771  19.729  0.00  0.00    +0.000 A 
ATOM     18  C   UNL     1      -3.185  11.972  19.515  0.00  0.00    +0.000 A 
ATOM     19  C   UNL     1      -3.744  11.540  18.311  0.00  0.00    +0.000 A 
ATOM     20  C   UNL     1      -2.957  10.931  17.343  0.00  0.00    +0.000 A 
ATOM     21  C   UNL     1      -1.589  10.732  17.561  0.00  0.00    +0.000 A 
ATOM     22  C   UNL     1      -0.997  11.161  18.769  0.00  0.00    +0.000 A 
ENDBRANCH   7   9
ENDBRANCH   4   7
BRANCH   1  23
ATOM     23  C   UNL     1       3.194   5.044  19.821  0.00  0.00    +0.000 C 
BRANCH  23  33
ATOM     24  C   UNL     1       2.107   3.136  17.659  0.00  0.00    +0.000 C 
ATOM     25  C   UNL     1       3.471   3.720  17.679  0.00  0.00    +0.000 A 
ATOM     26  N   UNL     1       4.375   3.538  16.737  0.00  0.00    +0.000 NA
ATOM     27  C   UNL     1       5.504   4.190  17.162  0.00  0.00    +0.000 A 
ATOM     28  C   UNL     1       6.752   4.321  16.544  0.00  0.00    +0.000 A 
ATOM     29  N   UNL     1       7.757   5.008  17.154  0.00  0.00    +0.000 NA
ATOM     30  C   UNL     1       7.526   5.531  18.378  0.00  0.00    +0.000 A 
ATOM     31  C   UNL     1       6.327   5.446  19.075  0.00  0.00    +0.000 A 
ATOM     32  C   UNL     1       5.296   4.776  18.410  0.00  0.00    +0.000 A 
ATOM     33  N   UNL     1       3.962   4.528  18.688  0.00  0.00    +0.000 N 
ENDBRANCH  23  33
ENDBRANCH   1  23
TORSDOF 4
ENDMDL
MODEL 3
REMARK VINA RESULT:      -9.4      1.645      2.913
REMARK  Name = 
REMARK  7 active torsions:
REMARK  status: ('A' for Active; 'I' for Inactive)
REMARK    1  A    between atoms: C_1  and  C_2
REMARK    2  A    between atoms: N_10  and  C_11
REMARK    3  A    between atoms: C_11  and  C_12
REMARK    4  A    between atoms: C_15  and  C_16
REMARK    5  A    between atoms: C_16  and  C_18
REMARK    6  A    between atoms: N_23  and  C_24
REMARK    7  A    between atoms: N_23  and  C_25
REMARK                            x       y       z     vdW  Elec       q    Type
REMARK                         _______ _______ _______ _____ _____    ______ ____
ROOT
ATOM      1  C   UNL     1       2.598   6.879  19.569  0.00  0.00    +0.000 A 
ATOM      2  C   UNL     1       1.875   7.597  20.534  0.00  0.00    +0.000 A 
ATOM      3  C   UNL     1       1.140   8.729  20.168  0.00  0.00    +0.000 A 
ATOM      4  C   UNL     1       1.107   9.130  18.829  0.00  0.00    +0.000 A 
ATOM      5  C   UNL     1       1.953   8.517  17.901  0.00  0.00    +0.000 A 
ATOM      6  C   UNL     1       2.700   7.404  18.274  0.00  0.00    +0.000 A 
ENDROOT
BRANCH   4   7
ATOM      7  C   UNL     1       0.137  10.175  18.400  0.00  0.00    +0.000 C 
ATOM      8  O   UNL     1      -0.656   9.913  17.500  0.00  0.00    +0.000 OA
BRANCH   7   9
ATOM      9  C   UNL     1       0.184  11.479  19.071  0.00  0.00    +0.000 A 
ATOM     10  C   UNL     1      -0.743  12.002  19.961  0.00  0.00    +0.000 A 
ATOM     11  N   UNL     1      -0.380  13.295  20.314  0.00  0.00    +0.000 N 
ATOM     12  C   UNL     1      -1.130  14.230  21.066  0.00  0.00    +0.000 C 
ATOM     13  O   UNL     1      -1.231  15.370  20.625  0.00  0.00    +0.000 OA
ATOM     14  N   UNL     1      -1.683  13.785  22.267  0.00  0.00    +0.000 N 
ATOM     15  C   UNL     1      -1.324  12.578  23.008  0.00  0.00    +0.000 C 
ATOM     16  C   UNL     1      -2.418  14.773  23.047  0.00  0.00    +0.000 C 
ATOM     17  C   UNL     1       0.811  13.596  19.655  0.00  0.00    +0.000 A 
ATOM     18  C   UNL     1       1.588  14.769  19.679  0.00  0.00    +0.000 A 
ATOM     19  C   UNL     1       2.775  14.800  18.945  0.00  0.00    +0.000 A 
ATOM     20  C   UNL     1       3.183  13.695  18.211  0.00  0.00    +0.000 A 
ATOM     21  C   UNL     1       2.407  12.531  18.189  0.00  0.00    +0.000 A 
ATOM     22  C   UNL     1       1.203  12.471  18.924  0.00  0.00    +0.000 A 
ENDBRANCH   7   9
ENDBRANCH   4   7
BRANCH   1  23
ATOM     23  C   UNL     1       3.158   5.506  19.871  0.00  0.00    +0.000 C 
BRANCH  23  33
ATOM     24  C   UNL     1       1.720   3.939  17.641  0.00  0.00    +0.000 C 
ATOM     25  C   UNL     1       3.165   4.277  17.655  0.00  0.00    +0.000 A 
ATOM     26  N   UNL     1       4.007   3.995  16.682  0.00  0.00    +0.000 NA
ATOM     27  C   UNL     1       5.240   4.417  17.110  0.00  0.00    +0.000 A 
ATOM     28  C   UNL     1       6.480   4.366  16.466  0.00  0.00    +0.000 A 
ATOM     29  N   UNL     1       7.599   4.835  17.084  0.00  0.00    +0.000 NA
ATOM     30  C   UNL     1       7.484   5.320  18.339  0.00  0.00    +0.000 A 
ATOM     31  C   UNL     1       6.300   5.404  19.063  0.00  0.00    +0.000 A 
ATOM     32  C   UNL     1       5.158   4.960  18.392  0.00  0.00    +0.000 A 
ATOM     33  N   UNL     1       3.806   4.930  18.692  0.00  0.00    +0.000 N 
ENDBRANCH  23  33
ENDBRANCH   1  23
TORSDOF 4
ENDMDL
MODEL 4
REMARK VINA RESULT:      -9.3      2.219      3.328
REMARK  Name = 
REMARK  7 active torsions:
REMARK  status: ('A' for Active; 'I' for Inactive)
REMARK    1  A    between atoms: C_1  and  C_2
REMARK    2  A    between atoms: N_10  and  C_11
REMARK    3  A    between atoms: C_11  and  C_12
REMARK    4  A    between atoms: C_15  and  C_16
REMARK    5  A    between atoms: C_16  and  C_18
REMARK    6  A    between atoms: N_23  and  C_24
REMARK    7  A    between atoms: N_23  and  C_25
REMARK                            x       y       z     vdW  Elec       q    Type
REMARK                         _______ _______ _______ _____ _____    ______ ____
ROOT
ATOM      1  C   UNL     1       2.548   6.652  19.690  0.00  0.00    +0.000 A 
ATOM      2  C   UNL     1       1.917   7.340  20.737  0.00  0.00    +0.000 A 
ATOM      3  C   UNL     1       1.301   8.574  20.502  0.00  0.00    +0.000 A 
ATOM      4  C   UNL     1       1.294   9.108  19.211  0.00  0.00    +0.000 A 
ATOM      5  C   UNL     1       2.058   8.508  18.207  0.00  0.00    +0.000 A 
ATOM      6  C   UNL     1       2.689   7.291  18.451  0.00  0.00    +0.000 A 
ENDROOT
BRANCH   4   7
ATOM      7  C   UNL     1       0.433  10.286  18.909  0.00  0.00    +0.000 C 
ATOM      8  O   UNL     1      -0.386  10.203  17.998  0.00  0.00    +0.000 OA
BRANCH   7   9
ATOM      9  C   UNL     1       0.615  11.499  19.714  0.00  0.00    +0.000 A 
ATOM     10  C   UNL     1       1.650  12.417  19.632  0.00  0.00    +0.000 A 
ATOM     11  N   UNL     1       1.502  13.385  20.618  0.00  0.00    +0.000 N 
ATOM     12  C   UNL     1       2.419  14.401  20.978  0.00  0.00    +0.000 C 
ATOM     13  O   UNL     1       2.668  14.551  22.170  0.00  0.00    +0.000 OA
ATOM     14  N   UNL     1       2.956  15.171  19.946  0.00  0.00    +0.000 N 
ATOM     15  C   UNL     1       2.458  15.279  18.577  0.00  0.00    +0.000 C 
ATOM     16  C   UNL     1       3.867  16.238  20.340  0.00  0.00    +0.000 C 
ATOM     17  C   UNL     1       0.339  13.092  21.328  0.00  0.00    +0.000 A 
ATOM     18  C   UNL     1      -0.252  13.763  22.415  0.00  0.00    +0.000 A 
ATOM     19  C   UNL     1      -1.454  13.275  22.928  0.00  0.00    +0.000 A 
ATOM     20  C   UNL     1      -2.058  12.154  22.374  0.00  0.00    +0.000 A 
ATOM     21  C   UNL     1      -1.466  11.489  21.294  0.00  0.00    +0.000 A 
ATOM     22  C   UNL     1      -0.250  11.963  20.754  0.00  0.00    +0.000 A 
ENDBRANCH   7   9
ENDBRANCH   4   7
BRANCH   1  23
ATOM     23  C   UNL     1       2.965   5.206  19.841  0.00  0.00    +0.000 C 
BRANCH  23  33
ATOM     24  C   UNL     1       1.804   3.691  17.421  0.00  0.00    +0.000 C 
ATOM     25  C   UNL     1       3.216   4.127  17.563  0.00  0.00    +0.000 A 
ATOM     26  N   UNL     1       4.142   3.968  16.639  0.00  0.00    +0.000 NA
ATOM     27  C   UNL     1       5.308   4.446  17.182  0.00  0.00    +0.000 A 
ATOM     28  C   UNL     1       6.590   4.523  16.630  0.00  0.00    +0.000 A 
ATOM     29  N   UNL     1       7.626   5.026  17.356  0.00  0.00    +0.000 NA
ATOM     30  C   UNL     1       7.389   5.419  18.626  0.00  0.00    +0.000 A 
ATOM     31  C   UNL     1       6.154   5.373  19.264  0.00  0.00    +0.000 A 
ATOM     32  C   UNL     1       5.098   4.896  18.485  0.00  0.00    +0.000 A 
ATOM     33  N   UNL     1       3.734   4.754  18.681  0.00  0.00    +0.000 N 
ENDBRANCH  23  33
ENDBRANCH   1  23
TORSDOF 4
ENDMDL
MODEL 5
REMARK VINA RESULT:      -9.1      1.565      2.728
REMARK  Name = 
REMARK  7 active torsions:
REMARK  status: ('A' for Active; 'I' for Inactive)
REMARK    1  A    between atoms: C_1  and  C_2
REMARK    2  A    between atoms: N_10  and  C_11
REMARK    3  A    between atoms: C_11  and  C_12
REMARK    4  A    between atoms: C_15  and  C_16
REMARK    5  A    between atoms: C_16  and  C_18
REMARK    6  A    between atoms: N_23  and  C_24
REMARK    7  A    between atoms: N_23  and  C_25
REMARK                            x       y       z     vdW  Elec       q    Type
REMARK                         _______ _______ _______ _____ _____    ______ ____
ROOT
ATOM      1  C   UNL     1       2.175   7.783  19.512  0.00  0.00    +0.000 A 
ATOM      2  C   UNL     1       2.156   8.322  18.216  0.00  0.00    +0.000 A 
ATOM      3  C   UNL     1       1.478   9.518  17.959  0.00  0.00    +0.000 A 
ATOM      4  C   UNL     1       0.839  10.190  19.005  0.00  0.00    +0.000 A 
ATOM      5  C   UNL     1       0.719   9.575  20.254  0.00  0.00    +0.000 A 
ATOM      6  C   UNL     1       1.376   8.373  20.500  0.00  0.00    +0.000 A 
ENDROOT
BRANCH   4   7
ATOM      7  C   UNL     1       0.335  11.574  18.788  0.00  0.00    +0.000 C 
ATOM      8  O   UNL     1       1.120  12.437  18.402  0.00  0.00    +0.000 OA
BRANCH   7   9
ATOM      9  C   UNL     1      -1.082  11.845  19.058  0.00  0.00    +0.000 A 
ATOM     10  C   UNL     1      -1.622  12.473  20.169  0.00  0.00    +0.000 A 
ATOM     11  N   UNL     1      -3.009  12.468  20.087  0.00  0.00    +0.000 N 
ATOM     12  C   UNL     1      -3.937  12.861  21.080  0.00  0.00    +0.000 C 
ATOM     13  O   UNL     1      -4.873  12.105  21.319  0.00  0.00    +0.000 OA
ATOM     14  N   UNL     1      -3.725  14.093  21.699  0.00  0.00    +0.000 N 
ATOM     15  C   UNL     1      -2.859  15.174  21.235  0.00  0.00    +0.000 C 
ATOM     16  C   UNL     1      -4.714  14.498  22.690  0.00  0.00    +0.000 C 
ATOM     17  C   UNL     1      -3.359  11.844  18.890  0.00  0.00    +0.000 A 
ATOM     18  C   UNL     1      -4.630  11.589  18.339  0.00  0.00    +0.000 A 
ATOM     19  C   UNL     1      -4.705  10.971  17.091  0.00  0.00    +0.000 A 
ATOM     20  C   UNL     1      -3.551  10.618  16.404  0.00  0.00    +0.000 A 
ATOM     21  C   UNL     1      -2.291  10.872  16.956  0.00  0.00    +0.000 A 
ATOM     22  C   UNL     1      -2.185  11.498  18.217  0.00  0.00    +0.000 A 
ENDBRANCH   7   9
ENDBRANCH   4   7
BRANCH   1  23
ATOM     23  C   UNL     1       3.123   6.664  19.881  0.00  0.00    +0.000 C 
BRANCH  23  33
ATOM     24  C   UNL     1       4.715   6.389  17.256  0.00  0.00    +0.000 C 
ATOM     25  C   UNL     1       3.764   5.383  17.790  0.00  0.00    +0.000 A 
ATOM     26  N   UNL     1       3.523   4.214  17.232  0.00  0.00    +0.000 NA
ATOM     27  C   UNL     1       2.550   3.621  17.996  0.00  0.00    +0.000 A 
ATOM     28  C   UNL     1       1.934   2.373  17.855  0.00  0.00    +0.000 A 
ATOM     29  N   UNL     1       0.966   1.978  18.728  0.00  0.00    +0.000 NA
ATOM     30  C   UNL     1       0.601   2.830  19.710  0.00  0.00    +0.000 A 
ATOM     31  C   UNL     1       1.146   4.090  19.925  0.00  0.00    +0.000 A 
ATOM     32  C   UNL     1       2.168   4.456  19.045  0.00  0.00    +0.000 A 
ATOM     33  N   UNL     1       3.013   5.548  18.940  0.00  0.00    +0.000 N 
ENDBRANCH  23  33
ENDBRANCH   1  23
TORSDOF 4
ENDMDL
MODEL 6
REMARK VINA RESULT:      -8.9      2.520      4.183
REMARK  Name = 
REMARK  7 active torsions:
REMARK  status: ('A' for Active; 'I' for Inactive)
REMARK    1  A    between atoms: C_1  and  C_2
REMARK    2  A    between atoms: N_10  and  C_11
REMARK    3  A    between atoms: C_11  and  C_12
REMARK    4  A    between atoms: C_15  and  C_16
REMARK    5  A    between atoms: C_16  and  C_18
REMARK    6  A    between atoms: N_23  and  C_24
REMARK    7  A    between atoms: N_23  and  C_25
REMARK                            x       y       z     vdW  Elec       q    Type
REMARK                         _______ _______ _______ _____ _____    ______ ____
ROOT
ATOM      1  C   UNL     1       2.323   7.706  19.142  0.00  0.00    +0.000 A 
ATOM      2  C   UNL     1       2.039   8.283  17.894  0.00  0.00    +0.000 A 
ATOM      3  C   UNL     1       1.132   9.343  17.797  0.00  0.00    +0.000 A 
ATOM      4  C   UNL     1       0.525   9.843  18.952  0.00  0.00    +0.000 A 
ATOM      5  C   UNL     1       0.680   9.166  20.165  0.00  0.00    +0.000 A 
ATOM      6  C   UNL     1       1.567   8.098  20.254  0.00  0.00    +0.000 A 
ENDROOT
BRANCH   4   7
ATOM      7  C   UNL     1      -0.242  11.117  18.885  0.00  0.00    +0.000 C 
ATOM      8  O   UNL     1      -1.166  11.211  18.081  0.00  0.00    +0.000 OA
BRANCH   7   9
ATOM      9  C   UNL     1       0.152  12.210  19.781  0.00  0.00    +0.000 A 
ATOM     10  C   UNL     1       1.302  12.982  19.714  0.00  0.00    +0.000 A 
ATOM     11  N   UNL     1       1.346  13.860  20.789  0.00  0.00    +0.000 N 
ATOM     12  C   UNL     1       2.415  14.701  21.178  0.00  0.00    +0.000 C 
ATOM     13  O   UNL     1       2.745  14.698  22.359  0.00  0.00    +0.000 OA
ATOM     14  N   UNL     1       3.001  15.487  20.185  0.00  0.00    +0.000 N 
ATOM     15  C   UNL     1       2.452  15.795  18.867  0.00  0.00    +0.000 C 
ATOM     16  C   UNL     1       4.074  16.376  20.612  0.00  0.00    +0.000 C 
ATOM     17  C   UNL     1       0.192  13.661  21.545  0.00  0.00    +0.000 A 
ATOM     18  C   UNL     1      -0.240  14.297  22.724  0.00  0.00    +0.000 A 
ATOM     19  C   UNL     1      -1.471  13.931  23.269  0.00  0.00    +0.000 A 
ATOM     20  C   UNL     1      -2.256  12.962  22.659  0.00  0.00    +0.000 A 
ATOM     21  C   UNL     1      -1.823  12.331  21.487  0.00  0.00    +0.000 A 
ATOM     22  C   UNL     1      -0.582  12.684  20.913  0.00  0.00    +0.000 A 
ENDBRANCH   7   9
ENDBRANCH   4   7
BRANCH   1  23
ATOM     23  C   UNL     1       3.496   6.768  19.322  0.00  0.00    +0.000 C 
BRANCH  23  33
ATOM     24  C   UNL     1       4.903   6.095  16.664  0.00  0.00    +0.000 C 
ATOM     25  C   UNL     1       3.977   5.194  17.395  0.00  0.00    +0.000 A 
ATOM     26  N   UNL     1       3.682   3.965  17.023  0.00  0.00    +0.000 NA
ATOM     27  C   UNL     1       2.756   3.506  17.924  0.00  0.00    +0.000 A 
ATOM     28  C   UNL     1       2.115   2.266  18.000  0.00  0.00    +0.000 A 
ATOM     29  N   UNL     1       1.203   2.018  18.981  0.00  0.00    +0.000 NA
ATOM     30  C   UNL     1       0.916   3.006  19.855  0.00  0.00    +0.000 A 
ATOM     31  C   UNL     1       1.492   4.271  19.856  0.00  0.00    +0.000 A 
ATOM     32  C   UNL     1       2.457   4.487  18.869  0.00  0.00    +0.000 A 
ATOM     33  N   UNL     1       3.308   5.535  18.557  0.00  0.00    +0.000 N 
ENDBRANCH  23  33
ENDBRANCH   1  23
TORSDOF 4
ENDMDL
MODEL 7
REMARK VINA RESULT:      -8.8      1.289      2.831
REMARK  Name = 
REMARK  7 active torsions:
REMARK  status: ('A' for Active; 'I' for Inactive)
REMARK    1  A    between atoms: C_1  and  C_2
REMARK    2  A    between atoms: N_10  and  C_11
REMARK    3  A    between atoms: C_11  and  C_12
REMARK    4  A    between atoms: C_15  and  C_16
REMARK    5  A    between atoms: C_16  and  C_18
REMARK    6  A    between atoms: N_23  and  C_24
REMARK    7  A    between atoms: N_23  and  C_25
REMARK                            x       y       z     vdW  Elec       q    Type
REMARK                         _______ _______ _______ _____ _____    ______ ____
ROOT
ATOM      1  C   UNL     1       2.543   6.745  19.493  0.00  0.00    +0.000 A 
ATOM      2  C   UNL     1       2.682   7.390  18.254  0.00  0.00    +0.000 A 
ATOM      3  C   UNL     1       2.105   8.646  18.044  0.00  0.00    +0.000 A 
ATOM      4  C   UNL     1       1.410   9.272  19.083  0.00  0.00    +0.000 A 
ATOM      5  C   UNL     1       1.133   8.565  20.256  0.00  0.00    +0.000 A 
ATOM      6  C   UNL     1       1.690   7.305  20.453  0.00  0.00    +0.000 A 
ENDROOT
BRANCH   4   7
ATOM      7  C   UNL     1       1.013  10.700  18.944  0.00  0.00    +0.000 C 
ATOM      8  O   UNL     1       1.839  11.507  18.525  0.00  0.00    +0.000 OA
BRANCH   7   9
ATOM      9  C   UNL     1      -0.352  11.079  19.327  0.00  0.00    +0.000 A 
ATOM     10  C   UNL     1      -1.459  11.189  18.500  0.00  0.00    +0.000 A 
ATOM     11  N   UNL     1      -2.549  11.648  19.229  0.00  0.00    +0.000 N 
ATOM     12  C   UNL     1      -3.815  12.045  18.737  0.00  0.00    +0.000 C 
ATOM     13  O   UNL     1      -4.276  13.109  19.137  0.00  0.00    +0.000 OA
ATOM     14  N   UNL     1      -4.452  11.182  17.845  0.00  0.00    +0.000 N 
ATOM     15  C   UNL     1      -4.133   9.778  17.599  0.00  0.00    +0.000 C 
ATOM     16  C   UNL     1      -5.772  11.590  17.380  0.00  0.00    +0.000 C 
ATOM     17  C   UNL     1      -2.136  11.813  20.550  0.00  0.00    +0.000 A 
ATOM     18  C   UNL     1      -2.857  12.250  21.677  0.00  0.00    +0.000 A 
ATOM     19  C   UNL     1      -2.208  12.292  22.911  0.00  0.00    +0.000 A 
ATOM     20  C   UNL     1      -0.879  11.906  23.027  0.00  0.00    +0.000 A 
ATOM     21  C   UNL     1      -0.166  11.473  21.904  0.00  0.00    +0.000 A 
ATOM     22  C   UNL     1      -0.799  11.419  20.643  0.00  0.00    +0.000 A 
ENDBRANCH   7   9
ENDBRANCH   4   7
BRANCH   1  23
ATOM     23  C   UNL     1       3.383   5.537  19.846  0.00  0.00    +0.000 C 
BRANCH  23  33
ATOM     24  C   UNL     1       1.740   3.896  17.820  0.00  0.00    +0.000 C 
ATOM     25  C   UNL     1       3.185   4.211  17.696  0.00  0.00    +0.000 A 
ATOM     26  N   UNL     1       3.937   3.873  16.668  0.00  0.00    +0.000 NA
ATOM     27  C   UNL     1       5.207   4.294  16.971  0.00  0.00    +0.000 A 
ATOM     28  C   UNL     1       6.387   4.194  16.227  0.00  0.00    +0.000 A 
ATOM     29  N   UNL     1       7.561   4.672  16.726  0.00  0.00    +0.000 NA
ATOM     30  C   UNL     1       7.559   5.214  17.962  0.00  0.00    +0.000 A 
ATOM     31  C   UNL     1       6.443   5.348  18.780  0.00  0.00    +0.000 A 
ATOM     32  C   UNL     1       5.242   4.894  18.229  0.00  0.00    +0.000 A 
ATOM     33  N   UNL     1       3.921   4.900  18.644  0.00  0.00    +0.000 N 
ENDBRANCH  23  33
ENDBRANCH   1  23
TORSDOF 4
ENDMDL
MODEL 8
REMARK VINA RESULT:      -8.7      1.348      1.880
REMARK  Name = 
REMARK  7 active torsions:
REMARK  status: ('A' for Active; 'I' for Inactive)
REMARK    1  A    between atoms: C_1  and  C_2
REMARK    2  A    between atoms: N_10  and  C_11
REMARK    3  A    between atoms: C_11  and  C_12
REMARK    4  A    between atoms: C_15  and  C_16
REMARK    5  A    between atoms: C_16  and  C_18
REMARK    6  A    between atoms: N_23  and  C_24
REMARK    7  A    between atoms: N_23  and  C_25
REMARK                            x       y       z     vdW  Elec       q    Type
REMARK                         _______ _______ _______ _____ _____    ______ ____
ROOT
ATOM      1  C   UNL     1       1.958   7.830  18.672  0.00  0.00    +0.000 A 
ATOM      2  C   UNL     1       1.512   8.131  19.968  0.00  0.00    +0.000 A 
ATOM      3  C   UNL     1       1.184   9.445  20.314  0.00  0.00    +0.000 A 
ATOM      4  C   UNL     1       1.279  10.458  19.355  0.00  0.00    +0.000 A 
ATOM      5  C   UNL     1       1.876  10.190  18.120  0.00  0.00    +0.000 A 
ATOM      6  C   UNL     1       2.222   8.884  17.787  0.00  0.00    +0.000 A 
ENDROOT
BRANCH   4   7
ATOM      7  C   UNL     1       0.700  11.799  19.644  0.00  0.00    +0.000 C 
ATOM      8  O   UNL     1       1.459  12.727  19.910  0.00  0.00    +0.000 OA
BRANCH   7   9
ATOM      9  C   UNL     1      -0.760  11.945  19.608  0.00  0.00    +0.000 A 
ATOM     10  C   UNL     1      -1.556  12.666  20.484  0.00  0.00    +0.000 A 
ATOM     11  N   UNL     1      -2.895  12.491  20.157  0.00  0.00    +0.000 N 
ATOM     12  C   UNL     1      -4.028  12.920  20.888  0.00  0.00    +0.000 C 
ATOM     13  O   UNL     1      -4.927  12.107  21.079  0.00  0.00    +0.000 OA
ATOM     14  N   UNL     1      -4.044  14.246  21.321  0.00  0.00    +0.000 N 
ATOM     15  C   UNL     1      -3.196  15.337  20.847  0.00  0.00    +0.000 C 
ATOM     16  C   UNL     1      -5.236  14.679  22.038  0.00  0.00    +0.000 C 
ATOM     17  C   UNL     1      -2.953  11.662  19.038  0.00  0.00    +0.000 A 
ATOM     18  C   UNL     1      -4.067  11.187  18.319  0.00  0.00    +0.000 A 
ATOM     19  C   UNL     1      -3.846  10.386  17.198  0.00  0.00    +0.000 A 
ATOM     20  C   UNL     1      -2.555  10.068  16.797  0.00  0.00    +0.000 A 
ATOM     21  C   UNL     1      -1.452  10.541  17.515  0.00  0.00    +0.000 A 
ATOM     22  C   UNL     1      -1.646  11.355  18.653  0.00  0.00    +0.000 A 
ENDBRANCH   7   9
ENDBRANCH   4   7
BRANCH   1  23
ATOM     23  C   UNL     1       2.044   6.400  18.185  0.00  0.00    +0.000 C 
BRANCH  23  33
ATOM     24  C   UNL     1       2.426   4.652  20.694  0.00  0.00    +0.000 C 
ATOM     25  C   UNL     1       3.475   4.943  19.684  0.00  0.00    +0.000 A 
ATOM     26  N   UNL     1       4.693   4.441  19.707  0.00  0.00    +0.000 NA
ATOM     27  C   UNL     1       5.356   5.001  18.645  0.00  0.00    +0.000 A 
ATOM     28  C   UNL     1       6.669   4.810  18.205  0.00  0.00    +0.000 A 
ATOM     29  N   UNL     1       7.140   5.486  17.120  0.00  0.00    +0.000 NA
ATOM     30  C   UNL     1       6.317   6.362  16.504  0.00  0.00    +0.000 A 
ATOM     31  C   UNL     1       5.003   6.627  16.872  0.00  0.00    +0.000 A 
ATOM     32  C   UNL     1       4.528   5.888  17.958  0.00  0.00    +0.000 A 
ATOM     33  N   UNL     1       3.303   5.777  18.595  0.00  0.00    +0.000 N 
ENDBRANCH  23  33
ENDBRANCH   1  23
TORSDOF 4
ENDMDL
MODEL 9
REMARK VINA RESULT:      -8.7      2.074      2.653
REMARK  Name = 
REMARK  7 active torsions:
REMARK  status: ('A' for Active; 'I' for Inactive)
REMARK    1  A    between atoms: C_1  and  C_2
REMARK    2  A    between atoms: N_10  and  C_11
REMARK    3  A    between atoms: C_11  and  C_12
REMARK    4  A    between atoms: C_15  and  C_16
REMARK    5  A    between atoms: C_16  and  C_18
REMARK    6  A    between atoms: N_23  and  C_24
REMARK    7  A    between atoms: N_23  and  C_25
REMARK                            x       y       z     vdW  Elec       q    Type
REMARK                         _______ _______ _______ _____ _____    ______ ____
ROOT
ATOM      1  C   UNL     1       2.312   6.076  19.140  0.00  0.00    +0.000 A 
ATOM      2  C   UNL     1       1.790   5.873  20.427  0.00  0.00    +0.000 A 
ATOM      3  C   UNL     1       1.286   6.950  21.163  0.00  0.00    +0.000 A 
ATOM      4  C   UNL     1       1.280   8.230  20.601  0.00  0.00    +0.000 A 
ATOM      5  C   UNL     1       1.945   8.460  19.393  0.00  0.00    +0.000 A 
ATOM      6  C   UNL     1       2.465   7.389  18.674  0.00  0.00    +0.000 A 
ENDROOT
BRANCH   4   7
ATOM      7  C   UNL     1       0.525   9.323  21.273  0.00  0.00    +0.000 C 
ATOM      8  O   UNL     1       0.147   9.157  22.430  0.00  0.00    +0.000 OA
BRANCH   7   9
ATOM      9  C   UNL     1       0.260  10.550  20.513  0.00  0.00    +0.000 A 
ATOM     10  C   UNL     1       0.789  11.811  20.739  0.00  0.00    +0.000 A 
ATOM     11  N   UNL     1       0.231  12.723  19.851  0.00  0.00    +0.000 N 
ATOM     12  C   UNL     1       0.376  14.131  19.849  0.00  0.00    +0.000 C 
ATOM     13  O   UNL     1      -0.638  14.811  19.741  0.00  0.00    +0.000 OA
ATOM     14  N   UNL     1       1.672  14.637  19.951  0.00  0.00    +0.000 N 
ATOM     15  C   UNL     1       2.921  13.911  19.738  0.00  0.00    +0.000 C 
ATOM     16  C   UNL     1       1.806  16.088  19.907  0.00  0.00    +0.000 C 
ATOM     17  C   UNL     1      -0.654  12.026  19.030  0.00  0.00    +0.000 A 
ATOM     18  C   UNL     1      -1.464  12.487  17.974  0.00  0.00    +0.000 A 
ATOM     19  C   UNL     1      -2.244  11.563  17.278  0.00  0.00    +0.000 A 
ATOM     20  C   UNL     1      -2.219  10.216  17.617  0.00  0.00    +0.000 A 
ATOM     21  C   UNL     1      -1.414   9.763  18.668  0.00  0.00    +0.000 A 
ATOM     22  C   UNL     1      -0.613  10.676  19.387  0.00  0.00    +0.000 A 
ENDBRANCH   7   9
ENDBRANCH   4   7
BRANCH   1  23
ATOM     23  C   UNL     1       2.594   4.912  18.217  0.00  0.00    +0.000 C 
BRANCH  23  33
ATOM     24  C   UNL     1       3.987   2.902  20.093  0.00  0.00    +0.000 C 
ATOM     25  C   UNL     1       4.648   3.646  18.992  0.00  0.00    +0.000 A 
ATOM     26  N   UNL     1       5.910   3.497  18.643  0.00  0.00    +0.000 NA
ATOM     27  C   UNL     1       6.136   4.401  17.637  0.00  0.00    +0.000 A 
ATOM     28  C   UNL     1       7.300   4.658  16.905  0.00  0.00    +0.000 A 
ATOM     29  N   UNL     1       7.313   5.624  15.944  0.00  0.00    +0.000 NA
ATOM     30  C   UNL     1       6.188   6.342  15.741  0.00  0.00    +0.000 A 
ATOM     31  C   UNL     1       4.989   6.169  16.422  0.00  0.00    +0.000 A 
ATOM     32  C   UNL     1       4.985   5.142  17.370  0.00  0.00    +0.000 A 
ATOM     33  N   UNL     1       4.022   4.589  18.197  0.00  0.00    +0.000 N 
ENDBRANCH  23  33
ENDBRANCH   1  23
TORSDOF 4
ENDMDL
