MODEL 1
REMARK VINA RESULT:      -7.8      0.000      0.000
REMARK  Name = 
REMARK  5 active torsions:
REMARK  status: ('A' for Active; 'I' for Inactive)
REMARK    1  A    between atoms: C_1  and  C_2
REMARK    2  A    between atoms: C_3  and  C_4
REMARK    3  A    between atoms: C_4  and  C_6
REMARK    4  A    between atoms: C_7  and  C_8
REMARK    5  A    between atoms: N_17  and  C_18
REMARK                            x       y       z     vdW  Elec       q    Type
REMARK                         _______ _______ _______ _____ _____    ______ ____
ROOT
ATOM      1  C   UNL     1       4.475   6.844  17.094  0.00  0.00    +0.000 C 
ATOM      2  C   UNL     1       5.455   6.145  17.961  0.00  0.00    +0.000 A 
ATOM      3  C   UNL     1       6.825   6.326  18.132  0.00  0.00    +0.000 A 
ATOM      4  N   UNL     1       7.232   5.572  19.204  0.00  0.00    +0.000 NA
ATOM      5  N   UNL     1       6.182   4.963  19.720  0.00  0.00    +0.000 NA
ATOM      6  N   UNL     1       5.113   5.207  18.928  0.00  0.00    +0.000 N 
ENDROOT
BRANCH   6   7
ATOM      7  C   UNL     1       3.888   4.535  19.178  0.00  0.00    +0.000 A 
ATOM      8  C   UNL     1       2.966   5.111  20.068  0.00  0.00    +0.000 A 
ATOM      9  C   UNL     1       1.750   4.476  20.332  0.00  0.00    +0.000 A 
ATOM     10  C   UNL     1       1.470   3.246  19.741  0.00  0.00    +0.000 A 
ATOM     11 CL   UNL     1      -0.016   2.451  20.084  0.00  0.00    +0.000 Cl
ATOM     12  C   UNL     1       2.393   2.650  18.884  0.00  0.00    +0.000 A 
ATOM     13  C   UNL     1       3.601   3.294  18.596  0.00  0.00    +0.000 A 
ENDBRANCH   6   7
BRANCH   3  14
ATOM     14  C   UNL     1       7.747   7.190  17.390  0.00  0.00    +0.000 C 
ATOM     15  O   UNL     1       8.056   7.022  16.214  0.00  0.00    +0.000 OA
BRANCH  14  16
ATOM     16  C   UNL     1       8.303   8.303  18.220  0.00  0.00    +0.000 C 
ATOM     17  C   UNL     1       8.410   9.568  17.779  0.00  0.00    +0.000 C 
BRANCH  17  18
ATOM     18  C   UNL     1       8.983  10.650  18.607  0.00  0.00    +0.000 A 
ATOM     19  C   UNL     1       9.367  10.442  19.944  0.00  0.00    +0.000 A 
ATOM     20  C   UNL     1       9.898  11.483  20.709  0.00  0.00    +0.000 A 
ATOM     21  C   UNL     1      10.067  12.735  20.137  0.00  0.00    +0.000 A 
ATOM     22  F   UNL     1      10.571  13.735  20.872  0.00  0.00    +0.000 F 
ATOM     23  C   UNL     1       9.723  12.960  18.808  0.00  0.00    +0.000 A 
ATOM     24  C   UNL     1       9.186  11.917  18.043  0.00  0.00    +0.000 A 
ENDBRANCH  17  18
ENDBRANCH  14  16
ENDBRANCH   3  14
TORSDOF 4
ENDMDL
MODEL 2
REMARK VINA RESULT:      -7.8      0.530      1.477
REMARK  Name = 
REMARK  5 active torsions:
REMARK  status: ('A' for Active; 'I' for Inactive)
REMARK    1  A    between atoms: C_1  and  C_2
REMARK    2  A    between atoms: C_3  and  C_4
REMARK    3  A    between atoms: C_4  and  C_6
REMARK    4  A    between atoms: C_7  and  C_8
REMARK    5  A    between atoms: N_17  and  C_18
REMARK                            x       y       z     vdW  Elec       q    Type
REMARK                         _______ _______ _______ _____ _____    ______ ____
ROOT
ATOM      1  C   UNL     1       4.630   6.760  16.701  0.00  0.00    +0.000 C 
ATOM      2  C   UNL     1       5.541   6.174  17.715  0.00  0.00    +0.000 A 
ATOM      3  C   UNL     1       6.853   6.487  18.061  0.00  0.00    +0.000 A 
ATOM      4  N   UNL     1       7.176   5.798  19.204  0.00  0.00    +0.000 NA
ATOM      5  N   UNL     1       6.124   5.105  19.595  0.00  0.00    +0.000 NA
ATOM      6  N   UNL     1       5.156   5.230  18.659  0.00  0.00    +0.000 N 
ENDROOT
BRANCH   6   7
ATOM      7  C   UNL     1       3.973   4.453  18.767  0.00  0.00    +0.000 A 
ATOM      8  C   UNL     1       3.980   3.134  18.284  0.00  0.00    +0.000 A 
ATOM      9  C   UNL     1       2.832   2.343  18.379  0.00  0.00    +0.000 A 
ATOM     10  C   UNL     1       1.665   2.880  18.919  0.00  0.00    +0.000 A 
ATOM     11 CL   UNL     1       0.245   1.915  19.015  0.00  0.00    +0.000 Cl
ATOM     12  C   UNL     1       1.639   4.199  19.368  0.00  0.00    +0.000 A 
ATOM     13  C   UNL     1       2.792   4.987  19.299  0.00  0.00    +0.000 A 
ENDBRANCH   6   7
BRANCH   3  14
ATOM     14  C   UNL     1       7.787   7.416  17.420  0.00  0.00    +0.000 C 
ATOM     15  O   UNL     1       8.216   7.285  16.277  0.00  0.00    +0.000 OA
BRANCH  14  16
ATOM     16  C   UNL     1       8.190   8.548  18.310  0.00  0.00    +0.000 C 
ATOM     17  C   UNL     1       8.680   9.711  17.846  0.00  0.00    +0.000 C 
BRANCH  17  18
ATOM     18  C   UNL     1       9.094  10.809  18.744  0.00  0.00    +0.000 A 
ATOM     19  C   UNL     1       9.135  12.148  18.315  0.00  0.00    +0.000 A 
ATOM     20  C   UNL     1       9.538  13.168  19.180  0.00  0.00    +0.000 A 
ATOM     21  C   UNL     1       9.884  12.859  20.486  0.00  0.00    +0.000 A 
ATOM     22  F   UNL     1      10.277  13.836  21.315  0.00  0.00    +0.000 F 
ATOM     23  C   UNL     1       9.825  11.548  20.946  0.00  0.00    +0.000 A 
ATOM     24  C   UNL     1       9.425  10.525  20.076  0.00  0.00    +0.000 A 
ENDBRANCH  17  18
ENDBRANCH  14  16
ENDBRANCH   3  14
TORSDOF 4
ENDMDL
MODEL 3
REMARK VINA RESULT:      -7.7      1.136      2.025
REMARK  Name = 
REMARK  5 active torsions:
REMARK  status: ('A' for Active; 'I' for Inactive)
REMARK    1  A    between atoms: C_1  and  C_2
REMARK    2  A    between atoms: C_3  and  C_4
REMARK    3  A    between atoms: C_4  and  C_6
REMARK    4  A    between atoms: C_7  and  C_8
REMARK    5  A    between atoms: N_17  and  C_18
REMARK                            x       y       z     vdW  Elec       q    Type
REMARK                         _______ _______ _______ _____ _____    ______ ____
ROOT
ATOM      1  C   UNL     1       6.873   5.206  19.571  0.00  0.00    +0.000 C 
ATOM      2  C   UNL     1       5.949   5.782  18.563  0.00  0.00    +0.000 A 
ATOM      3  C   UNL     1       6.187   6.583  17.449  0.00  0.00    +0.000 A 
ATOM      4  N   UNL     1       5.027   6.670  16.721  0.00  0.00    +0.000 NA
ATOM      5  N   UNL     1       4.099   5.941  17.310  0.00  0.00    +0.000 NA
ATOM      6  N   UNL     1       4.596   5.477  18.480  0.00  0.00    +0.000 N 
ENDROOT
BRANCH   6   7
ATOM      7  C   UNL     1       3.740   4.791  19.381  0.00  0.00    +0.000 A 
ATOM      8  C   UNL     1       3.849   3.395  19.492  0.00  0.00    +0.000 A 
ATOM      9  C   UNL     1       3.024   2.693  20.374  0.00  0.00    +0.000 A 
ATOM     10  C   UNL     1       2.062   3.376  21.114  0.00  0.00    +0.000 A 
ATOM     11 CL   UNL     1       1.030   2.510  22.182  0.00  0.00    +0.000 Cl
ATOM     12  C   UNL     1       1.923   4.757  20.985  0.00  0.00    +0.000 A 
ATOM     13  C   UNL     1       2.764   5.469  20.123  0.00  0.00    +0.000 A 
ENDBRANCH   6   7
BRANCH   3  14
ATOM     14  C   UNL     1       7.433   7.219  17.011  0.00  0.00    +0.000 C 
ATOM     15  O   UNL     1       8.066   6.883  16.014  0.00  0.00    +0.000 OA
BRANCH  14  16
ATOM     16  C   UNL     1       7.879   8.320  17.919  0.00  0.00    +0.000 C 
ATOM     17  C   UNL     1       8.394   9.479  17.473  0.00  0.00    +0.000 C 
BRANCH  17  18
ATOM     18  C   UNL     1       8.850  10.546  18.388  0.00  0.00    +0.000 A 
ATOM     19  C   UNL     1       8.835  11.902  18.017  0.00  0.00    +0.000 A 
ATOM     20  C   UNL     1       9.279  12.893  18.897  0.00  0.00    +0.000 A 
ATOM     21  C   UNL     1       9.723  12.536  20.161  0.00  0.00    +0.000 A 
ATOM     22  F   UNL     1      10.155  13.484  21.002  0.00  0.00    +0.000 F 
ATOM     23  C   UNL     1       9.720  11.205  20.564  0.00  0.00    +0.000 A 
ATOM     24  C   UNL     1       9.279  10.212  19.680  0.00  0.00    +0.000 A 
ENDBRANCH  17  18
ENDBRANCH  14  16
ENDBRANCH   3  14
TORSDOF 4
ENDMDL
MODEL 4
REMARK VINA RESULT:      -7.7      1.213      1.825
REMARK  Name = 
REMARK  5 active torsions:
REMARK  status: ('A' for Active; 'I' for Inactive)
REMARK    1  A    between atoms: C_1  and  C_2
REMARK    2  A    between atoms: C_3  and  C_4
REMARK    3  A    between atoms: C_4  and  C_6
REMARK    4  A    between atoms: C_7  and  C_8
REMARK    5  A    between atoms: N_17  and  C_18
REMARK                            x       y       z     vdW  Elec       q    Type
REMARK                         _______ _______ _______ _____ _____    ______ ____
ROOT
ATOM      1  C   UNL     1       6.812   5.149  19.451  0.00  0.00    +0.000 C 
ATOM      2  C   UNL     1       5.850   5.821  18.544  0.00  0.00    +0.000 A 
ATOM      3  C   UNL     1       6.050   6.695  17.477  0.00  0.00    +0.000 A 
ATOM      4  N   UNL     1       4.852   6.866  16.828  0.00  0.00    +0.000 NA
ATOM      5  N   UNL     1       3.937   6.122  17.418  0.00  0.00    +0.000 NA
ATOM      6  N   UNL     1       4.486   5.561  18.520  0.00  0.00    +0.000 N 
ENDROOT
BRANCH   6   7
ATOM      7  C   UNL     1       3.663   4.835  19.420  0.00  0.00    +0.000 A 
ATOM      8  C   UNL     1       3.865   3.453  19.563  0.00  0.00    +0.000 A 
ATOM      9  C   UNL     1       3.073   2.712  20.444  0.00  0.00    +0.000 A 
ATOM     10  C   UNL     1       2.053   3.341  21.152  0.00  0.00    +0.000 A 
ATOM     11 CL   UNL     1       1.062   2.426  22.219  0.00  0.00    +0.000 Cl
ATOM     12  C   UNL     1       1.821   4.706  20.991  0.00  0.00    +0.000 A 
ATOM     13  C   UNL     1       2.628   5.458  20.130  0.00  0.00    +0.000 A 
ENDBRANCH   6   7
BRANCH   3  14
ATOM     14  C   UNL     1       7.287   7.326  17.012  0.00  0.00    +0.000 C 
ATOM     15  O   UNL     1       8.056   6.822  16.198  0.00  0.00    +0.000 OA
BRANCH  14  16
ATOM     16  C   UNL     1       7.542   8.655  17.648  0.00  0.00    +0.000 C 
ATOM     17  C   UNL     1       8.727   9.005  18.175  0.00  0.00    +0.000 C 
BRANCH  17  18
ATOM     18  C   UNL     1       8.952  10.316  18.819  0.00  0.00    +0.000 A 
ATOM     19  C   UNL     1       9.293  10.431  20.178  0.00  0.00    +0.000 A 
ATOM     20  C   UNL     1       9.492  11.682  20.766  0.00  0.00    +0.000 A 
ATOM     21  C   UNL     1       9.371  12.827  19.993  0.00  0.00    +0.000 A 
ATOM     22  F   UNL     1       9.556  14.028  20.558  0.00  0.00    +0.000 F 
ATOM     23  C   UNL     1       9.064  12.741  18.640  0.00  0.00    +0.000 A 
ATOM     24  C   UNL     1       8.860  11.486  18.052  0.00  0.00    +0.000 A 
ENDBRANCH  17  18
ENDBRANCH  14  16
ENDBRANCH   3  14
TORSDOF 4
ENDMDL
MODEL 5
REMARK VINA RESULT:      -7.6      6.635      8.820
REMARK  Name = 
REMARK  5 active torsions:
REMARK  status: ('A' for Active; 'I' for Inactive)
REMARK    1  A    between atoms: C_1  and  C_2
REMARK    2  A    between atoms: C_3  and  C_4
REMARK    3  A    between atoms: C_4  and  C_6
REMARK    4  A    between atoms: C_7  and  C_8
REMARK    5  A    between atoms: N_17  and  C_18
REMARK                            x       y       z     vdW  Elec       q    Type
REMARK                         _______ _______ _______ _____ _____    ______ ____
ROOT
ATOM      1  C   UNL     1       2.280   8.929  17.794  0.00  0.00    +0.000 C 
ATOM      2  C   UNL     1       2.163   8.053  18.985  0.00  0.00    +0.000 A 
ATOM      3  C   UNL     1       1.525   8.246  20.208  0.00  0.00    +0.000 A 
ATOM      4  N   UNL     1       1.527   7.055  20.890  0.00  0.00    +0.000 NA
ATOM      5  N   UNL     1       2.103   6.135  20.141  0.00  0.00    +0.000 NA
ATOM      6  N   UNL     1       2.590   6.732  19.029  0.00  0.00    +0.000 N 
ENDROOT
BRANCH   6   7
ATOM      7  C   UNL     1       3.395   5.985  18.129  0.00  0.00    +0.000 A 
ATOM      8  C   UNL     1       4.478   6.620  17.498  0.00  0.00    +0.000 A 
ATOM      9  C   UNL     1       5.290   5.910  16.610  0.00  0.00    +0.000 A 
ATOM     10  C   UNL     1       4.999   4.580  16.319  0.00  0.00    +0.000 A 
ATOM     11 CL   UNL     1       5.983   3.712  15.208  0.00  0.00    +0.000 Cl
ATOM     12  C   UNL     1       3.905   3.952  16.912  0.00  0.00    +0.000 A 
ATOM     13  C   UNL     1       3.104   4.650  17.822  0.00  0.00    +0.000 A 
ENDBRANCH   6   7
BRANCH   3  14
ATOM     14  C   UNL     1       0.881   9.449  20.741  0.00  0.00    +0.000 C 
ATOM     15  O   UNL     1       1.346  10.140  21.643  0.00  0.00    +0.000 OA
BRANCH  14  16
ATOM     16  C   UNL     1      -0.429   9.752  20.085  0.00  0.00    +0.000 C 
ATOM     17  C   UNL     1      -0.532  10.377  18.900  0.00  0.00    +0.000 C 
BRANCH  17  18
ATOM     18  C   UNL     1      -1.836  10.687  18.279  0.00  0.00    +0.000 A 
ATOM     19  C   UNL     1      -2.230  10.125  17.051  0.00  0.00    +0.000 A 
ATOM     20  C   UNL     1      -3.466  10.441  16.481  0.00  0.00    +0.000 A 
ATOM     21  C   UNL     1      -4.324  11.305  17.143  0.00  0.00    +0.000 A 
ATOM     22  F   UNL     1      -5.506  11.613  16.592  0.00  0.00    +0.000 F 
ATOM     23  C   UNL     1      -3.972  11.852  18.372  0.00  0.00    +0.000 A 
ATOM     24  C   UNL     1      -2.731  11.539  18.941  0.00  0.00    +0.000 A 
ENDBRANCH  17  18
ENDBRANCH  14  16
ENDBRANCH   3  14
TORSDOF 4
ENDMDL
MODEL 6
REMARK VINA RESULT:      -7.6      0.284      1.004
REMARK  Name = 
REMARK  5 active torsions:
REMARK  status: ('A' for Active; 'I' for Inactive)
REMARK    1  A    between atoms: C_1  and  C_2
REMARK    2  A    between atoms: C_3  and  C_4
REMARK    3  A    between atoms: C_4  and  C_6
REMARK    4  A    between atoms: C_7  and  C_8
REMARK    5  A    between atoms: N_17  and  C_18
REMARK                            x       y       z     vdW  Elec       q    Type
REMARK                         _______ _______ _______ _____ _____    ______ ____
ROOT
ATOM      1  C   UNL     1       4.520   6.703  17.102  0.00  0.00    +0.000 C 
ATOM      2  C   UNL     1       5.502   6.068  18.015  0.00  0.00    +0.000 A 
ATOM      3  C   UNL     1       6.873   6.263  18.170  0.00  0.00    +0.000 A 
ATOM      4  N   UNL     1       7.282   5.588  19.293  0.00  0.00    +0.000 NA
ATOM      5  N   UNL     1       6.234   5.015  19.852  0.00  0.00    +0.000 NA
ATOM      6  N   UNL     1       5.163   5.201  19.046  0.00  0.00    +0.000 N 
ENDROOT
BRANCH   6   7
ATOM      7  C   UNL     1       3.940   4.547  19.346  0.00  0.00    +0.000 A 
ATOM      8  C   UNL     1       2.984   5.217  20.127  0.00  0.00    +0.000 A 
ATOM      9  C   UNL     1       1.768   4.601  20.435  0.00  0.00    +0.000 A 
ATOM     10  C   UNL     1       1.522   3.301  20.000  0.00  0.00    +0.000 A 
ATOM     11 CL   UNL     1       0.037   2.532  20.399  0.00  0.00    +0.000 Cl
ATOM     12  C   UNL     1       2.479   2.615  19.255  0.00  0.00    +0.000 A 
ATOM     13  C   UNL     1       3.687   3.236  18.921  0.00  0.00    +0.000 A 
ENDBRANCH   6   7
BRANCH   3  14
ATOM     14  C   UNL     1       7.792   7.074  17.367  0.00  0.00    +0.000 C 
ATOM     15  O   UNL     1       8.015   6.888  16.174  0.00  0.00    +0.000 OA
BRANCH  14  16
ATOM     16  C   UNL     1       8.460   8.155  18.155  0.00  0.00    +0.000 C 
ATOM     17  C   UNL     1       8.373   9.458  17.839  0.00  0.00    +0.000 C 
BRANCH  17  18
ATOM     18  C   UNL     1       9.060  10.510  18.618  0.00  0.00    +0.000 A 
ATOM     19  C   UNL     1       9.623  11.643  18.005  0.00  0.00    +0.000 A 
ATOM     20  C   UNL     1      10.275  12.620  18.763  0.00  0.00    +0.000 A 
ATOM     21  C   UNL     1      10.350  12.479  20.140  0.00  0.00    +0.000 A 
ATOM     22  F   UNL     1      10.981  13.412  20.866  0.00  0.00    +0.000 F 
ATOM     23  C   UNL     1       9.776  11.383  20.774  0.00  0.00    +0.000 A 
ATOM     24  C   UNL     1       9.127  10.402  20.014  0.00  0.00    +0.000 A 
ENDBRANCH  17  18
ENDBRANCH  14  16
ENDBRANCH   3  14
TORSDOF 4
ENDMDL
MODEL 7
REMARK VINA RESULT:      -7.5      6.081      7.578
REMARK  Name = 
REMARK  5 active torsions:
REMARK  status: ('A' for Active; 'I' for Inactive)
REMARK    1  A    between atoms: C_1  and  C_2
REMARK    2  A    between atoms: C_3  and  C_4
REMARK    3  A    between atoms: C_4  and  C_6
REMARK    4  A    between atoms: C_7  and  C_8
REMARK    5  A    between atoms: N_17  and  C_18
REMARK                            x       y       z     vdW  Elec       q    Type
REMARK                         _______ _______ _______ _____ _____    ______ ____
ROOT
ATOM      1  C   UNL     1       1.881   5.590  20.660  0.00  0.00    +0.000 C 
ATOM      2  C   UNL     1       2.434   6.505  19.633  0.00  0.00    +0.000 A 
ATOM      3  C   UNL     1       3.297   6.274  18.564  0.00  0.00    +0.000 A 
ATOM      4  N   UNL     1       3.335   7.404  17.785  0.00  0.00    +0.000 NA
ATOM      5  N   UNL     1       2.521   8.304  18.300  0.00  0.00    +0.000 NA
ATOM      6  N   UNL     1       2.043   7.829  19.473  0.00  0.00    +0.000 N 
ENDROOT
BRANCH   6   7
ATOM      7  C   UNL     1       1.262   8.674  20.305  0.00  0.00    +0.000 A 
ATOM      8  C   UNL     1       0.479   9.677  19.711  0.00  0.00    +0.000 A 
ATOM      9  C   UNL     1      -0.303  10.522  20.504  0.00  0.00    +0.000 A 
ATOM     10  C   UNL     1      -0.272  10.393  21.890  0.00  0.00    +0.000 A 
ATOM     11 CL   UNL     1      -1.215  11.448  22.868  0.00  0.00    +0.000 Cl
ATOM     12  C   UNL     1       0.529   9.423  22.490  0.00  0.00    +0.000 A 
ATOM     13  C   UNL     1       1.294   8.558  21.701  0.00  0.00    +0.000 A 
ENDBRANCH   6   7
BRANCH   3  14
ATOM     14  C   UNL     1       4.033   5.057  18.212  0.00  0.00    +0.000 C 
ATOM     15  O   UNL     1       4.098   4.058  18.923  0.00  0.00    +0.000 OA
BRANCH  14  16
ATOM     16  C   UNL     1       4.728   5.155  16.891  0.00  0.00    +0.000 C 
ATOM     17  C   UNL     1       5.035   4.084  16.139  0.00  0.00    +0.000 C 
BRANCH  17  18
ATOM     18  C   UNL     1       5.742   4.200  14.847  0.00  0.00    +0.000 A 
ATOM     19  C   UNL     1       6.931   4.939  14.711  0.00  0.00    +0.000 A 
ATOM     20  C   UNL     1       7.576   5.040  13.476  0.00  0.00    +0.000 A 
ATOM     21  C   UNL     1       7.048   4.388  12.372  0.00  0.00    +0.000 A 
ATOM     22  F   UNL     1       7.663   4.491  11.186  0.00  0.00    +0.000 F 
ATOM     23  C   UNL     1       5.889   3.627  12.485  0.00  0.00    +0.000 A 
ATOM     24  C   UNL     1       5.240   3.530  13.722  0.00  0.00    +0.000 A 
ENDBRANCH  17  18
ENDBRANCH  14  16
ENDBRANCH   3  14
TORSDOF 4
ENDMDL
MODEL 8
REMARK VINA RESULT:      -7.5      6.779      8.918
REMARK  Name = 
REMARK  5 active torsions:
REMARK  status: ('A' for Active; 'I' for Inactive)
REMARK    1  A    between atoms: C_1  and  C_2
REMARK    2  A    between atoms: C_3  and  C_4
REMARK    3  A    between atoms: C_4  and  C_6
REMARK    4  A    between atoms: C_7  and  C_8
REMARK    5  A    between atoms: N_17  and  C_18
REMARK                            x       y       z     vdW  Elec       q    Type
REMARK                         _______ _______ _______ _____ _____    ______ ____
ROOT
ATOM      1  C   UNL     1       2.170   8.975  17.710  0.00  0.00    +0.000 C 
ATOM      2  C   UNL     1       2.122   8.136  18.932  0.00  0.00    +0.000 A 
ATOM      3  C   UNL     1       1.510   8.343  20.166  0.00  0.00    +0.000 A 
ATOM      4  N   UNL     1       1.580   7.176  20.886  0.00  0.00    +0.000 NA
ATOM      5  N   UNL     1       2.173   6.256  20.150  0.00  0.00    +0.000 NA
ATOM      6  N   UNL     1       2.604   6.835  19.006  0.00  0.00    +0.000 N 
ENDROOT
BRANCH   6   7
ATOM      7  C   UNL     1       3.414   6.092  18.107  0.00  0.00    +0.000 A 
ATOM      8  C   UNL     1       4.477   6.738  17.457  0.00  0.00    +0.000 A 
ATOM      9  C   UNL     1       5.294   6.032  16.570  0.00  0.00    +0.000 A 
ATOM     10  C   UNL     1       5.026   4.693  16.300  0.00  0.00    +0.000 A 
ATOM     11 CL   UNL     1       6.015   3.829  15.190  0.00  0.00    +0.000 Cl
ATOM     12  C   UNL     1       3.951   4.052  16.914  0.00  0.00    +0.000 A 
ATOM     13  C   UNL     1       3.146   4.747  17.823  0.00  0.00    +0.000 A 
ENDBRANCH   6   7
BRANCH   3  14
ATOM     14  C   UNL     1       0.833   9.537  20.678  0.00  0.00    +0.000 C 
ATOM     15  O   UNL     1       1.285  10.265  21.558  0.00  0.00    +0.000 OA
BRANCH  14  16
ATOM     16  C   UNL     1      -0.494   9.780  20.032  0.00  0.00    +0.000 C 
ATOM     17  C   UNL     1      -0.738  10.824  19.221  0.00  0.00    +0.000 C 
BRANCH  17  18
ATOM     18  C   UNL     1      -2.063  11.058  18.609  0.00  0.00    +0.000 A 
ATOM     19  C   UNL     1      -3.015  11.910  19.197  0.00  0.00    +0.000 A 
ATOM     20  C   UNL     1      -4.264  12.109  18.603  0.00  0.00    +0.000 A 
ATOM     21  C   UNL     1      -4.562  11.473  17.408  0.00  0.00    +0.000 A 
ATOM     22  F   UNL     1      -5.762  11.659  16.842  0.00  0.00    +0.000 F 
ATOM     23  C   UNL     1      -3.628  10.649  16.790  0.00  0.00    +0.000 A 
ATOM     24  C   UNL     1      -2.378  10.446  17.388  0.00  0.00    +0.000 A 
ENDBRANCH  17  18
ENDBRANCH  14  16
ENDBRANCH   3  14
TORSDOF 4
ENDMDL
MODEL 9
REMARK VINA RESULT:      -7.5      7.136      9.205
REMARK  Name = 
REMARK  5 active torsions:
REMARK  status: ('A' for Active; 'I' for Inactive)
REMARK    1  A    between atoms: C_1  and  C_2
REMARK    2  A    between atoms: C_3  and  C_4
REMARK    3  A    between atoms: C_4  and  C_6
REMARK    4  A    between atoms: C_7  and  C_8
REMARK    5  A    between atoms: N_17  and  C_18
REMARK                            x       y       z     vdW  Elec       q    Type
REMARK                         _______ _______ _______ _____ _____    ______ ____
ROOT
ATOM      1  C   UNL     1       1.440   7.765  20.857  0.00  0.00    +0.000 C 
ATOM      2  C   UNL     1       1.664   8.211  19.460  0.00  0.00    +0.000 A 
ATOM      3  C   UNL     1       1.451   9.442  18.843  0.00  0.00    +0.000 A 
ATOM      4  N   UNL     1       2.016   9.403  17.592  0.00  0.00    +0.000 NA
ATOM      5  N   UNL     1       2.590   8.228  17.420  0.00  0.00    +0.000 NA
ATOM      6  N   UNL     1       2.304   7.451  18.489  0.00  0.00    +0.000 N 
ENDROOT
BRANCH   6   7
ATOM      7  C   UNL     1       2.676   6.081  18.478  0.00  0.00    +0.000 A 
ATOM      8  C   UNL     1       1.807   5.144  17.895  0.00  0.00    +0.000 A 
ATOM      9  C   UNL     1       2.148   3.790  17.866  0.00  0.00    +0.000 A 
ATOM     10  C   UNL     1       3.336   3.363  18.455  0.00  0.00    +0.000 A 
ATOM     11 CL   UNL     1       3.745   1.693  18.441  0.00  0.00    +0.000 Cl
ATOM     12  C   UNL     1       4.188   4.280  19.067  0.00  0.00    +0.000 A 
ATOM     13  C   UNL     1       3.864   5.641  19.076  0.00  0.00    +0.000 A 
ENDBRANCH   6   7
BRANCH   3  14
ATOM     14  C   UNL     1       0.804  10.646  19.370  0.00  0.00    +0.000 C 
ATOM     15  O   UNL     1       1.391  11.536  19.978  0.00  0.00    +0.000 OA
BRANCH  14  16
ATOM     16  C   UNL     1      -0.669  10.680  19.111  0.00  0.00    +0.000 C 
ATOM     17  C   UNL     1      -1.257  11.597  18.324  0.00  0.00    +0.000 C 
BRANCH  17  18
ATOM     18  C   UNL     1      -2.718  11.628  18.099  0.00  0.00    +0.000 A 
ATOM     19  C   UNL     1      -3.293  11.223  16.882  0.00  0.00    +0.000 A 
ATOM     20  C   UNL     1      -4.676  11.269  16.690  0.00  0.00    +0.000 A 
ATOM     21  C   UNL     1      -5.495  11.702  17.721  0.00  0.00    +0.000 A 
ATOM     22  F   UNL     1      -6.821  11.753  17.536  0.00  0.00    +0.000 F 
ATOM     23  C   UNL     1      -4.955  12.081  18.945  0.00  0.00    +0.000 A 
ATOM     24  C   UNL     1      -3.568  12.039  19.135  0.00  0.00    +0.000 A 
ENDBRANCH  17  18
ENDBRANCH  14  16
ENDBRANCH   3  14
TORSDOF 4
ENDMDL
