MODEL 1
REMARK VINA RESULT:      -7.9      0.000      0.000
REMARK  Name = 
REMARK  9 active torsions:
REMARK  status: ('A' for Active; 'I' for Inactive)
REMARK    1  A    between atoms: C_1  and  C_2
REMARK    2  A    between atoms: C_2  and  O_3
REMARK    3  A    between atoms: O_3  and  C_4
REMARK    4  A    between atoms: C_4  and  C_6
REMARK    5  A    between atoms: N_13  and  C_14
REMARK    6  A    between atoms: C_17  and  C_18
REMARK    7  A    between atoms: C_18  and  C_19
REMARK    8  A    between atoms: C_26  and  C_27
REMARK    9  A    between atoms: C_28  and  C_29
REMARK                            x       y       z     vdW  Elec       q    Type
REMARK                         _______ _______ _______ _____ _____    ______ ____
ROOT
ATOM      1  C   UNL     1       4.721   5.229  16.650  0.00  0.00    +0.000 A 
ATOM      2  C   UNL     1       3.624   4.709  17.332  0.00  0.00    +0.000 A 
ATOM      3  C   UNL     1       2.782   5.574  18.022  0.00  0.00    +0.000 A 
ATOM      4  C   UNL     1       3.031   6.946  18.015  0.00  0.00    +0.000 A 
ATOM      5  N   UNL     1       2.079   7.783  18.579  0.00  0.00    +0.000 N 
ATOM      6  C   UNL     1       2.065   9.161  18.073  0.00  0.00    +0.000 C 
ATOM      7  C   UNL     1       0.703   9.790  18.424  0.00  0.00    +0.000 C 
ATOM      8  N   UNL     1       0.356   9.645  19.847  0.00  0.00    +0.000 N 
ATOM      9  C   UNL     1       0.630   8.343  20.484  0.00  0.00    +0.000 C 
ATOM     10  C   UNL     1       1.990   7.750  20.049  0.00  0.00    +0.000 C 
ATOM     11  N   UNL     1       4.099   7.462  17.365  0.00  0.00    +0.000 NA
ATOM     12  C   UNL     1       4.923   6.603  16.710  0.00  0.00    +0.000 A 
ENDROOT
BRANCH   8  13
ATOM     13  C   UNL     1      -0.098  10.702  20.609  0.00  0.00    +0.000 A 
ATOM     14  N   UNL     1       0.254  10.742  21.911  0.00  0.00    +0.000 NA
ATOM     15  N   UNL     1      -0.097  11.795  22.730  0.00  0.00    +0.000 NA
ATOM     16  C   UNL     1      -0.757  12.861  22.236  0.00  0.00    +0.000 A 
ATOM     17  C   UNL     1      -1.125  12.900  20.889  0.00  0.00    +0.000 A 
ATOM     18  C   UNL     1      -1.794  14.101  20.277  0.00  0.00    +0.000 C 
ATOM     19  C   UNL     1      -0.884  11.747  20.096  0.00  0.00    +0.000 A 
ATOM     20  C   UNL     1      -1.538  11.636  18.737  0.00  0.00    +0.000 C 
BRANCH  16  21
ATOM     21  C   UNL     1      -1.159  13.903  23.259  0.00  0.00    +0.000 C 
BRANCH  21  22
ATOM     22  C   UNL     1      -2.639  13.856  23.587  0.00  0.00    +0.000 A 
ATOM     23  C   UNL     1      -3.242  12.633  23.931  0.00  0.00    +0.000 A 
ATOM     24  C   UNL     1      -4.624  12.544  24.096  0.00  0.00    +0.000 A 
ATOM     25  C   UNL     1      -5.404  13.682  23.941  0.00  0.00    +0.000 A 
ATOM     26  F   UNL     1      -6.736  13.589  24.046  0.00  0.00    +0.000 F 
ATOM     27  C   UNL     1      -4.823  14.915  23.665  0.00  0.00    +0.000 A 
ATOM     28  C   UNL     1      -3.440  15.005  23.494  0.00  0.00    +0.000 A 
ENDBRANCH  21  22
ENDBRANCH  16  21
ENDBRANCH   8  13
BRANCH   1  29
ATOM     29  C   UNL     1       5.594   4.419  15.782  0.00  0.00    +0.000 C 
ATOM     30  O   UNL     1       6.387   3.592  16.205  0.00  0.00    +0.000 OA
BRANCH  29  31
ATOM     31  O   UNL     1       5.460   4.825  14.497  0.00  0.00    +0.000 OA
BRANCH  31  33
ATOM     32  C   UNL     1       5.901   3.461  12.590  0.00  0.00    +0.000 C 
ATOM     33  C   UNL     1       6.503   4.416  13.605  0.00  0.00    +0.000 C 
ENDBRANCH  31  33
ENDBRANCH  29  31
ENDBRANCH   1  29
TORSDOF 6
ENDMDL
MODEL 2
REMARK VINA RESULT:      -7.9      5.263     12.105
REMARK  Name = 
REMARK  9 active torsions:
REMARK  status: ('A' for Active; 'I' for Inactive)
REMARK    1  A    between atoms: C_1  and  C_2
REMARK    2  A    between atoms: C_2  and  O_3
REMARK    3  A    between atoms: O_3  and  C_4
REMARK    4  A    between atoms: C_4  and  C_6
REMARK    5  A    between atoms: N_13  and  C_14
REMARK    6  A    between atoms: C_17  and  C_18
REMARK    7  A    between atoms: C_18  and  C_19
REMARK    8  A    between atoms: C_26  and  C_27
REMARK    9  A    between atoms: C_28  and  C_29
REMARK                            x       y       z     vdW  Elec       q    Type
REMARK                         _______ _______ _______ _____ _____    ______ ____
ROOT
ATOM      1  C   UNL     1      -1.231  13.198  21.249  0.00  0.00    +0.000 A 
ATOM      2  C   UNL     1      -1.660  12.688  20.026  0.00  0.00    +0.000 A 
ATOM      3  C   UNL     1      -0.964  11.631  19.450  0.00  0.00    +0.000 A 
ATOM      4  C   UNL     1       0.141  11.083  20.102  0.00  0.00    +0.000 A 
ATOM      5  N   UNL     1       0.703   9.931  19.572  0.00  0.00    +0.000 N 
ATOM      6  C   UNL     1       1.435   9.086  20.523  0.00  0.00    +0.000 C 
ATOM      7  C   UNL     1       1.569   7.678  19.913  0.00  0.00    +0.000 C 
ATOM      8  N   UNL     1       2.116   7.695  18.547  0.00  0.00    +0.000 N 
ATOM      9  C   UNL     1       1.614   8.733  17.627  0.00  0.00    +0.000 C 
ATOM     10  C   UNL     1       1.459  10.107  18.319  0.00  0.00    +0.000 C 
ATOM     11  N   UNL     1       0.573  11.577  21.285  0.00  0.00    +0.000 NA
ATOM     12  C   UNL     1      -0.106  12.621  21.826  0.00  0.00    +0.000 A 
ENDROOT
BRANCH   8  13
ATOM     13  C   UNL     1       3.143   6.864  18.151  0.00  0.00    +0.000 A 
ATOM     14  N   UNL     1       4.266   7.430  17.663  0.00  0.00    +0.000 NA
ATOM     15  N   UNL     1       5.367   6.681  17.307  0.00  0.00    +0.000 NA
ATOM     16  C   UNL     1       5.381   5.346  17.496  0.00  0.00    +0.000 A 
ATOM     17  C   UNL     1       4.264   4.698  18.027  0.00  0.00    +0.000 A 
ATOM     18  C   UNL     1       4.263   3.223  18.326  0.00  0.00    +0.000 C 
ATOM     19  C   UNL     1       3.090   5.463  18.252  0.00  0.00    +0.000 A 
ATOM     20  C   UNL     1       1.785   4.750  18.527  0.00  0.00    +0.000 C 
BRANCH  16  21
ATOM     21  C   UNL     1       6.615   4.634  16.980  0.00  0.00    +0.000 C 
BRANCH  21  22
ATOM     22  C   UNL     1       6.681   4.610  15.464  0.00  0.00    +0.000 A 
ATOM     23  C   UNL     1       5.800   3.790  14.738  0.00  0.00    +0.000 A 
ATOM     24  C   UNL     1       5.939   3.645  13.358  0.00  0.00    +0.000 A 
ATOM     25  C   UNL     1       6.944   4.339  12.698  0.00  0.00    +0.000 A 
ATOM     26  F   UNL     1       7.113   4.161  11.381  0.00  0.00    +0.000 F 
ATOM     27  C   UNL     1       7.786   5.205  13.386  0.00  0.00    +0.000 A 
ATOM     28  C   UNL     1       7.651   5.348  14.769  0.00  0.00    +0.000 A 
ENDBRANCH  21  22
ENDBRANCH  16  21
ENDBRANCH   8  13
BRANCH   1  29
ATOM     29  C   UNL     1      -1.973  14.222  22.004  0.00  0.00    +0.000 C 
ATOM     30  O   UNL     1      -2.211  15.340  21.573  0.00  0.00    +0.000 OA
BRANCH  29  31
ATOM     31  O   UNL     1      -2.223  13.770  23.256  0.00  0.00    +0.000 OA
BRANCH  31  33
ATOM     32  C   UNL     1      -4.544  13.965  23.776  0.00  0.00    +0.000 C 
ATOM     33  C   UNL     1      -3.425  13.006  23.412  0.00  0.00    +0.000 C 
ENDBRANCH  31  33
ENDBRANCH  29  31
ENDBRANCH   1  29
TORSDOF 6
ENDMDL
MODEL 3
REMARK VINA RESULT:      -7.8      1.213      1.342
REMARK  Name = 
REMARK  9 active torsions:
REMARK  status: ('A' for Active; 'I' for Inactive)
REMARK    1  A    between atoms: C_1  and  C_2
REMARK    2  A    between atoms: C_2  and  O_3
REMARK    3  A    between atoms: O_3  and  C_4
REMARK    4  A    between atoms: C_4  and  C_6
REMARK    5  A    between atoms: N_13  and  C_14
REMARK    6  A    between atoms: C_17  and  C_18
REMARK    7  A    between atoms: C_18  and  C_19
REMARK    8  A    between atoms: C_26  and  C_27
REMARK    9  A    between atoms: C_28  and  C_29
REMARK                            x       y       z     vdW  Elec       q    Type
REMARK                         _______ _______ _______ _____ _____    ______ ____
ROOT
ATOM      1  C   UNL     1       5.351   5.201  16.190  0.00  0.00    +0.000 A 
ATOM      2  C   UNL     1       4.406   4.528  16.959  0.00  0.00    +0.000 A 
ATOM      3  C   UNL     1       3.508   5.261  17.726  0.00  0.00    +0.000 A 
ATOM      4  C   UNL     1       3.550   6.655  17.709  0.00  0.00    +0.000 A 
ATOM      5  N   UNL     1       2.537   7.345  18.360  0.00  0.00    +0.000 N 
ATOM      6  C   UNL     1       2.277   8.703  17.869  0.00  0.00    +0.000 C 
ATOM      7  C   UNL     1       0.872   9.126  18.341  0.00  0.00    +0.000 C 
ATOM      8  N   UNL     1       0.674   8.937  19.787  0.00  0.00    +0.000 N 
ATOM      9  C   UNL     1       1.190   7.693  20.387  0.00  0.00    +0.000 C 
ATOM     10  C   UNL     1       2.581   7.305  19.832  0.00  0.00    +0.000 C 
ATOM     11  N   UNL     1       4.471   7.321  16.974  0.00  0.00    +0.000 NA
ATOM     12  C   UNL     1       5.353   6.590  16.245  0.00  0.00    +0.000 A 
ENDROOT
BRANCH   8  13
ATOM     13  C   UNL     1       0.136   9.919  20.594  0.00  0.00    +0.000 A 
ATOM     14  N   UNL     1      -0.515   9.535  21.711  0.00  0.00    +0.000 NA
ATOM     15  N   UNL     1      -1.024  10.448  22.610  0.00  0.00    +0.000 NA
ATOM     16  C   UNL     1      -0.830  11.771  22.431  0.00  0.00    +0.000 A 
ATOM     17  C   UNL     1      -0.136  12.237  21.313  0.00  0.00    +0.000 A 
ATOM     18  C   UNL     1       0.170  13.696  21.112  0.00  0.00    +0.000 C 
ATOM     19  C   UNL     1       0.253  11.293  20.326  0.00  0.00    +0.000 A 
ATOM     20  C   UNL     1       0.722  11.787  18.976  0.00  0.00    +0.000 C 
BRANCH  16  21
ATOM     21  C   UNL     1      -1.517  12.666  23.442  0.00  0.00    +0.000 C 
BRANCH  21  22
ATOM     22  C   UNL     1      -3.024  12.688  23.270  0.00  0.00    +0.000 A 
ATOM     23  C   UNL     1      -3.580  12.826  21.986  0.00  0.00    +0.000 A 
ATOM     24  C   UNL     1      -4.956  12.991  21.822  0.00  0.00    +0.000 A 
ATOM     25  C   UNL     1      -5.780  12.995  22.939  0.00  0.00    +0.000 A 
ATOM     26  F   UNL     1      -7.094  13.207  22.788  0.00  0.00    +0.000 F 
ATOM     27  C   UNL     1      -5.259  12.797  24.213  0.00  0.00    +0.000 A 
ATOM     28  C   UNL     1      -3.882  12.636  24.380  0.00  0.00    +0.000 A 
ENDBRANCH  21  22
ENDBRANCH  16  21
ENDBRANCH   8  13
BRANCH   1  29
ATOM     29  C   UNL     1       6.256   4.525  15.244  0.00  0.00    +0.000 C 
ATOM     30  O   UNL     1       7.467   4.468  15.390  0.00  0.00    +0.000 OA
BRANCH  29  31
ATOM     31  O   UNL     1       5.554   4.106  14.165  0.00  0.00    +0.000 OA
BRANCH  31  33
ATOM     32  C   UNL     1       5.408   3.084  12.013  0.00  0.00    +0.000 C 
ATOM     33  C   UNL     1       6.333   3.746  13.018  0.00  0.00    +0.000 C 
ENDBRANCH  31  33
ENDBRANCH  29  31
ENDBRANCH   1  29
TORSDOF 6
ENDMDL
MODEL 4
REMARK VINA RESULT:      -7.5      2.188      2.779
REMARK  Name = 
REMARK  9 active torsions:
REMARK  status: ('A' for Active; 'I' for Inactive)
REMARK    1  A    between atoms: C_1  and  C_2
REMARK    2  A    between atoms: C_2  and  O_3
REMARK    3  A    between atoms: O_3  and  C_4
REMARK    4  A    between atoms: C_4  and  C_6
REMARK    5  A    between atoms: N_13  and  C_14
REMARK    6  A    between atoms: C_17  and  C_18
REMARK    7  A    between atoms: C_18  and  C_19
REMARK    8  A    between atoms: C_26  and  C_27
REMARK    9  A    between atoms: C_28  and  C_29
REMARK                            x       y       z     vdW  Elec       q    Type
REMARK                         _______ _______ _______ _____ _____    ______ ____
ROOT
ATOM      1  C   UNL     1       5.632   5.047  16.472  0.00  0.00    +0.000 A 
ATOM      2  C   UNL     1       4.530   4.428  17.056  0.00  0.00    +0.000 A 
ATOM      3  C   UNL     1       3.591   5.203  17.726  0.00  0.00    +0.000 A 
ATOM      4  C   UNL     1       3.750   6.587  17.797  0.00  0.00    +0.000 A 
ATOM      5  N   UNL     1       2.711   7.335  18.333  0.00  0.00    +0.000 N 
ATOM      6  C   UNL     1       2.640   8.732  17.889  0.00  0.00    +0.000 C 
ATOM      7  C   UNL     1       1.221   9.257  18.177  0.00  0.00    +0.000 C 
ATOM      8  N   UNL     1       0.793   9.022  19.565  0.00  0.00    +0.000 N 
ATOM      9  C   UNL     1       1.110   7.711  20.160  0.00  0.00    +0.000 C 
ATOM     10  C   UNL     1       2.531   7.225  19.791  0.00  0.00    +0.000 C 
ATOM     11  N   UNL     1       4.822   7.200  17.243  0.00  0.00    +0.000 NA
ATOM     12  C   UNL     1       5.740   6.426  16.608  0.00  0.00    +0.000 A 
ENDROOT
BRANCH   8  13
ATOM     13  C   UNL     1       0.224  10.010  20.342  0.00  0.00    +0.000 A 
ATOM     14  N   UNL     1       0.752  10.242  21.561  0.00  0.00    +0.000 NA
ATOM     15  N   UNL     1       0.291  11.254  22.377  0.00  0.00    +0.000 NA
ATOM     16  C   UNL     1      -0.672  12.096  21.951  0.00  0.00    +0.000 A 
ATOM     17  C   UNL     1      -1.240  11.934  20.686  0.00  0.00    +0.000 A 
ATOM     18  C   UNL     1      -2.262  12.895  20.139  0.00  0.00    +0.000 C 
ATOM     19  C   UNL     1      -0.857  10.802  19.919  0.00  0.00    +0.000 A 
ATOM     20  C   UNL     1      -1.667  10.429  18.698  0.00  0.00    +0.000 C 
BRANCH  16  21
ATOM     21  C   UNL     1      -1.147  13.105  22.976  0.00  0.00    +0.000 C 
BRANCH  21  22
ATOM     22  C   UNL     1      -0.713  14.520  22.644  0.00  0.00    +0.000 A 
ATOM     23  C   UNL     1      -1.640  15.574  22.726  0.00  0.00    +0.000 A 
ATOM     24  C   UNL     1      -1.300  16.855  22.289  0.00  0.00    +0.000 A 
ATOM     25  C   UNL     1      -0.025  17.089  21.792  0.00  0.00    +0.000 A 
ATOM     26  F   UNL     1       0.287  18.304  21.322  0.00  0.00    +0.000 F 
ATOM     27  C   UNL     1       0.928  16.077  21.762  0.00  0.00    +0.000 A 
ATOM     28  C   UNL     1       0.588  14.793  22.194  0.00  0.00    +0.000 A 
ENDBRANCH  21  22
ENDBRANCH  16  21
ENDBRANCH   8  13
BRANCH   1  29
ATOM     29  C   UNL     1       6.609   4.336  15.630  0.00  0.00    +0.000 C 
ATOM     30  O   UNL     1       7.813   4.534  15.678  0.00  0.00    +0.000 OA
BRANCH  29  31
ATOM     31  O   UNL     1       5.956   3.550  14.742  0.00  0.00    +0.000 OA
BRANCH  31  33
ATOM     32  C   UNL     1       6.040   3.166  12.388  0.00  0.00    +0.000 C 
ATOM     33  C   UNL     1       5.663   4.154  13.476  0.00  0.00    +0.000 C 
ENDBRANCH  31  33
ENDBRANCH  29  31
ENDBRANCH   1  29
TORSDOF 6
ENDMDL
MODEL 5
REMARK VINA RESULT:      -7.4      2.275      3.159
REMARK  Name = 
REMARK  9 active torsions:
REMARK  status: ('A' for Active; 'I' for Inactive)
REMARK    1  A    between atoms: C_1  and  C_2
REMARK    2  A    between atoms: C_2  and  O_3
REMARK    3  A    between atoms: O_3  and  C_4
REMARK    4  A    between atoms: C_4  and  C_6
REMARK    5  A    between atoms: N_13  and  C_14
REMARK    6  A    between atoms: C_17  and  C_18
REMARK    7  A    between atoms: C_18  and  C_19
REMARK    8  A    between atoms: C_26  and  C_27
REMARK    9  A    between atoms: C_28  and  C_29
REMARK                            x       y       z     vdW  Elec       q    Type
REMARK                         _______ _______ _______ _____ _____    ______ ____
ROOT
ATOM      1  C   UNL     1       3.617   5.485  18.492  0.00  0.00    +0.000 A 
ATOM      2  C   UNL     1       3.900   6.602  17.712  0.00  0.00    +0.000 A 
ATOM      3  C   UNL     1       3.190   7.778  17.927  0.00  0.00    +0.000 A 
ATOM      4  C   UNL     1       2.216   7.834  18.924  0.00  0.00    +0.000 A 
ATOM      5  N   UNL     1       1.649   9.068  19.211  0.00  0.00    +0.000 N 
ATOM      6  C   UNL     1       1.102   9.215  20.565  0.00  0.00    +0.000 C 
ATOM      7  C   UNL     1       0.962  10.719  20.867  0.00  0.00    +0.000 C 
ATOM      8  N   UNL     1       0.232  11.449  19.818  0.00  0.00    +0.000 N 
ATOM      9  C   UNL     1       0.547  11.116  18.416  0.00  0.00    +0.000 C 
ATOM     10  C   UNL     1       0.720   9.595  18.196  0.00  0.00    +0.000 C 
ATOM     11  N   UNL     1       1.924   6.752  19.681  0.00  0.00    +0.000 NA
ATOM     12  C   UNL     1       2.614   5.605  19.446  0.00  0.00    +0.000 A 
ENDROOT
BRANCH   8  13
ATOM     13  C   UNL     1      -0.793  12.326  20.103  0.00  0.00    +0.000 A 
ATOM     14  N   UNL     1      -2.056  11.934  19.837  0.00  0.00    +0.000 NA
ATOM     15  N   UNL     1      -3.146  12.718  20.152  0.00  0.00    +0.000 NA
ATOM     16  C   UNL     1      -2.987  13.889  20.802  0.00  0.00    +0.000 A 
ATOM     17  C   UNL     1      -1.709  14.341  21.137  0.00  0.00    +0.000 A 
ATOM     18  C   UNL     1      -1.488  15.602  21.928  0.00  0.00    +0.000 C 
ATOM     19  C   UNL     1      -0.592  13.593  20.677  0.00  0.00    +0.000 A 
ATOM     20  C   UNL     1       0.788  14.206  20.750  0.00  0.00    +0.000 C 
BRANCH  16  21
ATOM     21  C   UNL     1      -4.255  14.691  21.006  0.00  0.00    +0.000 C 
BRANCH  21  22
ATOM     22  C   UNL     1      -5.307  13.926  21.789  0.00  0.00    +0.000 A 
ATOM     23  C   UNL     1      -5.091  13.627  23.145  0.00  0.00    +0.000 A 
ATOM     24  C   UNL     1      -5.977  12.805  23.841  0.00  0.00    +0.000 A 
ATOM     25  C   UNL     1      -7.093  12.300  23.189  0.00  0.00    +0.000 A 
ATOM     26  F   UNL     1      -7.917  11.467  23.839  0.00  0.00    +0.000 F 
ATOM     27  C   UNL     1      -7.361  12.634  21.867  0.00  0.00    +0.000 A 
ATOM     28  C   UNL     1      -6.472  13.454  21.166  0.00  0.00    +0.000 A 
ENDBRANCH  21  22
ENDBRANCH  16  21
ENDBRANCH   8  13
BRANCH   1  29
ATOM     29  C   UNL     1       4.399   4.237  18.434  0.00  0.00    +0.000 C 
ATOM     30  O   UNL     1       5.288   3.960  19.224  0.00  0.00    +0.000 OA
BRANCH  29  31
ATOM     31  O   UNL     1       4.060   3.541  17.323  0.00  0.00    +0.000 OA
BRANCH  31  33
ATOM     32  C   UNL     1       3.382   1.609  18.549  0.00  0.00    +0.000 C 
ATOM     33  C   UNL     1       2.984   2.609  17.479  0.00  0.00    +0.000 C 
ENDBRANCH  31  33
ENDBRANCH  29  31
ENDBRANCH   1  29
TORSDOF 6
ENDMDL
MODEL 6
REMARK VINA RESULT:      -7.4      5.796     11.967
REMARK  Name = 
REMARK  9 active torsions:
REMARK  status: ('A' for Active; 'I' for Inactive)
REMARK    1  A    between atoms: C_1  and  C_2
REMARK    2  A    between atoms: C_2  and  O_3
REMARK    3  A    between atoms: O_3  and  C_4
REMARK    4  A    between atoms: C_4  and  C_6
REMARK    5  A    between atoms: N_13  and  C_14
REMARK    6  A    between atoms: C_17  and  C_18
REMARK    7  A    between atoms: C_18  and  C_19
REMARK    8  A    between atoms: C_26  and  C_27
REMARK    9  A    between atoms: C_28  and  C_29
REMARK                            x       y       z     vdW  Elec       q    Type
REMARK                         _______ _______ _______ _____ _____    ______ ____
ROOT
ATOM      1  C   UNL     1      -3.654  15.252  23.018  0.00  0.00    +0.000 A 
ATOM      2  C   UNL     1      -2.301  15.563  22.923  0.00  0.00    +0.000 A 
ATOM      3  C   UNL     1      -1.441  14.669  22.295  0.00  0.00    +0.000 A 
ATOM      4  C   UNL     1      -1.937  13.482  21.757  0.00  0.00    +0.000 A 
ATOM      5  N   UNL     1      -1.076  12.699  21.002  0.00  0.00    +0.000 N 
ATOM      6  C   UNL     1      -1.717  11.822  20.015  0.00  0.00    +0.000 C 
ATOM      7  C   UNL     1      -0.656  11.409  18.977  0.00  0.00    +0.000 C 
ATOM      8  N   UNL     1       0.567  10.867  19.592  0.00  0.00    +0.000 N 
ATOM      9  C   UNL     1       1.090  11.558  20.785  0.00  0.00    +0.000 C 
ATOM     10  C   UNL     1      -0.033  11.985  21.759  0.00  0.00    +0.000 C 
ATOM     11  N   UNL     1      -3.249  13.163  21.853  0.00  0.00    +0.000 NA
ATOM     12  C   UNL     1      -4.073  14.039  22.485  0.00  0.00    +0.000 A 
ENDROOT
BRANCH   8  13
ATOM     13  C   UNL     1       1.152   9.693  19.165  0.00  0.00    +0.000 A 
ATOM     14  N   UNL     1       1.734   9.681  17.948  0.00  0.00    +0.000 NA
ATOM     15  N   UNL     1       2.401   8.574  17.468  0.00  0.00    +0.000 NA
ATOM     16  C   UNL     1       2.551   7.474  18.235  0.00  0.00    +0.000 A 
ATOM     17  C   UNL     1       2.002   7.431  19.518  0.00  0.00    +0.000 A 
ATOM     18  C   UNL     1       2.208   6.257  20.437  0.00  0.00    +0.000 C 
ATOM     19  C   UNL     1       1.195   8.522  19.939  0.00  0.00    +0.000 A 
ATOM     20  C   UNL     1       0.343   8.374  21.179  0.00  0.00    +0.000 C 
BRANCH  16  21
ATOM     21  C   UNL     1       3.225   6.300  17.556  0.00  0.00    +0.000 C 
BRANCH  21  22
ATOM     22  C   UNL     1       4.709   6.223  17.866  0.00  0.00    +0.000 A 
ATOM     23  C   UNL     1       5.162   5.416  18.925  0.00  0.00    +0.000 A 
ATOM     24  C   UNL     1       6.500   5.442  19.315  0.00  0.00    +0.000 A 
ATOM     25  C   UNL     1       7.394   6.257  18.633  0.00  0.00    +0.000 A 
ATOM     26  F   UNL     1       8.668   6.325  19.040  0.00  0.00    +0.000 F 
ATOM     27  C   UNL     1       6.981   7.014  17.542  0.00  0.00    +0.000 A 
ATOM     28  C   UNL     1       5.640   6.993  17.153  0.00  0.00    +0.000 A 
ENDBRANCH  21  22
ENDBRANCH  16  21
ENDBRANCH   8  13
BRANCH   1  29
ATOM     29  C   UNL     1      -4.665  16.187  23.542  0.00  0.00    +0.000 C 
ATOM     30  O   UNL     1      -4.715  16.544  24.708  0.00  0.00    +0.000 OA
BRANCH  29  31
ATOM     31  O   UNL     1      -5.569  16.467  22.573  0.00  0.00    +0.000 OA
BRANCH  31  33
ATOM     32  C   UNL     1      -7.688  17.564  22.522  0.00  0.00    +0.000 C 
ATOM     33  C   UNL     1      -6.944  16.309  22.942  0.00  0.00    +0.000 C 
ENDBRANCH  31  33
ENDBRANCH  29  31
ENDBRANCH   1  29
TORSDOF 6
ENDMDL
MODEL 7
REMARK VINA RESULT:      -7.4      5.362     11.874
REMARK  Name = 
REMARK  9 active torsions:
REMARK  status: ('A' for Active; 'I' for Inactive)
REMARK    1  A    between atoms: C_1  and  C_2
REMARK    2  A    between atoms: C_2  and  O_3
REMARK    3  A    between atoms: O_3  and  C_4
REMARK    4  A    between atoms: C_4  and  C_6
REMARK    5  A    between atoms: N_13  and  C_14
REMARK    6  A    between atoms: C_17  and  C_18
REMARK    7  A    between atoms: C_18  and  C_19
REMARK    8  A    between atoms: C_26  and  C_27
REMARK    9  A    between atoms: C_28  and  C_29
REMARK                            x       y       z     vdW  Elec       q    Type
REMARK                         _______ _______ _______ _____ _____    ______ ____
ROOT
ATOM      1  C   UNL     1      -2.628  13.199  21.007  0.00  0.00    +0.000 A 
ATOM      2  C   UNL     1      -1.612  12.910  21.914  0.00  0.00    +0.000 A 
ATOM      3  C   UNL     1      -0.724  11.878  21.634  0.00  0.00    +0.000 A 
ATOM      4  C   UNL     1      -0.848  11.152  20.449  0.00  0.00    +0.000 A 
ATOM      5  N   UNL     1       0.152  10.242  20.137  0.00  0.00    +0.000 N 
ATOM      6  C   UNL     1       0.311   9.939  18.710  0.00  0.00    +0.000 C 
ATOM      7  C   UNL     1       1.709   9.325  18.500  0.00  0.00    +0.000 C 
ATOM      8  N   UNL     1       1.982   8.200  19.409  0.00  0.00    +0.000 N 
ATOM      9  C   UNL     1       1.565   8.348  20.816  0.00  0.00    +0.000 C 
ATOM     10  C   UNL     1       0.176   9.014  20.952  0.00  0.00    +0.000 C 
ATOM     11  N   UNL     1      -1.837  11.416  19.565  0.00  0.00    +0.000 NA
ATOM     12  C   UNL     1      -2.707  12.416  19.861  0.00  0.00    +0.000 A 
ENDROOT
BRANCH   8  13
ATOM     13  C   UNL     1       2.497   6.999  18.967  0.00  0.00    +0.000 A 
ATOM     14  N   UNL     1       3.232   7.003  17.836  0.00  0.00    +0.000 NA
ATOM     15  N   UNL     1       3.842   5.862  17.358  0.00  0.00    +0.000 NA
ATOM     16  C   UNL     1       3.774   4.705  18.047  0.00  0.00    +0.000 A 
ATOM     17  C   UNL     1       3.055   4.638  19.243  0.00  0.00    +0.000 A 
ATOM     18  C   UNL     1       3.015   3.391  20.083  0.00  0.00    +0.000 C 
ATOM     19  C   UNL     1       2.315   5.782  19.644  0.00  0.00    +0.000 A 
ATOM     20  C   UNL     1       1.293   5.649  20.750  0.00  0.00    +0.000 C 
BRANCH  16  21
ATOM     21  C   UNL     1       4.410   3.510  17.367  0.00  0.00    +0.000 C 
BRANCH  21  22
ATOM     22  C   UNL     1       5.402   3.914  16.291  0.00  0.00    +0.000 A 
ATOM     23  C   UNL     1       6.620   4.515  16.652  0.00  0.00    +0.000 A 
ATOM     24  C   UNL     1       7.479   5.021  15.677  0.00  0.00    +0.000 A 
ATOM     25  C   UNL     1       7.132   4.905  14.337  0.00  0.00    +0.000 A 
ATOM     26  F   UNL     1       7.929   5.437  13.401  0.00  0.00    +0.000 F 
ATOM     27  C   UNL     1       5.964   4.257  13.954  0.00  0.00    +0.000 A 
ATOM     28  C   UNL     1       5.100   3.754  14.930  0.00  0.00    +0.000 A 
ENDBRANCH  21  22
ENDBRANCH  16  21
ENDBRANCH   8  13
BRANCH   1  29
ATOM     29  C   UNL     1      -3.533  14.353  21.144  0.00  0.00    +0.000 C 
ATOM     30  O   UNL     1      -3.183  15.438  21.581  0.00  0.00    +0.000 OA
BRANCH  29  31
ATOM     31  O   UNL     1      -4.797  13.977  20.835  0.00  0.00    +0.000 OA
BRANCH  31  33
ATOM     32  C   UNL     1      -5.492  13.091  22.939  0.00  0.00    +0.000 C 
ATOM     33  C   UNL     1      -5.766  14.141  21.877  0.00  0.00    +0.000 C 
ENDBRANCH  31  33
ENDBRANCH  29  31
ENDBRANCH   1  29
TORSDOF 6
ENDMDL
MODEL 8
REMARK VINA RESULT:      -7.3      1.947      2.767
REMARK  Name = 
REMARK  9 active torsions:
REMARK  status: ('A' for Active; 'I' for Inactive)
REMARK    1  A    between atoms: C_1  and  C_2
REMARK    2  A    between atoms: C_2  and  O_3
REMARK    3  A    between atoms: O_3  and  C_4
REMARK    4  A    between atoms: C_4  and  C_6
REMARK    5  A    between atoms: N_13  and  C_14
REMARK    6  A    between atoms: C_17  and  C_18
REMARK    7  A    between atoms: C_18  and  C_19
REMARK    8  A    between atoms: C_26  and  C_27
REMARK    9  A    between atoms: C_28  and  C_29
REMARK                            x       y       z     vdW  Elec       q    Type
REMARK                         _______ _______ _______ _____ _____    ______ ____
ROOT
ATOM      1  C   UNL     1       3.988   5.531  17.463  0.00  0.00    +0.000 A 
ATOM      2  C   UNL     1       4.188   6.872  17.147  0.00  0.00    +0.000 A 
ATOM      3  C   UNL     1       3.416   7.841  17.778  0.00  0.00    +0.000 A 
ATOM      4  C   UNL     1       2.463   7.468  18.726  0.00  0.00    +0.000 A 
ATOM      5  N   UNL     1       1.832   8.473  19.444  0.00  0.00    +0.000 N 
ATOM      6  C   UNL     1       1.308   8.081  20.758  0.00  0.00    +0.000 C 
ATOM      7  C   UNL     1       1.088   9.359  21.590  0.00  0.00    +0.000 C 
ATOM      8  N   UNL     1       0.294  10.375  20.880  0.00  0.00    +0.000 N 
ATOM      9  C   UNL     1       0.595  10.598  19.454  0.00  0.00    +0.000 C 
ATOM     10  C   UNL     1       0.851   9.276  18.693  0.00  0.00    +0.000 C 
ATOM     11  N   UNL     1       2.252   6.167  19.034  0.00  0.00    +0.000 NA
ATOM     12  C   UNL     1       3.002   5.232  18.396  0.00  0.00    +0.000 A 
ENDROOT
BRANCH   8  13
ATOM     13  C   UNL     1      -0.774  11.021  21.467  0.00  0.00    +0.000 A 
ATOM     14  N   UNL     1      -1.046  10.753  22.760  0.00  0.00    +0.000 NA
ATOM     15  N   UNL     1      -2.051  11.402  23.446  0.00  0.00    +0.000 NA
ATOM     16  C   UNL     1      -2.762  12.385  22.857  0.00  0.00    +0.000 A 
ATOM     17  C   UNL     1      -2.512  12.737  21.529  0.00  0.00    +0.000 A 
ATOM     18  C   UNL     1      -3.227  13.877  20.855  0.00  0.00    +0.000 C 
ATOM     19  C   UNL     1      -1.575  11.960  20.796  0.00  0.00    +0.000 A 
ATOM     20  C   UNL     1      -1.508  12.111  19.293  0.00  0.00    +0.000 C 
BRANCH  16  21
ATOM     21  C   UNL     1      -3.892  12.953  23.691  0.00  0.00    +0.000 C 
BRANCH  21  22
ATOM     22  C   UNL     1      -3.550  14.304  24.290  0.00  0.00    +0.000 A 
ATOM     23  C   UNL     1      -4.475  15.360  24.211  0.00  0.00    +0.000 A 
ATOM     24  C   UNL     1      -4.125  16.644  24.628  0.00  0.00    +0.000 A 
ATOM     25  C   UNL     1      -2.857  16.870  25.146  0.00  0.00    +0.000 A 
ATOM     26  F   UNL     1      -2.499  18.113  25.496  0.00  0.00    +0.000 F 
ATOM     27  C   UNL     1      -1.948  15.829  25.293  0.00  0.00    +0.000 A 
ATOM     28  C   UNL     1      -2.295  14.543  24.872  0.00  0.00    +0.000 A 
ENDBRANCH  21  22
ENDBRANCH  16  21
ENDBRANCH   8  13
BRANCH   1  29
ATOM     29  C   UNL     1       4.839   4.442  16.953  0.00  0.00    +0.000 C 
ATOM     30  O   UNL     1       4.586   3.258  17.107  0.00  0.00    +0.000 OA
BRANCH  29  31
ATOM     31  O   UNL     1       5.969   4.963  16.419  0.00  0.00    +0.000 OA
BRANCH  31  33
ATOM     32  C   UNL     1       7.458   5.380  18.237  0.00  0.00    +0.000 C 
ATOM     33  C   UNL     1       7.197   4.522  17.011  0.00  0.00    +0.000 C 
ENDBRANCH  31  33
ENDBRANCH  29  31
ENDBRANCH   1  29
TORSDOF 6
ENDMDL
MODEL 9
REMARK VINA RESULT:      -7.3      5.807     11.993
REMARK  Name = 
REMARK  9 active torsions:
REMARK  status: ('A' for Active; 'I' for Inactive)
REMARK    1  A    between atoms: C_1  and  C_2
REMARK    2  A    between atoms: C_2  and  O_3
REMARK    3  A    between atoms: O_3  and  C_4
REMARK    4  A    between atoms: C_4  and  C_6
REMARK    5  A    between atoms: N_13  and  C_14
REMARK    6  A    between atoms: C_17  and  C_18
REMARK    7  A    between atoms: C_18  and  C_19
REMARK    8  A    between atoms: C_26  and  C_27
REMARK    9  A    between atoms: C_28  and  C_29
REMARK                            x       y       z     vdW  Elec       q    Type
REMARK                         _______ _______ _______ _____ _____    ______ ____
ROOT
ATOM      1  C   UNL     1      -4.359  14.410  23.095  0.00  0.00    +0.000 A 
ATOM      2  C   UNL     1      -3.029  14.576  23.471  0.00  0.00    +0.000 A 
ATOM      3  C   UNL     1      -2.054  13.774  22.890  0.00  0.00    +0.000 A 
ATOM      4  C   UNL     1      -2.410  12.825  21.931  0.00  0.00    +0.000 A 
ATOM      5  N   UNL     1      -1.391  12.162  21.262  0.00  0.00    +0.000 N 
ATOM      6  C   UNL     1      -1.737  11.640  19.935  0.00  0.00    +0.000 C 
ATOM      7  C   UNL     1      -0.429  11.379  19.163  0.00  0.00    +0.000 C 
ATOM      8  N   UNL     1       0.531  10.562  19.923  0.00  0.00    +0.000 N 
ATOM      9  C   UNL     1       0.697  10.867  21.356  0.00  0.00    +0.000 C 
ATOM     10  C   UNL     1      -0.651  11.164  22.055  0.00  0.00    +0.000 C 
ATOM     11  N   UNL     1      -3.700  12.648  21.565  0.00  0.00    +0.000 NA
ATOM     12  C   UNL     1      -4.643  13.427  22.155  0.00  0.00    +0.000 A 
ENDROOT
BRANCH   8  13
ATOM     13  C   UNL     1       1.174   9.473  19.372  0.00  0.00    +0.000 A 
ATOM     14  N   UNL     1       1.750   9.622  18.161  0.00  0.00    +0.000 NA
ATOM     15  N   UNL     1       2.472   8.609  17.566  0.00  0.00    +0.000 NA
ATOM     16  C   UNL     1       2.680   7.442  18.210  0.00  0.00    +0.000 A 
ATOM     17  C   UNL     1       2.140   7.232  19.481  0.00  0.00    +0.000 A 
ATOM     18  C   UNL     1       2.410   5.979  20.268  0.00  0.00    +0.000 C 
ATOM     19  C   UNL     1       1.280   8.229  20.015  0.00  0.00    +0.000 A 
ATOM     20  C   UNL     1       0.441   7.904  21.231  0.00  0.00    +0.000 C 
BRANCH  16  21
ATOM     21  C   UNL     1       3.411   6.385  17.409  0.00  0.00    +0.000 C 
BRANCH  21  22
ATOM     22  C   UNL     1       4.879   6.286  17.780  0.00  0.00    +0.000 A 
ATOM     23  C   UNL     1       5.282   5.436  18.826  0.00  0.00    +0.000 A 
ATOM     24  C   UNL     1       6.602   5.438  19.275  0.00  0.00    +0.000 A 
ATOM     25  C   UNL     1       7.528   6.273  18.663  0.00  0.00    +0.000 A 
ATOM     26  F   UNL     1       8.784   6.316  19.127  0.00  0.00    +0.000 F 
ATOM     27  C   UNL     1       7.168   7.073  17.586  0.00  0.00    +0.000 A 
ATOM     28  C   UNL     1       5.844   7.076  17.138  0.00  0.00    +0.000 A 
ENDBRANCH  21  22
ENDBRANCH  16  21
ENDBRANCH   8  13
BRANCH   1  29
ATOM     29  C   UNL     1      -5.446  15.295  23.550  0.00  0.00    +0.000 C 
ATOM     30  O   UNL     1      -6.489  14.888  24.038  0.00  0.00    +0.000 OA
BRANCH  29  31
ATOM     31  O   UNL     1      -5.152  16.577  23.228  0.00  0.00    +0.000 OA
BRANCH  31  33
ATOM     32  C   UNL     1      -4.748  17.755  25.264  0.00  0.00    +0.000 C 
ATOM     33  C   UNL     1      -5.701  17.576  24.096  0.00  0.00    +0.000 C 
ENDBRANCH  31  33
ENDBRANCH  29  31
ENDBRANCH   1  29
TORSDOF 6
ENDMDL
