MODEL 1
REMARK VINA RESULT:      -8.3      0.000      0.000
REMARK  Name = 
REMARK  4 active torsions:
REMARK  status: ('A' for Active; 'I' for Inactive)
REMARK    1  A    between atoms: C_1  and  C_2
REMARK    2  A    between atoms: C_2  and  C_3
REMARK    3  A    between atoms: C_2  and  C_4
REMARK    4  A    between atoms: C_2  and  C_5
REMARK                            x       y       z     vdW  Elec       q    Type
REMARK                         _______ _______ _______ _____ _____    ______ ____
ROOT
ATOM      1  C   UNL     1      -5.544  14.167  22.452  0.00  0.00    +0.000 A 
ATOM      2  C   UNL     1      -5.439  14.325  21.036  0.00  0.00    +0.000 A 
ATOM      3  C   UNL     1      -5.501  13.044  20.576  0.00  0.00    +0.000 A 
ATOM      4  N   UNL     1      -4.950  12.289  21.591  0.00  0.00    +0.000 N 
ATOM      5  C   UNL     1      -4.448  13.121  22.604  0.00  0.00    +0.000 A 
ATOM      6  C   UNL     1      -3.404  12.365  23.468  0.00  0.00    +0.000 C 
ATOM      7  C   UNL     1      -2.173  11.656  23.353  0.00  0.00    +0.000 C 
ATOM      8  C   UNL     1      -0.795  11.084  22.581  0.00  0.00    +0.000 C 
ATOM      9  N   UNL     1      -0.093  11.720  21.673  0.00  0.00    +0.000 NA
ATOM     10  C   UNL     1       0.741  10.745  21.027  0.00  0.00    +0.000 C 
ATOM     11  C   UNL     1       0.322  10.465  19.762  0.00  0.00    +0.000 A 
ATOM     12  C   UNL     1       0.549   9.708  18.546  0.00  0.00    +0.000 A 
ATOM     13  C   UNL     1      -0.554   9.858  17.736  0.00  0.00    +0.000 A 
ATOM     14  C   UNL     1      -1.551  10.591  18.466  0.00  0.00    +0.000 A 
ATOM     15  C   UNL     1      -2.770  11.066  18.331  0.00  0.00    +0.000 C 
ATOM     16  C   UNL     1      -3.716  11.253  17.267  0.00  0.00    +0.000 C 
ATOM     17  C   UNL     1      -4.966  11.543  17.654  0.00  0.00    +0.000 C 
ATOM     18  N   UNL     1      -5.323  11.393  18.976  0.00  0.00    +0.000 NA
ATOM     19  C   UNL     1      -5.807  12.549  19.280  0.00  0.00    +0.000 C 
ATOM     20  C   UNL     1      -6.338  13.292  18.127  0.00  0.00    +0.000 C 
ATOM     21  C   UNL     1      -5.791  12.595  17.119  0.00  0.00    +0.000 C 
ATOM     22  N   UNL     1      -0.967  10.859  19.635  0.00  0.00    +0.000 N 
ATOM     23  C   UNL     1       0.928   9.676  21.970  0.00  0.00    +0.000 C 
ATOM     24  C   UNL     1      -0.043   9.790  22.917  0.00  0.00    +0.000 C 
ATOM     25  H   UNL     1      -4.842  11.290  21.529  0.00  0.00    +0.000 HD
ATOM     26  H   UNL     1      -1.306  11.521  20.321  0.00  0.00    +0.000 HD
ENDROOT
BRANCH   1  28
ATOM     27  C   UNL     1      -7.751  14.545  24.027  0.00  0.00    +0.000 C 
ATOM     28  C   UNL     1      -6.655  15.292  23.059  0.00  0.00    +0.000 C 
ATOM     29  C   UNL     1      -7.537  15.928  21.971  0.00  0.00    +0.000 C 
ATOM     30  C   UNL     1      -6.215  16.391  24.068  0.00  0.00    +0.000 C 
ENDBRANCH   1  28
TORSDOF 1
ENDMDL
MODEL 2
REMARK VINA RESULT:      -7.2      2.435      4.689
REMARK  Name = 
REMARK  4 active torsions:
REMARK  status: ('A' for Active; 'I' for Inactive)
REMARK    1  A    between atoms: C_1  and  C_2
REMARK    2  A    between atoms: C_2  and  C_3
REMARK    3  A    between atoms: C_2  and  C_4
REMARK    4  A    between atoms: C_2  and  C_5
REMARK                            x       y       z     vdW  Elec       q    Type
REMARK                         _______ _______ _______ _____ _____    ______ ____
ROOT
ATOM      1  C   UNL     1      -1.638  15.022  23.837  0.00  0.00    +0.000 A 
ATOM      2  C   UNL     1      -2.936  15.405  23.379  0.00  0.00    +0.000 A 
ATOM      3  C   UNL     1      -3.617  14.226  23.355  0.00  0.00    +0.000 A 
ATOM      4  N   UNL     1      -2.649  13.277  23.094  0.00  0.00    +0.000 N 
ATOM      5  C   UNL     1      -1.414  13.893  22.840  0.00  0.00    +0.000 A 
ATOM      6  C   UNL     1      -0.473  12.935  22.063  0.00  0.00    +0.000 C 
ATOM      7  C   UNL     1      -0.411  12.173  20.860  0.00  0.00    +0.000 C 
ATOM      8  C   UNL     1      -0.917  11.646  19.348  0.00  0.00    +0.000 C 
ATOM      9  N   UNL     1      -1.501  12.374  18.426  0.00  0.00    +0.000 NA
ATOM     10  C   UNL     1      -2.089  11.466  17.482  0.00  0.00    +0.000 C 
ATOM     11  C   UNL     1      -3.446  11.428  17.579  0.00  0.00    +0.000 A 
ATOM     12  C   UNL     1      -4.687  10.870  17.074  0.00  0.00    +0.000 A 
ATOM     13  C   UNL     1      -5.699  11.227  17.937  0.00  0.00    +0.000 A 
ATOM     14  C   UNL     1      -5.113  11.894  19.066  0.00  0.00    +0.000 A 
ATOM     15  C   UNL     1      -5.452  12.466  20.201  0.00  0.00    +0.000 C 
ATOM     16  C   UNL     1      -6.661  12.891  20.846  0.00  0.00    +0.000 C 
ATOM     17  C   UNL     1      -6.542  13.198  22.146  0.00  0.00    +0.000 C 
ATOM     18  N   UNL     1      -5.394  12.854  22.825  0.00  0.00    +0.000 NA
ATOM     19  C   UNL     1      -5.015  13.974  23.341  0.00  0.00    +0.000 C 
ATOM     20  C   UNL     1      -6.111  14.932  23.549  0.00  0.00    +0.000 C 
ATOM     21  C   UNL     1      -7.065  14.377  22.785  0.00  0.00    +0.000 C 
ATOM     22  N   UNL     1      -3.809  11.925  18.785  0.00  0.00    +0.000 N 
ATOM     23  C   UNL     1      -1.334  10.244  17.563  0.00  0.00    +0.000 C 
ATOM     24  C   UNL     1      -0.644  10.265  18.736  0.00  0.00    +0.000 C 
ATOM     25  H   UNL     1      -2.860  12.297  22.998  0.00  0.00    +0.000 HD
ATOM     26  H   UNL     1      -3.119  12.486  19.269  0.00  0.00    +0.000 HD
ENDROOT
BRANCH   1  28
ATOM     27  C   UNL     1      -2.286  17.232  25.317  0.00  0.00    +0.000 C 
ATOM     28  C   UNL     1      -1.127  16.103  25.036  0.00  0.00    +0.000 C 
ATOM     29  C   UNL     1       0.084  16.954  24.617  0.00  0.00    +0.000 C 
ATOM     30  C   UNL     1      -0.939  15.639  26.509  0.00  0.00    +0.000 C 
ENDBRANCH   1  28
TORSDOF 1
ENDMDL
MODEL 3
REMARK VINA RESULT:      -7.1      1.051      1.434
REMARK  Name = 
REMARK  4 active torsions:
REMARK  status: ('A' for Active; 'I' for Inactive)
REMARK    1  A    between atoms: C_1  and  C_2
REMARK    2  A    between atoms: C_2  and  C_3
REMARK    3  A    between atoms: C_2  and  C_4
REMARK    4  A    between atoms: C_2  and  C_5
REMARK                            x       y       z     vdW  Elec       q    Type
REMARK                         _______ _______ _______ _____ _____    ______ ____
ROOT
ATOM      1  C   UNL     1      -4.417  15.006  22.788  0.00  0.00    +0.000 A 
ATOM      2  C   UNL     1      -4.681  15.116  21.388  0.00  0.00    +0.000 A 
ATOM      3  C   UNL     1      -5.069  13.856  21.045  0.00  0.00    +0.000 A 
ATOM      4  N   UNL     1      -4.388  13.037  21.924  0.00  0.00    +0.000 N 
ATOM      5  C   UNL     1      -3.502  13.791  22.710  0.00  0.00    +0.000 A 
ATOM      6  C   UNL     1      -2.396  12.884  23.311  0.00  0.00    +0.000 C 
ATOM      7  C   UNL     1      -1.372  11.974  22.918  0.00  0.00    +0.000 C 
ATOM      8  C   UNL     1      -0.367  11.161  21.845  0.00  0.00    +0.000 C 
ATOM      9  N   UNL     1       0.151  11.650  20.743  0.00  0.00    +0.000 NA
ATOM     10  C   UNL     1       0.610  10.535  19.963  0.00  0.00    +0.000 C 
ATOM     11  C   UNL     1      -0.178  10.306  18.877  0.00  0.00    +0.000 A 
ATOM     12  C   UNL     1      -0.416   9.498  17.696  0.00  0.00    +0.000 A 
ATOM     13  C   UNL     1      -1.661   9.818  17.202  0.00  0.00    +0.000 A 
ATOM     14  C   UNL     1      -2.290  10.724  18.123  0.00  0.00    +0.000 A 
ATOM     15  C   UNL     1      -3.408  11.397  18.287  0.00  0.00    +0.000 C 
ATOM     16  C   UNL     1      -4.567  11.722  17.504  0.00  0.00    +0.000 C 
ATOM     17  C   UNL     1      -5.601  12.229  18.191  0.00  0.00    +0.000 C 
ATOM     18  N   UNL     1      -5.601  12.167  19.567  0.00  0.00    +0.000 NA
ATOM     19  C   UNL     1      -5.793  13.395  19.913  0.00  0.00    +0.000 C 
ATOM     20  C   UNL     1      -6.494  14.195  18.898  0.00  0.00    +0.000 C 
ATOM     21  C   UNL     1      -6.362  13.396  17.828  0.00  0.00    +0.000 C 
ATOM     22  N   UNL     1      -1.373  10.911  19.073  0.00  0.00    +0.000 N 
ATOM     23  C   UNL     1       0.876   9.467  20.890  0.00  0.00    +0.000 C 
ATOM     24  C   UNL     1       0.232   9.764  22.052  0.00  0.00    +0.000 C 
ATOM     25  H   UNL     1      -4.462  12.034  21.900  0.00  0.00    +0.000 HD
ATOM     26  H   UNL     1      -1.402  11.635  19.780  0.00  0.00    +0.000 HD
ENDROOT
BRANCH   1  28
ATOM     27  C   UNL     1      -4.318  16.630  24.989  0.00  0.00    +0.000 C 
ATOM     28  C   UNL     1      -5.126  16.315  23.595  0.00  0.00    +0.000 C 
ATOM     29  C   UNL     1      -6.556  16.028  24.086  0.00  0.00    +0.000 C 
ATOM     30  C   UNL     1      -5.068  17.751  23.002  0.00  0.00    +0.000 C 
ENDBRANCH   1  28
TORSDOF 1
ENDMDL
MODEL 4
REMARK VINA RESULT:      -7.0      1.035      1.377
REMARK  Name = 
REMARK  4 active torsions:
REMARK  status: ('A' for Active; 'I' for Inactive)
REMARK    1  A    between atoms: C_1  and  C_2
REMARK    2  A    between atoms: C_2  and  C_3
REMARK    3  A    between atoms: C_2  and  C_4
REMARK    4  A    between atoms: C_2  and  C_5
REMARK                            x       y       z     vdW  Elec       q    Type
REMARK                         _______ _______ _______ _____ _____    ______ ____
ROOT
ATOM      1  C   UNL     1      -5.540  15.339  21.972  0.00  0.00    +0.000 A 
ATOM      2  C   UNL     1      -5.539  15.325  20.543  0.00  0.00    +0.000 A 
ATOM      3  C   UNL     1      -5.784  14.019  20.245  0.00  0.00    +0.000 A 
ATOM      4  N   UNL     1      -5.237  13.319  21.302  0.00  0.00    +0.000 N 
ATOM      5  C   UNL     1      -4.560  14.190  22.169  0.00  0.00    +0.000 A 
ATOM      6  C   UNL     1      -3.538  13.412  23.040  0.00  0.00    +0.000 C 
ATOM      7  C   UNL     1      -2.409  12.550  22.923  0.00  0.00    +0.000 C 
ATOM      8  C   UNL     1      -1.175  11.732  22.128  0.00  0.00    +0.000 C 
ATOM      9  N   UNL     1      -0.486  12.174  21.103  0.00  0.00    +0.000 NA
ATOM     10  C   UNL     1       0.174  11.039  20.520  0.00  0.00    +0.000 C 
ATOM     11  C   UNL     1      -0.380  10.675  19.332  0.00  0.00    +0.000 A 
ATOM     12  C   UNL     1      -0.344   9.766  18.201  0.00  0.00    +0.000 A 
ATOM     13  C   UNL     1      -1.488   9.960  17.460  0.00  0.00    +0.000 A 
ATOM     14  C   UNL     1      -2.331  10.884  18.167  0.00  0.00    +0.000 A 
ATOM     15  C   UNL     1      -3.495  11.486  18.063  0.00  0.00    +0.000 C 
ATOM     16  C   UNL     1      -4.501  11.669  17.056  0.00  0.00    +0.000 C 
ATOM     17  C   UNL     1      -5.673  12.150  17.493  0.00  0.00    +0.000 C 
ATOM     18  N   UNL     1      -5.931  12.191  18.846  0.00  0.00    +0.000 NA
ATOM     19  C   UNL     1      -6.253  13.424  19.043  0.00  0.00    +0.000 C 
ATOM     20  C   UNL     1      -6.793  14.094  17.851  0.00  0.00    +0.000 C 
ATOM     21  C   UNL     1      -6.416  13.230  16.896  0.00  0.00    +0.000 C 
ATOM     22  N   UNL     1      -1.622  11.207  19.250  0.00  0.00    +0.000 N 
ATOM     23  C   UNL     1       0.319  10.066  21.569  0.00  0.00    +0.000 C 
ATOM     24  C   UNL     1      -0.549  10.401  22.562  0.00  0.00    +0.000 C 
ATOM     25  H   UNL     1      -5.248  12.313  21.352  0.00  0.00    +0.000 HD
ATOM     26  H   UNL     1      -1.825  11.977  19.875  0.00  0.00    +0.000 HD
ENDROOT
BRANCH   1  28
ATOM     27  C   UNL     1      -7.117  17.455  21.246  0.00  0.00    +0.000 C 
ATOM     28  C   UNL     1      -6.461  16.650  22.518  0.00  0.00    +0.000 C 
ATOM     29  C   UNL     1      -5.624  17.737  23.216  0.00  0.00    +0.000 C 
ATOM     30  C   UNL     1      -7.778  16.430  23.315  0.00  0.00    +0.000 C 
ENDBRANCH   1  28
TORSDOF 1
ENDMDL
MODEL 5
REMARK VINA RESULT:      -6.8      1.818      3.012
REMARK  Name = 
REMARK  4 active torsions:
REMARK  status: ('A' for Active; 'I' for Inactive)
REMARK    1  A    between atoms: C_1  and  C_2
REMARK    2  A    between atoms: C_2  and  C_3
REMARK    3  A    between atoms: C_2  and  C_4
REMARK    4  A    between atoms: C_2  and  C_5
REMARK                            x       y       z     vdW  Elec       q    Type
REMARK                         _______ _______ _______ _____ _____    ______ ____
ROOT
ATOM      1  C   UNL     1      -3.004  15.035  23.404  0.00  0.00    +0.000 A 
ATOM      2  C   UNL     1      -3.927  15.194  22.325  0.00  0.00    +0.000 A 
ATOM      3  C   UNL     1      -4.448  13.944  22.174  0.00  0.00    +0.000 A 
ATOM      4  N   UNL     1      -3.429  13.100  22.568  0.00  0.00    +0.000 N 
ATOM      5  C   UNL     1      -2.262  13.832  22.837  0.00  0.00    +0.000 A 
ATOM      6  C   UNL     1      -1.012  12.915  22.775  0.00  0.00    +0.000 C 
ATOM      7  C   UNL     1      -0.328  12.029  21.893  0.00  0.00    +0.000 C 
ATOM      8  C   UNL     1       0.003  11.265  20.434  0.00  0.00    +0.000 C 
ATOM      9  N   UNL     1      -0.090  11.800  19.239  0.00  0.00    +0.000 NA
ATOM     10  C   UNL     1      -0.091  10.718  18.293  0.00  0.00    +0.000 C 
ATOM     11  C   UNL     1      -1.316  10.522  17.735  0.00  0.00    +0.000 A 
ATOM     12  C   UNL     1      -2.118   9.756  16.799  0.00  0.00    +0.000 A 
ATOM     13  C   UNL     1      -3.440  10.083  17.001  0.00  0.00    +0.000 A 
ATOM     14  C   UNL     1      -3.520  10.948  18.145  0.00  0.00    +0.000 A 
ATOM     15  C   UNL     1      -4.402  11.604  18.867  0.00  0.00    +0.000 C 
ATOM     16  C   UNL     1      -5.792  11.947  18.776  0.00  0.00    +0.000 C 
ATOM     17  C   UNL     1      -6.344  12.419  19.903  0.00  0.00    +0.000 C 
ATOM     18  N   UNL     1      -5.661  12.306  21.095  0.00  0.00    +0.000 NA
ATOM     19  C   UNL     1      -5.643  13.518  21.536  0.00  0.00    +0.000 C 
ATOM     20  C   UNL     1      -6.748  14.349  21.033  0.00  0.00    +0.000 C 
ATOM     21  C   UNL     1      -7.173  13.591  20.010  0.00  0.00    +0.000 C 
ATOM     22  N   UNL     1      -2.250  11.109  18.520  0.00  0.00    +0.000 N 
ATOM     23  C   UNL     1       0.590   9.620  18.926  0.00  0.00    +0.000 C 
ATOM     24  C   UNL     1       0.611   9.867  20.264  0.00  0.00    +0.000 C 
ATOM     25  H   UNL     1      -3.514  12.097  22.547  0.00  0.00    +0.000 HD
ATOM     26  H   UNL     1      -1.916  11.806  19.174  0.00  0.00    +0.000 HD
ENDROOT
BRANCH   1  28
ATOM     27  C   UNL     1      -2.707  17.722  23.836  0.00  0.00    +0.000 C 
ATOM     28  C   UNL     1      -3.205  16.307  24.503  0.00  0.00    +0.000 C 
ATOM     29  C   UNL     1      -2.312  16.184  25.750  0.00  0.00    +0.000 C 
ATOM     30  C   UNL     1      -4.623  16.778  24.936  0.00  0.00    +0.000 C 
ENDBRANCH   1  28
TORSDOF 1
ENDMDL
MODEL 6
REMARK VINA RESULT:      -6.8      1.506      2.372
REMARK  Name = 
REMARK  4 active torsions:
REMARK  status: ('A' for Active; 'I' for Inactive)
REMARK    1  A    between atoms: C_1  and  C_2
REMARK    2  A    between atoms: C_2  and  C_3
REMARK    3  A    between atoms: C_2  and  C_4
REMARK    4  A    between atoms: C_2  and  C_5
REMARK                            x       y       z     vdW  Elec       q    Type
REMARK                         _______ _______ _______ _____ _____    ______ ____
ROOT
ATOM      1  C   UNL     1      -4.045  15.258  22.849  0.00  0.00    +0.000 A 
ATOM      2  C   UNL     1      -4.797  15.294  21.635  0.00  0.00    +0.000 A 
ATOM      3  C   UNL     1      -5.227  14.009  21.497  0.00  0.00    +0.000 A 
ATOM      4  N   UNL     1      -4.241  13.253  22.099  0.00  0.00    +0.000 N 
ATOM      5  C   UNL     1      -3.166  14.068  22.488  0.00  0.00    +0.000 A 
ATOM      6  C   UNL     1      -1.879  13.223  22.680  0.00  0.00    +0.000 C 
ATOM      7  C   UNL     1      -1.025  12.325  21.976  0.00  0.00    +0.000 C 
ATOM      8  C   UNL     1      -0.436  11.492  20.641  0.00  0.00    +0.000 C 
ATOM      9  N   UNL     1      -0.369  11.944  19.411  0.00  0.00    +0.000 NA
ATOM     10  C   UNL     1      -0.172  10.807  18.556  0.00  0.00    +0.000 C 
ATOM     11  C   UNL     1      -1.286  10.504  17.835  0.00  0.00    +0.000 A 
ATOM     12  C   UNL     1      -1.896   9.635  16.846  0.00  0.00    +0.000 A 
ATOM     13  C   UNL     1      -3.248   9.896  16.823  0.00  0.00    +0.000 A 
ATOM     14  C   UNL     1      -3.545  10.825  17.877  0.00  0.00    +0.000 A 
ATOM     15  C   UNL     1      -4.558  11.472  18.410  0.00  0.00    +0.000 C 
ATOM     16  C   UNL     1      -5.933  11.726  18.087  0.00  0.00    +0.000 C 
ATOM     17  C   UNL     1      -6.674  12.235  19.082  0.00  0.00    +0.000 C 
ATOM     18  N   UNL     1      -6.178  12.238  20.368  0.00  0.00    +0.000 NA
ATOM     19  C   UNL     1      -6.287  13.474  20.718  0.00  0.00    +0.000 C 
ATOM     20  C   UNL     1      -7.340  14.205  19.997  0.00  0.00    +0.000 C 
ATOM     21  C   UNL     1      -7.565  13.361  18.979  0.00  0.00    +0.000 C 
ATOM     22  N   UNL     1      -2.357  11.084  18.427  0.00  0.00    +0.000 N 
ATOM     23  C   UNL     1       0.455   9.793  19.360  0.00  0.00    +0.000 C 
ATOM     24  C   UNL     1       0.258  10.124  20.666  0.00  0.00    +0.000 C 
ATOM     25  H   UNL     1      -4.273  12.247  22.137  0.00  0.00    +0.000 HD
ATOM     26  H   UNL     1      -2.163  11.838  19.072  0.00  0.00    +0.000 HD
ENDROOT
BRANCH   1  28
ATOM     27  C   UNL     1      -3.621  16.567  25.216  0.00  0.00    +0.000 C 
ATOM     28  C   UNL     1      -4.474  16.582  23.813  0.00  0.00    +0.000 C 
ATOM     29  C   UNL     1      -5.933  16.536  24.300  0.00  0.00    +0.000 C 
ATOM     30  C   UNL     1      -4.125  18.035  23.383  0.00  0.00    +0.000 C 
ENDBRANCH   1  28
TORSDOF 1
ENDMDL
MODEL 7
REMARK VINA RESULT:      -6.7      2.655      7.369
REMARK  Name = 
REMARK  4 active torsions:
REMARK  status: ('A' for Active; 'I' for Inactive)
REMARK    1  A    between atoms: C_1  and  C_2
REMARK    2  A    between atoms: C_2  and  C_3
REMARK    3  A    between atoms: C_2  and  C_4
REMARK    4  A    between atoms: C_2  and  C_5
REMARK                            x       y       z     vdW  Elec       q    Type
REMARK                         _______ _______ _______ _____ _____    ______ ____
ROOT
ATOM      1  C   UNL     1       0.328  13.761  19.652  0.00  0.00    +0.000 A 
ATOM      2  C   UNL     1      -0.246  14.579  20.673  0.00  0.00    +0.000 A 
ATOM      3  C   UNL     1      -0.769  13.670  21.542  0.00  0.00    +0.000 A 
ATOM      4  N   UNL     1      -1.106  12.592  20.748  0.00  0.00    +0.000 N 
ATOM      5  C   UNL     1      -0.900  12.898  19.393  0.00  0.00    +0.000 A 
ATOM      6  C   UNL     1      -1.724  11.948  18.485  0.00  0.00    +0.000 C 
ATOM      7  C   UNL     1      -3.063  11.521  18.250  0.00  0.00    +0.000 C 
ATOM      8  C   UNL     1      -4.734  11.542  18.418  0.00  0.00    +0.000 C 
ATOM      9  N   UNL     1      -5.487  12.606  18.572  0.00  0.00    +0.000 NA
ATOM     10  C   UNL     1      -6.764  12.153  19.049  0.00  0.00    +0.000 C 
ATOM     11  C   UNL     1      -6.962  12.457  20.361  0.00  0.00    +0.000 A 
ATOM     12  C   UNL     1      -7.856  12.395  21.502  0.00  0.00    +0.000 A 
ATOM     13  C   UNL     1      -7.152  12.783  22.619  0.00  0.00    +0.000 A 
ATOM     14  C   UNL     1      -5.778  12.966  22.243  0.00  0.00    +0.000 A 
ATOM     15  C   UNL     1      -4.616  13.308  22.758  0.00  0.00    +0.000 C 
ATOM     16  C   UNL     1      -4.133  13.866  23.989  0.00  0.00    +0.000 C 
ATOM     17  C   UNL     1      -2.807  13.796  24.171  0.00  0.00    +0.000 C 
ATOM     18  N   UNL     1      -2.046  13.000  23.342  0.00  0.00    +0.000 NA
ATOM     19  C   UNL     1      -1.146  13.813  22.904  0.00  0.00    +0.000 C 
ATOM     20  C   UNL     1      -0.882  14.947  23.804  0.00  0.00    +0.000 C 
ATOM     21  C   UNL     1      -1.957  14.875  24.603  0.00  0.00    +0.000 C 
ATOM     22  N   UNL     1      -5.762  12.716  20.933  0.00  0.00    +0.000 N 
ATOM     23  C   UNL     1      -6.909  10.793  18.602  0.00  0.00    +0.000 C 
ATOM     24  C   UNL     1      -5.671  10.336  18.268  0.00  0.00    +0.000 C 
ATOM     25  H   UNL     1      -1.538  11.761  21.114  0.00  0.00    +0.000 HD
ATOM     26  H   UNL     1      -5.000  12.933  20.304  0.00  0.00    +0.000 HD
ENDROOT
BRANCH   1  28
ATOM     27  C   UNL     1       2.593  13.363  18.168  0.00  0.00    +0.000 C 
ATOM     28  C   UNL     1       1.879  14.332  19.284  0.00  0.00    +0.000 C 
ATOM     29  C   UNL     1       2.854  14.262  20.472  0.00  0.00    +0.000 C 
ATOM     30  C   UNL     1       2.082  15.680  18.536  0.00  0.00    +0.000 C 
ENDBRANCH   1  28
TORSDOF 1
ENDMDL
MODEL 8
REMARK VINA RESULT:      -6.6     10.864     12.866
REMARK  Name = 
REMARK  4 active torsions:
REMARK  status: ('A' for Active; 'I' for Inactive)
REMARK    1  A    between atoms: C_1  and  C_2
REMARK    2  A    between atoms: C_2  and  C_3
REMARK    3  A    between atoms: C_2  and  C_4
REMARK    4  A    between atoms: C_2  and  C_5
REMARK                            x       y       z     vdW  Elec       q    Type
REMARK                         _______ _______ _______ _____ _____    ______ ____
ROOT
ATOM      1  C   UNL     1       7.455  13.289  23.902  0.00  0.00    +0.000 A 
ATOM      2  C   UNL     1       7.444  14.696  23.652  0.00  0.00    +0.000 A 
ATOM      3  C   UNL     1       6.906  14.785  22.404  0.00  0.00    +0.000 A 
ATOM      4  N   UNL     1       7.285  13.612  21.784  0.00  0.00    +0.000 N 
ATOM      5  C   UNL     1       8.148  12.876  22.611  0.00  0.00    +0.000 A 
ATOM      6  C   UNL     1       8.970  11.858  21.778  0.00  0.00    +0.000 C 
ATOM      7  C   UNL     1       9.872  11.796  20.676  0.00  0.00    +0.000 C 
ATOM      8  C   UNL     1      10.883  12.407  19.481  0.00  0.00    +0.000 C 
ATOM      9  N   UNL     1      11.649  13.468  19.579  0.00  0.00    +0.000 NA
ATOM     10  C   UNL     1      12.029  13.837  18.244  0.00  0.00    +0.000 C 
ATOM     11  C   UNL     1      11.400  14.967  17.822  0.00  0.00    +0.000 A 
ATOM     12  C   UNL     1      11.220  15.933  16.754  0.00  0.00    +0.000 A 
ATOM     13  C   UNL     1      10.146  16.732  17.075  0.00  0.00    +0.000 A 
ATOM     14  C   UNL     1       9.541  16.213  18.270  0.00  0.00    +0.000 A 
ATOM     15  C   UNL     1       8.544  16.450  19.094  0.00  0.00    +0.000 C 
ATOM     16  C   UNL     1       7.600  17.506  19.328  0.00  0.00    +0.000 C 
ATOM     17  C   UNL     1       6.571  17.191  20.128  0.00  0.00    +0.000 C 
ATOM     18  N   UNL     1       6.338  15.871  20.450  0.00  0.00    +0.000 NA
ATOM     19  C   UNL     1       6.306  15.888  21.739  0.00  0.00    +0.000 C 
ATOM     20  C   UNL     1       5.926  17.191  22.307  0.00  0.00    +0.000 C 
ATOM     21  C   UNL     1       6.090  17.979  21.233  0.00  0.00    +0.000 C 
ATOM     22  N   UNL     1      10.311  15.174  18.600  0.00  0.00    +0.000 N 
ATOM     23  C   UNL     1      11.954  12.639  17.451  0.00  0.00    +0.000 C 
ATOM     24  C   UNL     1      11.192  11.742  18.134  0.00  0.00    +0.000 C 
ATOM     25  H   UNL     1       7.045  13.399  20.829  0.00  0.00    +0.000 HD
ATOM     26  H   UNL     1      10.292  14.691  19.488  0.00  0.00    +0.000 HD
ENDROOT
BRANCH   1  28
ATOM     27  C   UNL     1       6.358  11.437  25.593  0.00  0.00    +0.000 C 
ATOM     28  C   UNL     1       6.860  12.994  25.460  0.00  0.00    +0.000 C 
ATOM     29  C   UNL     1       5.587  13.793  25.790  0.00  0.00    +0.000 C 
ATOM     30  C   UNL     1       7.804  13.006  26.696  0.00  0.00    +0.000 C 
ENDBRANCH   1  28
TORSDOF 1
ENDMDL
MODEL 9
REMARK VINA RESULT:      -6.4      2.426      6.583
REMARK  Name = 
REMARK  4 active torsions:
REMARK  status: ('A' for Active; 'I' for Inactive)
REMARK    1  A    between atoms: C_1  and  C_2
REMARK    2  A    between atoms: C_2  and  C_3
REMARK    3  A    between atoms: C_2  and  C_4
REMARK    4  A    between atoms: C_2  and  C_5
REMARK                            x       y       z     vdW  Elec       q    Type
REMARK                         _______ _______ _______ _____ _____    ______ ____
ROOT
ATOM      1  C   UNL     1       0.098  13.539  19.660  0.00  0.00    +0.000 A 
ATOM      2  C   UNL     1      -0.411  12.235  19.376  0.00  0.00    +0.000 A 
ATOM      3  C   UNL     1      -1.556  12.493  18.683  0.00  0.00    +0.000 A 
ATOM      4  N   UNL     1      -1.991  13.704  19.182  0.00  0.00    +0.000 N 
ATOM      5  C   UNL     1      -1.181  14.113  20.253  0.00  0.00    +0.000 A 
ATOM      6  C   UNL     1      -1.921  15.155  21.133  0.00  0.00    +0.000 C 
ATOM      7  C   UNL     1      -3.116  15.319  21.893  0.00  0.00    +0.000 C 
ATOM      8  C   UNL     1      -4.546  14.837  22.630  0.00  0.00    +0.000 C 
ATOM      9  N   UNL     1      -4.771  13.680  23.207  0.00  0.00    +0.000 NA
ATOM     10  C   UNL     1      -6.195  13.553  23.354  0.00  0.00    +0.000 C 
ATOM     11  C   UNL     1      -6.723  12.643  22.491  0.00  0.00    +0.000 A 
ATOM     12  C   UNL     1      -7.916  11.963  22.020  0.00  0.00    +0.000 A 
ATOM     13  C   UNL     1      -7.592  11.279  20.870  0.00  0.00    +0.000 A 
ATOM     14  C   UNL     1      -6.241  11.613  20.513  0.00  0.00    +0.000 A 
ATOM     15  C   UNL     1      -5.335  11.352  19.597  0.00  0.00    +0.000 C 
ATOM     16  C   UNL     1      -5.164  10.419  18.520  0.00  0.00    +0.000 C 
ATOM     17  C   UNL     1      -4.170  10.702  17.665  0.00  0.00    +0.000 C 
ATOM     18  N   UNL     1      -3.570  11.942  17.704  0.00  0.00    +0.000 NA
ATOM     19  C   UNL     1      -2.319  11.655  17.826  0.00  0.00    +0.000 C 
ATOM     20  C   UNL     1      -1.959  10.331  17.298  0.00  0.00    +0.000 C 
ATOM     21  C   UNL     1      -3.176   9.775  17.192  0.00  0.00    +0.000 C 
ATOM     22  N   UNL     1      -5.841  12.435  21.485  0.00  0.00    +0.000 N 
ATOM     23  C   UNL     1      -6.723  14.891  23.392  0.00  0.00    +0.000 C 
ATOM     24  C   UNL     1      -5.773  15.722  22.885  0.00  0.00    +0.000 C 
ATOM     25  H   UNL     1      -2.839  14.148  18.870  0.00  0.00    +0.000 HD
ATOM     26  H   UNL     1      -4.885  12.715  21.658  0.00  0.00    +0.000 HD
ENDROOT
BRANCH   1  28
ATOM     27  C   UNL     1       2.626  13.296  20.682  0.00  0.00    +0.000 C 
ATOM     28  C   UNL     1       1.756  13.578  19.318  0.00  0.00    +0.000 C 
ATOM     29  C   UNL     1       2.256  14.964  18.875  0.00  0.00    +0.000 C 
ATOM     30  C   UNL     1       2.419  12.488  18.429  0.00  0.00    +0.000 C 
ENDBRANCH   1  28
TORSDOF 1
ENDMDL
