MODEL 1
REMARK VINA RESULT:      -7.2      0.000      0.000
REMARK  Name = 
REMARK  10 active torsions:
REMARK  status: ('A' for Active; 'I' for Inactive)
REMARK    1  A    between atoms: C_1  and  C_2
REMARK    2  A    between atoms: C_2  and  C_3
REMARK    3  A    between atoms: C_3  and  N_4
REMARK    4  A    between atoms: N_4  and  C_5
REMARK    5  A    between atoms: N_4  and  C_8
REMARK    6  A    between atoms: C_5  and  C_6
REMARK    7  A    between atoms: C_6  and  C_7
REMARK    8  A    between atoms: C_8  and  C_9
REMARK    9  A    between atoms: C_15  and  C_16
REMARK   10  A    between atoms: C_21  and  C_22
REMARK                            x       y       z     vdW  Elec       q    Type
REMARK                         _______ _______ _______ _____ _____    ______ ____
ROOT
ATOM      1  C   UNL     1       6.131   4.992  16.816  0.00  0.00    +0.000 C 
ATOM      2  C   UNL     1       6.959   4.378  17.924  0.00  0.00    +0.000 C 
ATOM      3  O   UNL     1       8.150   4.111  17.853  0.00  0.00    +0.000 OA
ATOM      4  O   UNL     1       6.194   4.134  19.025  0.00  0.00    +0.000 OA
ATOM      5  C   UNL     1       4.970   4.825  18.872  0.00  0.00    +0.000 C 
ATOM      6  C   UNL     1       3.743   4.245  19.555  0.00  0.00    +0.000 C 
ATOM      7  C   UNL     1       3.697   3.145  20.354  0.00  0.00    +0.000 C 
ATOM      8  C   UNL     1       4.788   2.186  20.735  0.00  0.00    +0.000 C 
ATOM      9  C   UNL     1       2.390   2.763  20.970  0.00  0.00    +0.000 C 
ATOM     10  O   UNL     1       2.311   2.110  22.003  0.00  0.00    +0.000 OA
ATOM     11  C   UNL     1       1.169   3.169  20.260  0.00  0.00    +0.000 C 
ATOM     12  C   UNL     1       1.205   4.243  19.465  0.00  0.00    +0.000 C 
ATOM     13  C   UNL     1       2.460   5.061  19.212  0.00  0.00    +0.000 C 
ATOM     14  C   UNL     1       2.401   6.315  20.110  0.00  0.00    +0.000 C 
ATOM     15  C   UNL     1       2.386   5.492  17.707  0.00  0.00    +0.000 C 
ATOM     16  C   UNL     1       3.715   5.926  17.081  0.00  0.00    +0.000 C 
ATOM     17  C   UNL     1       4.733   4.841  17.380  0.00  0.00    +0.000 C 
ENDROOT
BRANCH   1  18
ATOM     18  C   UNL     1       6.357   4.133  15.557  0.00  0.00    +0.000 C 
BRANCH  18  19
ATOM     19  N   UNL     1       6.309   4.843  14.253  0.00  0.00    +0.000 NA
BRANCH  19  20
ATOM     20  C   UNL     1       7.579   4.608  13.524  0.00  0.00    +0.000 C 
BRANCH  20  22
ATOM     21  C   UNL     1       7.815   6.157  11.491  0.00  0.00    +0.000 C 
ATOM     22  C   UNL     1       8.287   5.819  12.895  0.00  0.00    +0.000 C 
ENDBRANCH  20  22
ENDBRANCH  19  20
BRANCH  19  23
ATOM     23  C   UNL     1       5.150   4.353  13.460  0.00  0.00    +0.000 C 
BRANCH  23  24
ATOM     24  C   UNL     1       5.467   3.374  12.310  0.00  0.00    +0.000 C 
ATOM     25  C   UNL     1       4.299   3.145  11.366  0.00  0.00    +0.000 C 
ENDBRANCH  23  24
ENDBRANCH  19  23
ENDBRANCH  18  19
ENDBRANCH   1  18
TORSDOF 6
ENDMDL
MODEL 2
REMARK VINA RESULT:      -7.1      1.403      2.595
REMARK  Name = 
REMARK  10 active torsions:
REMARK  status: ('A' for Active; 'I' for Inactive)
REMARK    1  A    between atoms: C_1  and  C_2
REMARK    2  A    between atoms: C_2  and  C_3
REMARK    3  A    between atoms: C_3  and  N_4
REMARK    4  A    between atoms: N_4  and  C_5
REMARK    5  A    between atoms: N_4  and  C_8
REMARK    6  A    between atoms: C_5  and  C_6
REMARK    7  A    between atoms: C_6  and  C_7
REMARK    8  A    between atoms: C_8  and  C_9
REMARK    9  A    between atoms: C_15  and  C_16
REMARK   10  A    between atoms: C_21  and  C_22
REMARK                            x       y       z     vdW  Elec       q    Type
REMARK                         _______ _______ _______ _____ _____    ______ ____
ROOT
ATOM      1  C   UNL     1       5.876   6.094  17.655  0.00  0.00    +0.000 C 
ATOM      2  C   UNL     1       6.663   5.270  18.650  0.00  0.00    +0.000 C 
ATOM      3  O   UNL     1       7.862   5.040  18.586  0.00  0.00    +0.000 OA
ATOM      4  O   UNL     1       5.852   4.786  19.630  0.00  0.00    +0.000 OA
ATOM      5  C   UNL     1       4.620   5.476  19.563  0.00  0.00    +0.000 C 
ATOM      6  C   UNL     1       3.375   4.748  20.041  0.00  0.00    +0.000 C 
ATOM      7  C   UNL     1       3.318   3.502  20.584  0.00  0.00    +0.000 C 
ATOM      8  C   UNL     1       4.412   2.498  20.810  0.00  0.00    +0.000 C 
ATOM      9  C   UNL     1       1.992   2.979  21.034  0.00  0.00    +0.000 C 
ATOM     10  O   UNL     1       1.878   2.119  21.899  0.00  0.00    +0.000 OA
ATOM     11  C   UNL     1       0.797   3.511  20.363  0.00  0.00    +0.000 C 
ATOM     12  C   UNL     1       0.846   4.731  19.817  0.00  0.00    +0.000 C 
ATOM     13  C   UNL     1       2.091   5.600  19.812  0.00  0.00    +0.000 C 
ATOM     14  C   UNL     1       1.957   6.632  20.952  0.00  0.00    +0.000 C 
ATOM     15  C   UNL     1       2.080   6.342  18.431  0.00  0.00    +0.000 C 
ATOM     16  C   UNL     1       3.428   6.918  17.983  0.00  0.00    +0.000 C 
ATOM     17  C   UNL     1       4.456   5.808  18.098  0.00  0.00    +0.000 C 
ENDROOT
BRANCH   1  18
ATOM     18  C   UNL     1       6.184   5.528  16.256  0.00  0.00    +0.000 C 
BRANCH  18  19
ATOM     19  N   UNL     1       5.941   4.076  16.059  0.00  0.00    +0.000 NA
BRANCH  19  20
ATOM     20  C   UNL     1       4.488   3.805  16.175  0.00  0.00    +0.000 C 
BRANCH  20  22
ATOM     21  C   UNL     1       2.528   2.555  17.262  0.00  0.00    +0.000 C 
ATOM     22  C   UNL     1       4.035   2.666  17.103  0.00  0.00    +0.000 C 
ENDBRANCH  20  22
ENDBRANCH  19  20
BRANCH  19  23
ATOM     23  C   UNL     1       6.448   3.661  14.724  0.00  0.00    +0.000 C 
BRANCH  23  24
ATOM     24  C   UNL     1       5.604   4.087  13.505  0.00  0.00    +0.000 C 
ATOM     25  C   UNL     1       5.891   3.276  12.252  0.00  0.00    +0.000 C 
ENDBRANCH  23  24
ENDBRANCH  19  23
ENDBRANCH  18  19
ENDBRANCH   1  18
TORSDOF 6
ENDMDL
MODEL 3
REMARK VINA RESULT:      -6.9      1.265      2.077
REMARK  Name = 
REMARK  10 active torsions:
REMARK  status: ('A' for Active; 'I' for Inactive)
REMARK    1  A    between atoms: C_1  and  C_2
REMARK    2  A    between atoms: C_2  and  C_3
REMARK    3  A    between atoms: C_3  and  N_4
REMARK    4  A    between atoms: N_4  and  C_5
REMARK    5  A    between atoms: N_4  and  C_8
REMARK    6  A    between atoms: C_5  and  C_6
REMARK    7  A    between atoms: C_6  and  C_7
REMARK    8  A    between atoms: C_8  and  C_9
REMARK    9  A    between atoms: C_15  and  C_16
REMARK   10  A    between atoms: C_21  and  C_22
REMARK                            x       y       z     vdW  Elec       q    Type
REMARK                         _______ _______ _______ _____ _____    ______ ____
ROOT
ATOM      1  C   UNL     1       6.369   6.128  17.763  0.00  0.00    +0.000 C 
ATOM      2  C   UNL     1       7.006   5.301  18.858  0.00  0.00    +0.000 C 
ATOM      3  O   UNL     1       8.201   5.065  18.963  0.00  0.00    +0.000 OA
ATOM      4  O   UNL     1       6.063   4.823  19.717  0.00  0.00    +0.000 OA
ATOM      5  C   UNL     1       4.856   5.520  19.478  0.00  0.00    +0.000 C 
ATOM      6  C   UNL     1       3.553   4.799  19.778  0.00  0.00    +0.000 C 
ATOM      7  C   UNL     1       3.413   3.554  20.310  0.00  0.00    +0.000 C 
ATOM      8  C   UNL     1       4.460   2.545  20.686  0.00  0.00    +0.000 C 
ATOM      9  C   UNL     1       2.035   3.039  20.571  0.00  0.00    +0.000 C 
ATOM     10  O   UNL     1       1.797   2.182  21.412  0.00  0.00    +0.000 OA
ATOM     11  C   UNL     1       0.949   3.576  19.739  0.00  0.00    +0.000 C 
ATOM     12  C   UNL     1       1.079   4.795  19.204  0.00  0.00    +0.000 C 
ATOM     13  C   UNL     1       2.318   5.658  19.372  0.00  0.00    +0.000 C 
ATOM     14  C   UNL     1       2.032   6.693  20.480  0.00  0.00    +0.000 C 
ATOM     15  C   UNL     1       2.504   6.397  18.002  0.00  0.00    +0.000 C 
ATOM     16  C   UNL     1       3.904   6.965  17.745  0.00  0.00    +0.000 C 
ATOM     17  C   UNL     1       4.900   5.850  18.004  0.00  0.00    +0.000 C 
ENDROOT
BRANCH   1  18
ATOM     18  C   UNL     1       6.866   5.557  16.421  0.00  0.00    +0.000 C 
BRANCH  18  19
ATOM     19  N   UNL     1       5.836   4.962  15.530  0.00  0.00    +0.000 NA
BRANCH  19  20
ATOM     20  C   UNL     1       6.380   4.865  14.154  0.00  0.00    +0.000 C 
BRANCH  20  22
ATOM     21  C   UNL     1       5.239   3.582  12.246  0.00  0.00    +0.000 C 
ATOM     22  C   UNL     1       6.221   3.532  13.405  0.00  0.00    +0.000 C 
ENDBRANCH  20  22
ENDBRANCH  19  20
BRANCH  19  23
ATOM     23  C   UNL     1       5.452   3.619  16.040  0.00  0.00    +0.000 C 
BRANCH  23  24
ATOM     24  C   UNL     1       3.964   3.418  16.395  0.00  0.00    +0.000 C 
ATOM     25  C   UNL     1       3.702   2.181  17.239  0.00  0.00    +0.000 C 
ENDBRANCH  23  24
ENDBRANCH  19  23
ENDBRANCH  18  19
ENDBRANCH   1  18
TORSDOF 6
ENDMDL
MODEL 4
REMARK VINA RESULT:      -6.5      6.237      9.071
REMARK  Name = 
REMARK  10 active torsions:
REMARK  status: ('A' for Active; 'I' for Inactive)
REMARK    1  A    between atoms: C_1  and  C_2
REMARK    2  A    between atoms: C_2  and  C_3
REMARK    3  A    between atoms: C_3  and  N_4
REMARK    4  A    between atoms: N_4  and  C_5
REMARK    5  A    between atoms: N_4  and  C_8
REMARK    6  A    between atoms: C_5  and  C_6
REMARK    7  A    between atoms: C_6  and  C_7
REMARK    8  A    between atoms: C_8  and  C_9
REMARK    9  A    between atoms: C_15  and  C_16
REMARK   10  A    between atoms: C_21  and  C_22
REMARK                            x       y       z     vdW  Elec       q    Type
REMARK                         _______ _______ _______ _____ _____    ______ ____
ROOT
ATOM      1  C   UNL     1       1.312   8.962  20.754  0.00  0.00    +0.000 C 
ATOM      2  C   UNL     1       1.348   9.675  22.088  0.00  0.00    +0.000 C 
ATOM      3  O   UNL     1       2.015   9.334  23.055  0.00  0.00    +0.000 OA
ATOM      4  O   UNL     1       0.512  10.750  22.088  0.00  0.00    +0.000 OA
ATOM      5  C   UNL     1       0.141  11.019  20.751  0.00  0.00    +0.000 C 
ATOM      6  C   UNL     1      -1.210  11.671  20.510  0.00  0.00    +0.000 C 
ATOM      7  C   UNL     1      -2.097  12.082  21.457  0.00  0.00    +0.000 C 
ATOM      8  C   UNL     1      -2.033  11.963  22.952  0.00  0.00    +0.000 C 
ATOM      9  C   UNL     1      -3.360  12.746  21.011  0.00  0.00    +0.000 C 
ATOM     10  O   UNL     1      -3.986  13.521  21.724  0.00  0.00    +0.000 OA
ATOM     11  C   UNL     1      -3.864  12.404  19.674  0.00  0.00    +0.000 C 
ATOM     12  C   UNL     1      -3.001  11.991  18.739  0.00  0.00    +0.000 C 
ATOM     13  C   UNL     1      -1.514  11.811  18.989  0.00  0.00    +0.000 C 
ATOM     14  C   UNL     1      -0.784  13.055  18.437  0.00  0.00    +0.000 C 
ATOM     15  C   UNL     1      -1.098  10.549  18.157  0.00  0.00    +0.000 C 
ATOM     16  C   UNL     1       0.218   9.888  18.580  0.00  0.00    +0.000 C 
ATOM     17  C   UNL     1       0.152   9.665  20.080  0.00  0.00    +0.000 C 
ENDROOT
BRANCH   1  18
ATOM     18  C   UNL     1       1.016   7.478  21.044  0.00  0.00    +0.000 C 
BRANCH  18  19
ATOM     19  N   UNL     1       2.016   6.494  20.553  0.00  0.00    +0.000 NA
BRANCH  19  20
ATOM     20  C   UNL     1       1.400   5.146  20.528  0.00  0.00    +0.000 C 
BRANCH  20  22
ATOM     21  C   UNL     1       1.694   2.624  20.906  0.00  0.00    +0.000 C 
ATOM     22  C   UNL     1       2.067   4.029  21.348  0.00  0.00    +0.000 C 
ENDBRANCH  20  22
ENDBRANCH  19  20
BRANCH  19  23
ATOM     23  C   UNL     1       2.477   6.886  19.195  0.00  0.00    +0.000 C 
BRANCH  23  24
ATOM     24  C   UNL     1       2.441   5.787  18.112  0.00  0.00    +0.000 C 
ATOM     25  C   UNL     1       3.818   5.360  17.633  0.00  0.00    +0.000 C 
ENDBRANCH  23  24
ENDBRANCH  19  23
ENDBRANCH  18  19
ENDBRANCH   1  18
TORSDOF 6
ENDMDL
MODEL 5
REMARK VINA RESULT:      -6.5      2.291      3.796
REMARK  Name = 
REMARK  10 active torsions:
REMARK  status: ('A' for Active; 'I' for Inactive)
REMARK    1  A    between atoms: C_1  and  C_2
REMARK    2  A    between atoms: C_2  and  C_3
REMARK    3  A    between atoms: C_3  and  N_4
REMARK    4  A    between atoms: N_4  and  C_5
REMARK    5  A    between atoms: N_4  and  C_8
REMARK    6  A    between atoms: C_5  and  C_6
REMARK    7  A    between atoms: C_6  and  C_7
REMARK    8  A    between atoms: C_8  and  C_9
REMARK    9  A    between atoms: C_15  and  C_16
REMARK   10  A    between atoms: C_21  and  C_22
REMARK                            x       y       z     vdW  Elec       q    Type
REMARK                         _______ _______ _______ _____ _____    ______ ____
ROOT
ATOM      1  C   UNL     1       4.028   6.521  16.850  0.00  0.00    +0.000 C 
ATOM      2  C   UNL     1       2.953   7.292  17.584  0.00  0.00    +0.000 C 
ATOM      3  O   UNL     1       2.722   8.485  17.451  0.00  0.00    +0.000 OA
ATOM      4  O   UNL     1       2.276   6.483  18.445  0.00  0.00    +0.000 OA
ATOM      5  C   UNL     1       2.592   5.142  18.129  0.00  0.00    +0.000 C 
ATOM      6  C   UNL     1       2.537   4.121  19.253  0.00  0.00    +0.000 C 
ATOM      7  C   UNL     1       2.161   4.345  20.541  0.00  0.00    +0.000 C 
ATOM      8  C   UNL     1       1.762   5.623  21.219  0.00  0.00    +0.000 C 
ATOM      9  C   UNL     1       2.132   3.189  21.488  0.00  0.00    +0.000 C 
ATOM     10  O   UNL     1       1.422   3.168  22.486  0.00  0.00    +0.000 OA
ATOM     11  C   UNL     1       3.034   2.064  21.203  0.00  0.00    +0.000 C 
ATOM     12  C   UNL     1       3.418   1.841  19.942  0.00  0.00    +0.000 C 
ATOM     13  C   UNL     1       3.005   2.715  18.770  0.00  0.00    +0.000 C 
ATOM     14  C   UNL     1       1.839   2.015  18.040  0.00  0.00    +0.000 C 
ATOM     15  C   UNL     1       4.255   2.771  17.826  0.00  0.00    +0.000 C 
ATOM     16  C   UNL     1       4.271   3.928  16.823  0.00  0.00    +0.000 C 
ATOM     17  C   UNL     1       4.006   5.205  17.600  0.00  0.00    +0.000 C 
ENDROOT
BRANCH   1  18
ATOM     18  C   UNL     1       5.348   7.290  17.045  0.00  0.00    +0.000 C 
BRANCH  18  19
ATOM     19  N   UNL     1       6.524   6.796  16.283  0.00  0.00    +0.000 NA
BRANCH  19  20
ATOM     20  C   UNL     1       7.348   5.934  17.164  0.00  0.00    +0.000 C 
BRANCH  20  22
ATOM     21  C   UNL     1       7.733   5.534  19.670  0.00  0.00    +0.000 C 
ATOM     22  C   UNL     1       7.816   6.512  18.510  0.00  0.00    +0.000 C 
ENDBRANCH  20  22
ENDBRANCH  19  20
BRANCH  19  23
ATOM     23  C   UNL     1       6.062   6.038  15.090  0.00  0.00    +0.000 C 
BRANCH  23  24
ATOM     24  C   UNL     1       6.944   4.854  14.643  0.00  0.00    +0.000 C 
ATOM     25  C   UNL     1       6.245   3.899  13.690  0.00  0.00    +0.000 C 
ENDBRANCH  23  24
ENDBRANCH  19  23
ENDBRANCH  18  19
ENDBRANCH   1  18
TORSDOF 6
ENDMDL
MODEL 6
REMARK VINA RESULT:      -6.5      2.576      4.297
REMARK  Name = 
REMARK  10 active torsions:
REMARK  status: ('A' for Active; 'I' for Inactive)
REMARK    1  A    between atoms: C_1  and  C_2
REMARK    2  A    between atoms: C_2  and  C_3
REMARK    3  A    between atoms: C_3  and  N_4
REMARK    4  A    between atoms: N_4  and  C_5
REMARK    5  A    between atoms: N_4  and  C_8
REMARK    6  A    between atoms: C_5  and  C_6
REMARK    7  A    between atoms: C_6  and  C_7
REMARK    8  A    between atoms: C_8  and  C_9
REMARK    9  A    between atoms: C_15  and  C_16
REMARK   10  A    between atoms: C_21  and  C_22
REMARK                            x       y       z     vdW  Elec       q    Type
REMARK                         _______ _______ _______ _____ _____    ______ ____
ROOT
ATOM      1  C   UNL     1       4.207   6.693  16.923  0.00  0.00    +0.000 C 
ATOM      2  C   UNL     1       3.148   7.448  17.697  0.00  0.00    +0.000 C 
ATOM      3  O   UNL     1       2.951   8.652  17.637  0.00  0.00    +0.000 OA
ATOM      4  O   UNL     1       2.443   6.606  18.503  0.00  0.00    +0.000 OA
ATOM      5  C   UNL     1       2.724   5.278  18.107  0.00  0.00    +0.000 C 
ATOM      6  C   UNL     1       2.634   4.192  19.166  0.00  0.00    +0.000 C 
ATOM      7  C   UNL     1       2.255   4.347  20.463  0.00  0.00    +0.000 C 
ATOM      8  C   UNL     1       1.886   5.592  21.217  0.00  0.00    +0.000 C 
ATOM      9  C   UNL     1       2.188   3.136  21.337  0.00  0.00    +0.000 C 
ATOM     10  O   UNL     1       1.471   3.074  22.328  0.00  0.00    +0.000 OA
ATOM     11  C   UNL     1       3.061   2.007  20.988  0.00  0.00    +0.000 C 
ATOM     12  C   UNL     1       3.447   1.850  19.717  0.00  0.00    +0.000 C 
ATOM     13  C   UNL     1       3.066   2.806  18.600  0.00  0.00    +0.000 C 
ATOM     14  C   UNL     1       1.887   2.184  17.822  0.00  0.00    +0.000 C 
ATOM     15  C   UNL     1       4.324   2.885  17.668  0.00  0.00    +0.000 C 
ATOM     16  C   UNL     1       4.378   4.101  16.738  0.00  0.00    +0.000 C 
ATOM     17  C   UNL     1       4.143   5.334  17.591  0.00  0.00    +0.000 C 
ENDROOT
BRANCH   1  18
ATOM     18  C   UNL     1       5.546   7.412  17.172  0.00  0.00    +0.000 C 
BRANCH  18  19
ATOM     19  N   UNL     1       6.754   6.552  17.263  0.00  0.00    +0.000 NA
BRANCH  19  20
ATOM     20  C   UNL     1       7.205   6.201  15.896  0.00  0.00    +0.000 C 
BRANCH  20  22
ATOM     21  C   UNL     1       6.729   4.456  14.075  0.00  0.00    +0.000 C 
ATOM     22  C   UNL     1       7.208   4.717  15.493  0.00  0.00    +0.000 C 
ENDBRANCH  20  22
ENDBRANCH  19  20
BRANCH  19  23
ATOM     23  C   UNL     1       7.825   7.274  18.001  0.00  0.00    +0.000 C 
BRANCH  23  24
ATOM     24  C   UNL     1       8.008   8.768  17.662  0.00  0.00    +0.000 C 
ATOM     25  C   UNL     1       8.772   9.544  18.722  0.00  0.00    +0.000 C 
ENDBRANCH  23  24
ENDBRANCH  19  23
ENDBRANCH  18  19
ENDBRANCH   1  18
TORSDOF 6
ENDMDL
MODEL 7
REMARK VINA RESULT:      -6.4      0.526      1.854
REMARK  Name = 
REMARK  10 active torsions:
REMARK  status: ('A' for Active; 'I' for Inactive)
REMARK    1  A    between atoms: C_1  and  C_2
REMARK    2  A    between atoms: C_2  and  C_3
REMARK    3  A    between atoms: C_3  and  N_4
REMARK    4  A    between atoms: N_4  and  C_5
REMARK    5  A    between atoms: N_4  and  C_8
REMARK    6  A    between atoms: C_5  and  C_6
REMARK    7  A    between atoms: C_6  and  C_7
REMARK    8  A    between atoms: C_8  and  C_9
REMARK    9  A    between atoms: C_15  and  C_16
REMARK   10  A    between atoms: C_21  and  C_22
REMARK                            x       y       z     vdW  Elec       q    Type
REMARK                         _______ _______ _______ _____ _____    ______ ____
ROOT
ATOM      1  C   UNL     1       6.005   4.554  16.550  0.00  0.00    +0.000 C 
ATOM      2  C   UNL     1       6.912   4.191  17.705  0.00  0.00    +0.000 C 
ATOM      3  O   UNL     1       8.119   4.015  17.628  0.00  0.00    +0.000 OA
ATOM      4  O   UNL     1       6.201   4.059  18.859  0.00  0.00    +0.000 OA
ATOM      5  C   UNL     1       4.918   4.614  18.651  0.00  0.00    +0.000 C 
ATOM      6  C   UNL     1       3.764   4.048  19.462  0.00  0.00    +0.000 C 
ATOM      7  C   UNL     1       3.836   3.085  20.421  0.00  0.00    +0.000 C 
ATOM      8  C   UNL     1       5.016   2.290  20.900  0.00  0.00    +0.000 C 
ATOM      9  C   UNL     1       2.584   2.698  21.139  0.00  0.00    +0.000 C 
ATOM     10  O   UNL     1       2.590   2.209  22.262  0.00  0.00    +0.000 OA
ATOM     11  C   UNL     1       1.314   2.887  20.425  0.00  0.00    +0.000 C 
ATOM     12  C   UNL     1       1.235   3.824  19.474  0.00  0.00    +0.000 C 
ATOM     13  C   UNL     1       2.407   4.693  19.051  0.00  0.00    +0.000 C 
ATOM     14  C   UNL     1       2.262   6.062  19.748  0.00  0.00    +0.000 C 
ATOM     15  C   UNL     1       2.255   4.877  17.501  0.00  0.00    +0.000 C 
ATOM     16  C   UNL     1       3.524   5.316  16.764  0.00  0.00    +0.000 C 
ATOM     17  C   UNL     1       4.640   4.378  17.185  0.00  0.00    +0.000 C 
ENDROOT
BRANCH   1  18
ATOM     18  C   UNL     1       6.271   3.532  15.428  0.00  0.00    +0.000 C 
BRANCH  18  19
ATOM     19  N   UNL     1       6.484   4.083  14.065  0.00  0.00    +0.000 NA
BRANCH  19  20
ATOM     20  C   UNL     1       5.169   4.285  13.411  0.00  0.00    +0.000 C 
BRANCH  20  22
ATOM     21  C   UNL     1       5.956   2.502  11.741  0.00  0.00    +0.000 C 
ATOM     22  C   UNL     1       4.853   3.464  12.150  0.00  0.00    +0.000 C 
ENDBRANCH  20  22
ENDBRANCH  19  20
BRANCH  19  23
ATOM     23  C   UNL     1       7.228   5.367  14.156  0.00  0.00    +0.000 C 
BRANCH  23  24
ATOM     24  C   UNL     1       8.365   5.578  13.134  0.00  0.00    +0.000 C 
ATOM     25  C   UNL     1       7.883   6.074  11.781  0.00  0.00    +0.000 C 
ENDBRANCH  23  24
ENDBRANCH  19  23
ENDBRANCH  18  19
ENDBRANCH   1  18
TORSDOF 6
ENDMDL
MODEL 8
REMARK VINA RESULT:      -6.4      6.213      8.857
REMARK  Name = 
REMARK  10 active torsions:
REMARK  status: ('A' for Active; 'I' for Inactive)
REMARK    1  A    between atoms: C_1  and  C_2
REMARK    2  A    between atoms: C_2  and  C_3
REMARK    3  A    between atoms: C_3  and  N_4
REMARK    4  A    between atoms: N_4  and  C_5
REMARK    5  A    between atoms: N_4  and  C_8
REMARK    6  A    between atoms: C_5  and  C_6
REMARK    7  A    between atoms: C_6  and  C_7
REMARK    8  A    between atoms: C_8  and  C_9
REMARK    9  A    between atoms: C_15  and  C_16
REMARK   10  A    between atoms: C_21  and  C_22
REMARK                            x       y       z     vdW  Elec       q    Type
REMARK                         _______ _______ _______ _____ _____    ______ ____
ROOT
ATOM      1  C   UNL     1       1.365   8.952  20.808  0.00  0.00    +0.000 C 
ATOM      2  C   UNL     1       1.411   9.699  22.123  0.00  0.00    +0.000 C 
ATOM      3  O   UNL     1       2.085   9.383  23.093  0.00  0.00    +0.000 OA
ATOM      4  O   UNL     1       0.575  10.774  22.101  0.00  0.00    +0.000 OA
ATOM      5  C   UNL     1       0.195  11.008  20.760  0.00  0.00    +0.000 C 
ATOM      6  C   UNL     1      -1.157  11.655  20.512  0.00  0.00    +0.000 C 
ATOM      7  C   UNL     1      -2.038  12.090  21.453  0.00  0.00    +0.000 C 
ATOM      8  C   UNL     1      -1.964  12.010  22.951  0.00  0.00    +0.000 C 
ATOM      9  C   UNL     1      -3.303  12.744  21.000  0.00  0.00    +0.000 C 
ATOM     10  O   UNL     1      -3.925  13.537  21.696  0.00  0.00    +0.000 OA
ATOM     11  C   UNL     1      -3.817  12.367  19.675  0.00  0.00    +0.000 C 
ATOM     12  C   UNL     1      -2.961  11.930  18.746  0.00  0.00    +0.000 C 
ATOM     13  C   UNL     1      -1.471  11.756  18.989  0.00  0.00    +0.000 C 
ATOM     14  C   UNL     1      -0.746  12.985  18.401  0.00  0.00    +0.000 C 
ATOM     15  C   UNL     1      -1.061  10.473  18.188  0.00  0.00    +0.000 C 
ATOM     16  C   UNL     1       0.257   9.822  18.618  0.00  0.00    +0.000 C 
ATOM     17  C   UNL     1       0.201   9.638  20.124  0.00  0.00    +0.000 C 
ENDROOT
BRANCH   1  18
ATOM     18  C   UNL     1       1.071   7.476  21.137  0.00  0.00    +0.000 C 
BRANCH  18  19
ATOM     19  N   UNL     1       1.502   6.472  20.130  0.00  0.00    +0.000 NA
BRANCH  19  20
ATOM     20  C   UNL     1       2.655   7.010  19.369  0.00  0.00    +0.000 C 
BRANCH  20  22
ATOM     21  C   UNL     1       4.488   6.249  17.741  0.00  0.00    +0.000 C 
ATOM     22  C   UNL     1       2.998   6.361  18.018  0.00  0.00    +0.000 C 
ENDBRANCH  20  22
ENDBRANCH  19  20
BRANCH  19  23
ATOM     23  C   UNL     1       1.869   5.204  20.814  0.00  0.00    +0.000 C 
BRANCH  23  24
ATOM     24  C   UNL     1       1.019   3.964  20.467  0.00  0.00    +0.000 C 
ATOM     25  C   UNL     1       1.663   3.053  19.435  0.00  0.00    +0.000 C 
ENDBRANCH  23  24
ENDBRANCH  19  23
ENDBRANCH  18  19
ENDBRANCH   1  18
TORSDOF 6
ENDMDL
MODEL 9
REMARK VINA RESULT:      -6.3      3.076      6.756
REMARK  Name = 
REMARK  10 active torsions:
REMARK  status: ('A' for Active; 'I' for Inactive)
REMARK    1  A    between atoms: C_1  and  C_2
REMARK    2  A    between atoms: C_2  and  C_3
REMARK    3  A    between atoms: C_3  and  N_4
REMARK    4  A    between atoms: N_4  and  C_5
REMARK    5  A    between atoms: N_4  and  C_8
REMARK    6  A    between atoms: C_5  and  C_6
REMARK    7  A    between atoms: C_6  and  C_7
REMARK    8  A    between atoms: C_8  and  C_9
REMARK    9  A    between atoms: C_15  and  C_16
REMARK   10  A    between atoms: C_21  and  C_22
REMARK                            x       y       z     vdW  Elec       q    Type
REMARK                         _______ _______ _______ _____ _____    ______ ____
ROOT
ATOM      1  C   UNL     1       2.676   6.634  19.219  0.00  0.00    +0.000 C 
ATOM      2  C   UNL     1       2.512   7.595  18.061  0.00  0.00    +0.000 C 
ATOM      3  O   UNL     1       1.534   8.299  17.858  0.00  0.00    +0.000 OA
ATOM      4  O   UNL     1       3.601   7.559  17.243  0.00  0.00    +0.000 OA
ATOM      5  C   UNL     1       4.639   6.881  17.920  0.00  0.00    +0.000 C 
ATOM      6  C   UNL     1       5.666   6.141  17.080  0.00  0.00    +0.000 C 
ATOM      7  C   UNL     1       5.730   6.100  15.721  0.00  0.00    +0.000 C 
ATOM      8  C   UNL     1       4.812   6.698  14.695  0.00  0.00    +0.000 C 
ATOM      9  C   UNL     1       6.852   5.347  15.082  0.00  0.00    +0.000 C 
ATOM     10  O   UNL     1       7.259   5.597  13.954  0.00  0.00    +0.000 OA
ATOM     11  C   UNL     1       7.442   4.241  15.849  0.00  0.00    +0.000 C 
ATOM     12  C   UNL     1       7.377   4.267  17.184  0.00  0.00    +0.000 C 
ATOM     13  C   UNL     1       6.683   5.367  17.970  0.00  0.00    +0.000 C 
ATOM     14  C   UNL     1       7.763   6.346  18.477  0.00  0.00    +0.000 C 
ATOM     15  C   UNL     1       6.012   4.650  19.193  0.00  0.00    +0.000 C 
ATOM     16  C   UNL     1       4.890   5.434  19.880  0.00  0.00    +0.000 C 
ATOM     17  C   UNL     1       3.923   5.883  18.800  0.00  0.00    +0.000 C 
ENDROOT
BRANCH   1  18
ATOM     18  C   UNL     1       1.424   5.737  19.240  0.00  0.00    +0.000 C 
BRANCH  18  19
ATOM     19  N   UNL     1       1.659   4.270  19.239  0.00  0.00    +0.000 NA
BRANCH  19  20
ATOM     20  C   UNL     1       0.790   3.637  20.260  0.00  0.00    +0.000 C 
BRANCH  20  22
ATOM     21  C   UNL     1       2.863   2.616  21.378  0.00  0.00    +0.000 C 
ATOM     22  C   UNL     1       1.445   3.131  21.556  0.00  0.00    +0.000 C 
ENDBRANCH  20  22
ENDBRANCH  19  20
BRANCH  19  23
ATOM     23  C   UNL     1       1.371   3.719  17.888  0.00  0.00    +0.000 C 
BRANCH  23  24
ATOM     24  C   UNL     1       2.586   3.241  17.066  0.00  0.00    +0.000 C 
ATOM     25  C   UNL     1       3.461   2.238  17.801  0.00  0.00    +0.000 C 
ENDBRANCH  23  24
ENDBRANCH  19  23
ENDBRANCH  18  19
ENDBRANCH   1  18
TORSDOF 6
ENDMDL
