MODEL 1
REMARK VINA RESULT:      -4.6      0.000      0.000
REMARK  Name = 
REMARK  8 active torsions:
REMARK  status: ('A' for Active; 'I' for Inactive)
REMARK    1  A    between atoms: C_1  and  C_2
REMARK    2  A    between atoms: C_2  and  C_3
REMARK    3  A    between atoms: C_3  and  P_4
REMARK    4  A    between atoms: P_4  and  O_6
REMARK    5  A    between atoms: P_4  and  C_7
REMARK    6  A    between atoms: C_7  and  C_8
REMARK    7  A    between atoms: C_8  and  C_9
REMARK    8  A    between atoms: C_9  and  N_10
REMARK                            x       y       z     vdW  Elec       q    Type
REMARK                         _______ _______ _______ _____ _____    ______ ____
ROOT
ATOM      1  P   UNL     1       6.259   5.402  16.198  0.00  0.00    +0.000 P 
ATOM      2  O   UNL     1       7.676   5.535  15.623  0.00  0.00    +0.000 OA
ENDROOT
BRANCH   1   3
ATOM      3  O   UNL     1       5.319   6.301  15.188  0.00  0.00    +0.000 OA
ATOM      4  H   UNL     1       5.693   7.202  15.092  0.00  0.00    +0.000 HD
ENDBRANCH   1   3
BRANCH   1   5
ATOM      5  C   UNL     1       5.973   3.930  15.148  0.00  0.00    +0.000 C 
BRANCH   5   7
ATOM      6  C   UNL     1       6.296   3.495  12.657  0.00  0.00    +0.000 C 
ATOM      7  C   UNL     1       5.462   4.173  13.729  0.00  0.00    +0.000 C 
ENDBRANCH   5   7
ENDBRANCH   1   5
BRANCH   1   8
ATOM      8  C   UNL     1       6.545   6.873  17.248  0.00  0.00    +0.000 C 
BRANCH   8   9
ATOM      9  C   UNL     1       7.627   6.602  18.293  0.00  0.00    +0.000 C 
BRANCH   9  10
ATOM     10  C   UNL     1       7.192   5.541  19.298  0.00  0.00    +0.000 C 
BRANCH  10  11
ATOM     11  N   UNL     1       8.112   5.525  20.428  0.00  0.00    +0.000 NA
ATOM     12  H   UNL     1       9.033   5.212  20.128  0.00  0.00    +0.000 HD
ATOM     13  H   UNL     1       7.790   4.845  21.120  0.00  0.00    +0.000 HD
ENDBRANCH  10  11
ENDBRANCH   9  10
ENDBRANCH   8   9
ENDBRANCH   1   8
TORSDOF 7
ENDMDL
MODEL 2
REMARK VINA RESULT:      -4.5      2.651      4.757
REMARK  Name = 
REMARK  8 active torsions:
REMARK  status: ('A' for Active; 'I' for Inactive)
REMARK    1  A    between atoms: C_1  and  C_2
REMARK    2  A    between atoms: C_2  and  C_3
REMARK    3  A    between atoms: C_3  and  P_4
REMARK    4  A    between atoms: P_4  and  O_6
REMARK    5  A    between atoms: P_4  and  C_7
REMARK    6  A    between atoms: C_7  and  C_8
REMARK    7  A    between atoms: C_8  and  C_9
REMARK    8  A    between atoms: C_9  and  N_10
REMARK                            x       y       z     vdW  Elec       q    Type
REMARK                         _______ _______ _______ _____ _____    ______ ____
ROOT
ATOM      1  P   UNL     1       6.621   4.983  17.774  0.00  0.00    +0.000 P 
ATOM      2  O   UNL     1       7.875   4.344  17.163  0.00  0.00    +0.000 OA
ENDROOT
BRANCH   1   3
ATOM      3  O   UNL     1       6.127   3.909  18.922  0.00  0.00    +0.000 OA
ATOM      4  H   UNL     1       6.064   4.352  19.794  0.00  0.00    +0.000 HD
ENDBRANCH   1   3
BRANCH   1   5
ATOM      5  C   UNL     1       7.661   5.830  19.019  0.00  0.00    +0.000 C 
BRANCH   5   7
ATOM      6  C   UNL     1       7.537   7.852  17.472  0.00  0.00    +0.000 C 
ATOM      7  C   UNL     1       8.253   7.184  18.631  0.00  0.00    +0.000 C 
ENDBRANCH   5   7
ENDBRANCH   1   5
BRANCH   1   8
ATOM      8  C   UNL     1       5.581   4.136  16.529  0.00  0.00    +0.000 C 
BRANCH   8   9
ATOM      9  C   UNL     1       6.390   3.789  15.280  0.00  0.00    +0.000 C 
BRANCH   9  10
ATOM     10  C   UNL     1       6.393   4.931  14.270  0.00  0.00    +0.000 C 
BRANCH  10  11
ATOM     11  N   UNL     1       7.739   5.479  14.149  0.00  0.00    +0.000 NA
ATOM     12  H   UNL     1       8.278   4.941  13.474  0.00  0.00    +0.000 HD
ATOM     13  H   UNL     1       8.226   5.386  15.043  0.00  0.00    +0.000 HD
ENDBRANCH  10  11
ENDBRANCH   9  10
ENDBRANCH   8   9
ENDBRANCH   1   8
TORSDOF 7
ENDMDL
MODEL 3
REMARK VINA RESULT:      -4.5      1.719      2.091
REMARK  Name = 
REMARK  8 active torsions:
REMARK  status: ('A' for Active; 'I' for Inactive)
REMARK    1  A    between atoms: C_1  and  C_2
REMARK    2  A    between atoms: C_2  and  C_3
REMARK    3  A    between atoms: C_3  and  P_4
REMARK    4  A    between atoms: P_4  and  O_6
REMARK    5  A    between atoms: P_4  and  C_7
REMARK    6  A    between atoms: C_7  and  C_8
REMARK    7  A    between atoms: C_8  and  C_9
REMARK    8  A    between atoms: C_9  and  N_10
REMARK                            x       y       z     vdW  Elec       q    Type
REMARK                         _______ _______ _______ _____ _____    ______ ____
ROOT
ATOM      1  P   UNL     1       6.172   4.884  14.710  0.00  0.00    +0.000 P 
ATOM      2  O   UNL     1       6.225   3.434  15.210  0.00  0.00    +0.000 OA
ENDROOT
BRANCH   1   3
ATOM      3  O   UNL     1       7.715   5.435  14.880  0.00  0.00    +0.000 OA
ATOM      4  H   UNL     1       7.775   6.368  14.584  0.00  0.00    +0.000 HD
ENDBRANCH   1   3
BRANCH   1   5
ATOM      5  C   UNL     1       6.566   4.313  13.016  0.00  0.00    +0.000 C 
BRANCH   5   7
ATOM      6  C   UNL     1       4.611   3.425  11.643  0.00  0.00    +0.000 C 
ATOM      7  C   UNL     1       5.816   3.086  12.500  0.00  0.00    +0.000 C 
ENDBRANCH   5   7
ENDBRANCH   1   5
BRANCH   1   8
ATOM      8  C   UNL     1       5.778   5.455  16.403  0.00  0.00    +0.000 C 
BRANCH   8   9
ATOM      9  C   UNL     1       6.958   6.206  17.020  0.00  0.00    +0.000 C 
BRANCH   9  10
ATOM     10  C   UNL     1       7.577   5.436  18.181  0.00  0.00    +0.000 C 
BRANCH  10  11
ATOM     11  N   UNL     1       8.082   4.152  17.709  0.00  0.00    +0.000 NA
ATOM     12  H   UNL     1       8.483   4.253  16.779  0.00  0.00    +0.000 HD
ATOM     13  H   UNL     1       7.305   3.494  17.615  0.00  0.00    +0.000 HD
ENDBRANCH  10  11
ENDBRANCH   9  10
ENDBRANCH   8   9
ENDBRANCH   1   8
TORSDOF 7
ENDMDL
MODEL 4
REMARK VINA RESULT:      -4.5      4.044      4.522
REMARK  Name = 
REMARK  8 active torsions:
REMARK  status: ('A' for Active; 'I' for Inactive)
REMARK    1  A    between atoms: C_1  and  C_2
REMARK    2  A    between atoms: C_2  and  C_3
REMARK    3  A    between atoms: C_3  and  P_4
REMARK    4  A    between atoms: P_4  and  O_6
REMARK    5  A    between atoms: P_4  and  C_7
REMARK    6  A    between atoms: C_7  and  C_8
REMARK    7  A    between atoms: C_8  and  C_9
REMARK    8  A    between atoms: C_9  and  N_10
REMARK                            x       y       z     vdW  Elec       q    Type
REMARK                         _______ _______ _______ _____ _____    ______ ____
ROOT
ATOM      1  P   UNL     1       4.258   3.717  18.362  0.00  0.00    +0.000 P 
ATOM      2  O   UNL     1       5.215   3.280  19.480  0.00  0.00    +0.000 OA
ENDROOT
BRANCH   1   3
ATOM      3  O   UNL     1       4.992   3.220  16.974  0.00  0.00    +0.000 OA
ATOM      4  H   UNL     1       5.830   3.712  16.840  0.00  0.00    +0.000 HD
ENDBRANCH   1   3
BRANCH   1   5
ATOM      5  C   UNL     1       3.393   2.108  18.477  0.00  0.00    +0.000 C 
BRANCH   5   7
ATOM      6  C   UNL     1       0.917   2.661  18.723  0.00  0.00    +0.000 C 
ATOM      7  C   UNL     1       2.149   2.045  19.361  0.00  0.00    +0.000 C 
ENDBRANCH   5   7
ENDBRANCH   1   5
BRANCH   1   8
ATOM      8  C   UNL     1       5.123   5.325  18.248  0.00  0.00    +0.000 C 
BRANCH   8   9
ATOM      9  C   UNL     1       6.315   5.379  19.203  0.00  0.00    +0.000 C 
BRANCH   9  10
ATOM     10  C   UNL     1       7.640   5.457  18.452  0.00  0.00    +0.000 C 
BRANCH  10  11
ATOM     11  N   UNL     1       7.870   4.215  17.725  0.00  0.00    +0.000 NA
ATOM     12  H   UNL     1       8.705   3.752  18.075  0.00  0.00    +0.000 HD
ATOM     13  H   UNL     1       8.050   4.424  16.741  0.00  0.00    +0.000 HD
ENDBRANCH  10  11
ENDBRANCH   9  10
ENDBRANCH   8   9
ENDBRANCH   1   8
TORSDOF 7
ENDMDL
MODEL 5
REMARK VINA RESULT:      -4.3      2.356      2.717
REMARK  Name = 
REMARK  8 active torsions:
REMARK  status: ('A' for Active; 'I' for Inactive)
REMARK    1  A    between atoms: C_1  and  C_2
REMARK    2  A    between atoms: C_2  and  C_3
REMARK    3  A    between atoms: C_3  and  P_4
REMARK    4  A    between atoms: P_4  and  O_6
REMARK    5  A    between atoms: P_4  and  C_7
REMARK    6  A    between atoms: C_7  and  C_8
REMARK    7  A    between atoms: C_8  and  C_9
REMARK    8  A    between atoms: C_9  and  N_10
REMARK                            x       y       z     vdW  Elec       q    Type
REMARK                         _______ _______ _______ _____ _____    ______ ____
ROOT
ATOM      1  P   UNL     1       6.433   4.898  16.579  0.00  0.00    +0.000 P 
ATOM      2  O   UNL     1       5.417   3.755  16.455  0.00  0.00    +0.000 OA
ENDROOT
BRANCH   1   3
ATOM      3  O   UNL     1       7.852   4.150  16.955  0.00  0.00    +0.000 OA
ATOM      4  H   UNL     1       8.341   3.924  16.137  0.00  0.00    +0.000 HD
ENDBRANCH   1   3
BRANCH   1   5
ATOM      5  C   UNL     1       6.826   4.741  14.799  0.00  0.00    +0.000 C 
BRANCH   5   7
ATOM      6  C   UNL     1       6.375   3.600  12.564  0.00  0.00    +0.000 C 
ATOM      7  C   UNL     1       5.826   3.984  13.926  0.00  0.00    +0.000 C 
ENDBRANCH   5   7
ENDBRANCH   1   5
BRANCH   1   8
ATOM      8  C   UNL     1       6.040   5.056  18.359  0.00  0.00    +0.000 C 
BRANCH   8   9
ATOM      9  C   UNL     1       4.541   4.890  18.609  0.00  0.00    +0.000 C 
BRANCH   9  10
ATOM     10  C   UNL     1       4.258   3.860  19.698  0.00  0.00    +0.000 C 
BRANCH  10  11
ATOM     11  N   UNL     1       4.948   2.613  19.389  0.00  0.00    +0.000 NA
ATOM     12  H   UNL     1       5.123   2.088  20.242  0.00  0.00    +0.000 HD
ATOM     13  H   UNL     1       5.864   2.821  18.988  0.00  0.00    +0.000 HD
ENDBRANCH  10  11
ENDBRANCH   9  10
ENDBRANCH   8   9
ENDBRANCH   1   8
TORSDOF 7
ENDMDL
MODEL 6
REMARK VINA RESULT:      -4.3      1.272      1.587
REMARK  Name = 
REMARK  8 active torsions:
REMARK  status: ('A' for Active; 'I' for Inactive)
REMARK    1  A    between atoms: C_1  and  C_2
REMARK    2  A    between atoms: C_2  and  C_3
REMARK    3  A    between atoms: C_3  and  P_4
REMARK    4  A    between atoms: P_4  and  O_6
REMARK    5  A    between atoms: P_4  and  C_7
REMARK    6  A    between atoms: C_7  and  C_8
REMARK    7  A    between atoms: C_8  and  C_9
REMARK    8  A    between atoms: C_9  and  N_10
REMARK                            x       y       z     vdW  Elec       q    Type
REMARK                         _______ _______ _______ _____ _____    ______ ____
ROOT
ATOM      1  P   UNL     1       6.456   4.429  15.090  0.00  0.00    +0.000 P 
ATOM      2  O   UNL     1       7.728   5.276  15.233  0.00  0.00    +0.000 OA
ENDROOT
BRANCH   1   3
ATOM      3  O   UNL     1       5.238   5.533  14.976  0.00  0.00    +0.000 OA
ATOM      4  H   UNL     1       5.564   6.423  15.224  0.00  0.00    +0.000 HD
ENDBRANCH   1   3
BRANCH   1   5
ATOM      5  C   UNL     1       6.645   4.454  13.270  0.00  0.00    +0.000 C 
BRANCH   5   7
ATOM      6  C   UNL     1       4.767   3.420  11.891  0.00  0.00    +0.000 C 
ATOM      7  C   UNL     1       6.145   3.234  12.498  0.00  0.00    +0.000 C 
ENDBRANCH   5   7
ENDBRANCH   1   5
BRANCH   1   8
ATOM      8  C   UNL     1       6.267   4.404  16.910  0.00  0.00    +0.000 C 
BRANCH   8   9
ATOM      9  C   UNL     1       7.603   4.658  17.606  0.00  0.00    +0.000 C 
BRANCH   9  10
ATOM     10  C   UNL     1       7.530   5.848  18.557  0.00  0.00    +0.000 C 
BRANCH  10  11
ATOM     11  N   UNL     1       7.410   5.375  19.931  0.00  0.00    +0.000 NA
ATOM     12  H   UNL     1       6.514   4.913  20.067  0.00  0.00    +0.000 HD
ATOM     13  H   UNL     1       7.419   6.174  20.568  0.00  0.00    +0.000 HD
ENDBRANCH  10  11
ENDBRANCH   9  10
ENDBRANCH   8   9
ENDBRANCH   1   8
TORSDOF 7
ENDMDL
MODEL 7
REMARK VINA RESULT:      -4.3      4.614      5.583
REMARK  Name = 
REMARK  8 active torsions:
REMARK  status: ('A' for Active; 'I' for Inactive)
REMARK    1  A    between atoms: C_1  and  C_2
REMARK    2  A    between atoms: C_2  and  C_3
REMARK    3  A    between atoms: C_3  and  P_4
REMARK    4  A    between atoms: P_4  and  O_6
REMARK    5  A    between atoms: P_4  and  C_7
REMARK    6  A    between atoms: C_7  and  C_8
REMARK    7  A    between atoms: C_8  and  C_9
REMARK    8  A    between atoms: C_9  and  N_10
REMARK                            x       y       z     vdW  Elec       q    Type
REMARK                         _______ _______ _______ _____ _____    ______ ____
ROOT
ATOM      1  P   UNL     1       3.227   2.951  17.920  0.00  0.00    +0.000 P 
ATOM      2  O   UNL     1       2.750   4.310  18.448  0.00  0.00    +0.000 OA
ENDROOT
BRANCH   1   3
ATOM      3  O   UNL     1       4.449   2.519  18.937  0.00  0.00    +0.000 OA
ATOM      4  H   UNL     1       4.702   1.585  18.783  0.00  0.00    +0.000 HD
ENDBRANCH   1   3
BRANCH   1   5
ATOM      5  C   UNL     1       2.025   2.106  19.010  0.00  0.00    +0.000 C 
BRANCH   5   7
ATOM      6  C   UNL     1       1.437   2.723  21.412  0.00  0.00    +0.000 C 
ATOM      7  C   UNL     1       1.186   2.983  19.938  0.00  0.00    +0.000 C 
ENDBRANCH   5   7
ENDBRANCH   1   5
BRANCH   1   8
ATOM      8  C   UNL     1       4.430   3.795  16.829  0.00  0.00    +0.000 C 
BRANCH   8   9
ATOM      9  C   UNL     1       4.684   5.229  17.295  0.00  0.00    +0.000 C 
BRANCH   9  10
ATOM     10  C   UNL     1       6.149   5.458  17.653  0.00  0.00    +0.000 C 
BRANCH  10  11
ATOM     11  N   UNL     1       6.702   4.255  18.264  0.00  0.00    +0.000 NA
ATOM     12  H   UNL     1       6.026   3.843  18.903  0.00  0.00    +0.000 HD
ATOM     13  H   UNL     1       7.516   4.504  18.829  0.00  0.00    +0.000 HD
ENDBRANCH  10  11
ENDBRANCH   9  10
ENDBRANCH   8   9
ENDBRANCH   1   8
TORSDOF 7
ENDMDL
MODEL 8
REMARK VINA RESULT:      -4.2      4.546      5.010
REMARK  Name = 
REMARK  8 active torsions:
REMARK  status: ('A' for Active; 'I' for Inactive)
REMARK    1  A    between atoms: C_1  and  C_2
REMARK    2  A    between atoms: C_2  and  C_3
REMARK    3  A    between atoms: C_3  and  P_4
REMARK    4  A    between atoms: P_4  and  O_6
REMARK    5  A    between atoms: P_4  and  C_7
REMARK    6  A    between atoms: C_7  and  C_8
REMARK    7  A    between atoms: C_8  and  C_9
REMARK    8  A    between atoms: C_9  and  N_10
REMARK                            x       y       z     vdW  Elec       q    Type
REMARK                         _______ _______ _______ _____ _____    ______ ____
ROOT
ATOM      1  P   UNL     1       4.063   3.253  18.943  0.00  0.00    +0.000 P 
ATOM      2  O   UNL     1       4.840   2.502  20.034  0.00  0.00    +0.000 OA
ENDROOT
BRANCH   1   3
ATOM      3  O   UNL     1       4.371   2.409  17.563  0.00  0.00    +0.000 OA
ATOM      4  H   UNL     1       5.113   1.785  17.707  0.00  0.00    +0.000 HD
ENDBRANCH   1   3
BRANCH   1   5
ATOM      5  C   UNL     1       2.602   2.197  19.259  0.00  0.00    +0.000 C 
BRANCH   5   7
ATOM      6  C   UNL     1       1.346   3.994  17.960  0.00  0.00    +0.000 C 
ATOM      7  C   UNL     1       1.263   2.671  18.699  0.00  0.00    +0.000 C 
ENDBRANCH   5   7
ENDBRANCH   1   5
BRANCH   1   8
ATOM      8  C   UNL     1       5.524   4.309  18.628  0.00  0.00    +0.000 C 
BRANCH   8   9
ATOM      9  C   UNL     1       5.696   4.579  17.133  0.00  0.00    +0.000 C 
BRANCH   9  10
ATOM     10  C   UNL     1       7.167   4.624  16.731  0.00  0.00    +0.000 C 
BRANCH  10  11
ATOM     11  N   UNL     1       7.424   5.819  15.936  0.00  0.00    +0.000 NA
ATOM     12  H   UNL     1       6.899   5.782  15.065  0.00  0.00    +0.000 HD
ATOM     13  H   UNL     1       8.411   5.847  15.673  0.00  0.00    +0.000 HD
ENDBRANCH  10  11
ENDBRANCH   9  10
ENDBRANCH   8   9
ENDBRANCH   1   8
TORSDOF 7
ENDMDL
MODEL 9
REMARK VINA RESULT:      -4.2      4.108      5.397
REMARK  Name = 
REMARK  8 active torsions:
REMARK  status: ('A' for Active; 'I' for Inactive)
REMARK    1  A    between atoms: C_1  and  C_2
REMARK    2  A    between atoms: C_2  and  C_3
REMARK    3  A    between atoms: C_3  and  P_4
REMARK    4  A    between atoms: P_4  and  O_6
REMARK    5  A    between atoms: P_4  and  C_7
REMARK    6  A    between atoms: C_7  and  C_8
REMARK    7  A    between atoms: C_8  and  C_9
REMARK    8  A    between atoms: C_9  and  N_10
REMARK                            x       y       z     vdW  Elec       q    Type
REMARK                         _______ _______ _______ _____ _____    ______ ____
ROOT
ATOM      1  P   UNL     1       4.257   4.258  18.658  0.00  0.00    +0.000 P 
ATOM      2  O   UNL     1       4.298   5.495  19.565  0.00  0.00    +0.000 OA
ENDROOT
BRANCH   1   3
ATOM      3  O   UNL     1       5.645   3.443  19.009  0.00  0.00    +0.000 OA
ATOM      4  H   UNL     1       6.247   4.012  19.533  0.00  0.00    +0.000 HD
ENDBRANCH   1   3
BRANCH   1   5
ATOM      5  C   UNL     1       3.383   3.326  19.968  0.00  0.00    +0.000 C 
BRANCH   5   7
ATOM      6  C   UNL     1       0.945   3.987  20.314  0.00  0.00    +0.000 C 
ATOM      7  C   UNL     1       2.373   4.096  20.817  0.00  0.00    +0.000 C 
ENDBRANCH   5   7
ENDBRANCH   1   5
BRANCH   1   8
ATOM      8  C   UNL     1       5.132   5.189  17.347  0.00  0.00    +0.000 C 
BRANCH   8   9
ATOM      9  C   UNL     1       5.520   4.274  16.187  0.00  0.00    +0.000 C 
BRANCH   9  10
ATOM     10  C   UNL     1       6.884   4.638  15.609  0.00  0.00    +0.000 C 
BRANCH  10  11
ATOM     11  N   UNL     1       7.339   5.902  16.176  0.00  0.00    +0.000 NA
ATOM     12  H   UNL     1       7.319   5.859  17.192  0.00  0.00    +0.000 HD
ATOM     13  H   UNL     1       6.693   6.647  15.909  0.00  0.00    +0.000 HD
ENDBRANCH  10  11
ENDBRANCH   9  10
ENDBRANCH   8   9
ENDBRANCH   1   8
TORSDOF 7
ENDMDL
