MODEL 1
REMARK VINA RESULT:      -7.9      0.000      0.000
REMARK  Name = 
REMARK  11 active torsions:
REMARK  status: ('A' for Active; 'I' for Inactive)
REMARK    1  A    between atoms: C_1  and  C_2
REMARK    2  A    between atoms: C_3  and  C_4
REMARK    3  A    between atoms: N_6  and  C_7
REMARK    4  A    between atoms: C_12  and  C_13
REMARK    5  A    between atoms: C_14  and  C_15
REMARK    6  A    between atoms: C_15  and  C_16
REMARK    7  A    between atoms: C_16  and  C_17
REMARK    8  A    between atoms: C_16  and  C_18
REMARK    9  A    between atoms: C_19  and  C_20
REMARK   10  A    between atoms: C_20  and  C_22
REMARK   11  A    between atoms: C_28  and  C_29
REMARK                            x       y       z     vdW  Elec       q    Type
REMARK                         _______ _______ _______ _____ _____    ______ ____
ROOT
ATOM      1  C   UNL     1       1.070   8.330  21.548  0.00  0.00    +0.000 C 
ATOM      2  C   UNL     1       0.744   9.483  20.646  0.00  0.00    +0.000 C 
ATOM      3  C   UNL     1       0.975   9.592  19.314  0.00  0.00    +0.000 C 
ATOM      4  C   UNL     1       0.511  10.876  18.588  0.00  0.00    +0.000 C 
ATOM      5  C   UNL     1       0.406  12.113  19.467  0.00  0.00    +0.000 C 
ATOM      6  C   UNL     1       0.242  11.905  20.803  0.00  0.00    +0.000 C 
ATOM      7  C   UNL     1       0.036  12.941  21.887  0.00  0.00    +0.000 C 
ATOM      8  N   UNL     1       0.221  10.594  21.301  0.00  0.00    +0.000 N 
ATOM      9  H   UNL     1       0.185  10.526  22.320  0.00  0.00    +0.000 HD
ENDROOT
BRANCH   3  10
ATOM     10  C   UNL     1       1.873   8.743  18.435  0.00  0.00    +0.000 C 
ATOM     11  O   UNL     1       2.139   9.187  17.320  0.00  0.00    +0.000 OA
ATOM     12  N   UNL     1       2.265   7.508  18.892  0.00  0.00    +0.000 N 
ATOM     13  H   UNL     1       1.882   7.201  19.771  0.00  0.00    +0.000 HD
BRANCH  12  14
ATOM     14  C   UNL     1       3.057   6.560  18.171  0.00  0.00    +0.000 A 
ATOM     15  C   UNL     1       4.152   6.944  17.377  0.00  0.00    +0.000 A 
ATOM     16  C   UNL     1       4.891   6.015  16.635  0.00  0.00    +0.000 A 
ATOM     17  C   UNL     1       4.568   4.671  16.699  0.00  0.00    +0.000 A 
ATOM     18  C   UNL     1       3.511   4.259  17.507  0.00  0.00    +0.000 A 
ATOM     19  C   UNL     1       2.740   5.187  18.237  0.00  0.00    +0.000 A 
ATOM     20  C   UNL     1       1.626   4.637  19.091  0.00  0.00    +0.000 C 
ENDBRANCH  12  14
ENDBRANCH   3  10
BRANCH   5  21
ATOM     21  C   UNL     1       0.487  13.500  18.841  0.00  0.00    +0.000 C 
ATOM     22  O   UNL     1      -0.537  14.073  18.463  0.00  0.00    +0.000 OA
BRANCH  21  23
ATOM     23  C   UNL     1       1.756  14.276  18.582  0.00  0.00    +0.000 A 
ATOM     24  C   UNL     1       1.659  15.678  18.685  0.00  0.00    +0.000 A 
ATOM     25  C   UNL     1       2.781  16.505  18.557  0.00  0.00    +0.000 A 
ATOM     26  C   UNL     1       4.027  15.950  18.289  0.00  0.00    +0.000 A 
ATOM     27  C   UNL     1       4.149  14.571  18.181  0.00  0.00    +0.000 A 
ATOM     28  C   UNL     1       3.033  13.743  18.370  0.00  0.00    +0.000 A 
ENDBRANCH  21  23
ENDBRANCH   5  21
BRANCH   4  29
ATOM     29  C   UNL     1      -0.706  10.623  17.662  0.00  0.00    +0.000 C 
BRANCH  29  30
ATOM     30  C   UNL     1      -2.100  10.365  18.278  0.00  0.00    +0.000 C 
ATOM     31  C   UNL     1      -2.899  11.614  18.650  0.00  0.00    +0.000 C 
ATOM     32  C   UNL     1      -2.944   9.574  17.266  0.00  0.00    +0.000 C 
ENDBRANCH  29  30
ENDBRANCH   4  29
TORSDOF 6
ENDMDL
MODEL 2
REMARK VINA RESULT:      -7.6      3.392      6.366
REMARK  Name = 
REMARK  11 active torsions:
REMARK  status: ('A' for Active; 'I' for Inactive)
REMARK    1  A    between atoms: C_1  and  C_2
REMARK    2  A    between atoms: C_3  and  C_4
REMARK    3  A    between atoms: N_6  and  C_7
REMARK    4  A    between atoms: C_12  and  C_13
REMARK    5  A    between atoms: C_14  and  C_15
REMARK    6  A    between atoms: C_15  and  C_16
REMARK    7  A    between atoms: C_16  and  C_17
REMARK    8  A    between atoms: C_16  and  C_18
REMARK    9  A    between atoms: C_19  and  C_20
REMARK   10  A    between atoms: C_20  and  C_22
REMARK   11  A    between atoms: C_28  and  C_29
REMARK                            x       y       z     vdW  Elec       q    Type
REMARK                         _______ _______ _______ _____ _____    ______ ____
ROOT
ATOM      1  C   UNL     1       1.801  10.441  17.952  0.00  0.00    +0.000 C 
ATOM      2  C   UNL     1       1.662  11.761  18.652  0.00  0.00    +0.000 C 
ATOM      3  C   UNL     1       0.591  12.233  19.337  0.00  0.00    +0.000 C 
ATOM      4  C   UNL     1       0.701  13.621  20.010  0.00  0.00    +0.000 C 
ATOM      5  C   UNL     1       1.702  14.572  19.371  0.00  0.00    +0.000 C 
ATOM      6  C   UNL     1       2.707  14.008  18.646  0.00  0.00    +0.000 C 
ATOM      7  C   UNL     1       3.871  14.703  17.973  0.00  0.00    +0.000 C 
ATOM      8  N   UNL     1       2.748  12.615  18.487  0.00  0.00    +0.000 N 
ATOM      9  H   UNL     1       3.479  12.279  17.857  0.00  0.00    +0.000 HD
ENDROOT
BRANCH   3  10
ATOM     10  C   UNL     1      -0.836  11.720  19.336  0.00  0.00    +0.000 C 
ATOM     11  O   UNL     1      -1.029  10.617  19.844  0.00  0.00    +0.000 OA
ATOM     12  N   UNL     1      -1.803  12.464  18.705  0.00  0.00    +0.000 N 
ATOM     13  H   UNL     1      -1.501  13.291  18.217  0.00  0.00    +0.000 HD
BRANCH  12  14
ATOM     14  C   UNL     1      -3.179  12.099  18.561  0.00  0.00    +0.000 A 
ATOM     15  C   UNL     1      -4.143  12.392  19.542  0.00  0.00    +0.000 A 
ATOM     16  C   UNL     1      -5.477  11.987  19.414  0.00  0.00    +0.000 A 
ATOM     17  C   UNL     1      -5.883  11.306  18.280  0.00  0.00    +0.000 A 
ATOM     18  C   UNL     1      -4.957  11.036  17.275  0.00  0.00    +0.000 A 
ATOM     19  C   UNL     1      -3.604  11.413  17.403  0.00  0.00    +0.000 A 
ATOM     20  C   UNL     1      -2.686  11.084  16.254  0.00  0.00    +0.000 C 
ENDBRANCH  12  14
ENDBRANCH   3  10
BRANCH   5  21
ATOM     21  C   UNL     1       1.549  16.076  19.559  0.00  0.00    +0.000 C 
ATOM     22  O   UNL     1       2.114  16.646  20.495  0.00  0.00    +0.000 OA
BRANCH  21  23
ATOM     23  C   UNL     1       0.705  16.989  18.703  0.00  0.00    +0.000 A 
ATOM     24  C   UNL     1       1.360  17.606  17.619  0.00  0.00    +0.000 A 
ATOM     25  C   UNL     1       0.669  18.402  16.698  0.00  0.00    +0.000 A 
ATOM     26  C   UNL     1      -0.692  18.629  16.859  0.00  0.00    +0.000 A 
ATOM     27  C   UNL     1      -1.361  18.034  17.921  0.00  0.00    +0.000 A 
ATOM     28  C   UNL     1      -0.677  17.188  18.805  0.00  0.00    +0.000 A 
ENDBRANCH  21  23
ENDBRANCH   5  21
BRANCH   4  29
ATOM     29  C   UNL     1       0.780  13.523  21.554  0.00  0.00    +0.000 C 
BRANCH  29  30
ATOM     30  C   UNL     1      -0.437  13.934  22.415  0.00  0.00    +0.000 C 
ATOM     31  C   UNL     1      -1.467  14.821  21.719  0.00  0.00    +0.000 C 
ATOM     32  C   UNL     1      -1.169  12.661  22.868  0.00  0.00    +0.000 C 
ENDBRANCH  29  30
ENDBRANCH   4  29
TORSDOF 6
ENDMDL
MODEL 3
REMARK VINA RESULT:      -7.5      1.896      2.789
REMARK  Name = 
REMARK  11 active torsions:
REMARK  status: ('A' for Active; 'I' for Inactive)
REMARK    1  A    between atoms: C_1  and  C_2
REMARK    2  A    between atoms: C_3  and  C_4
REMARK    3  A    between atoms: N_6  and  C_7
REMARK    4  A    between atoms: C_12  and  C_13
REMARK    5  A    between atoms: C_14  and  C_15
REMARK    6  A    between atoms: C_15  and  C_16
REMARK    7  A    between atoms: C_16  and  C_17
REMARK    8  A    between atoms: C_16  and  C_18
REMARK    9  A    between atoms: C_19  and  C_20
REMARK   10  A    between atoms: C_20  and  C_22
REMARK   11  A    between atoms: C_28  and  C_29
REMARK                            x       y       z     vdW  Elec       q    Type
REMARK                         _______ _______ _______ _____ _____    ______ ____
ROOT
ATOM      1  C   UNL     1      -1.019  10.113  23.398  0.00  0.00    +0.000 C 
ATOM      2  C   UNL     1      -0.435  10.927  22.281  0.00  0.00    +0.000 C 
ATOM      3  C   UNL     1       0.408  10.517  21.302  0.00  0.00    +0.000 C 
ATOM      4  C   UNL     1       0.847  11.543  20.231  0.00  0.00    +0.000 C 
ATOM      5  C   UNL     1       0.816  12.997  20.677  0.00  0.00    +0.000 C 
ATOM      6  C   UNL     1      -0.013  13.302  21.714  0.00  0.00    +0.000 C 
ATOM      7  C   UNL     1      -0.296  14.666  22.307  0.00  0.00    +0.000 C 
ATOM      8  N   UNL     1      -0.747  12.283  22.337  0.00  0.00    +0.000 N 
ATOM      9  H   UNL     1      -1.273  12.579  23.162  0.00  0.00    +0.000 HD
ENDROOT
BRANCH   3  10
ATOM     10  C   UNL     1       1.222   9.241  21.225  0.00  0.00    +0.000 C 
ATOM     11  O   UNL     1       2.019   9.035  22.137  0.00  0.00    +0.000 OA
ATOM     12  N   UNL     1       1.087   8.439  20.117  0.00  0.00    +0.000 N 
ATOM     13  H   UNL     1       0.493   8.775  19.376  0.00  0.00    +0.000 HD
BRANCH  12  14
ATOM     14  C   UNL     1       1.819   7.238  19.858  0.00  0.00    +0.000 A 
ATOM     15  C   UNL     1       1.745   6.115  20.701  0.00  0.00    +0.000 A 
ATOM     16  C   UNL     1       2.503   4.961  20.466  0.00  0.00    +0.000 A 
ATOM     17  C   UNL     1       3.331   4.896  19.359  0.00  0.00    +0.000 A 
ATOM     18  C   UNL     1       3.395   5.980  18.487  0.00  0.00    +0.000 A 
ATOM     19  C   UNL     1       2.659   7.158  18.726  0.00  0.00    +0.000 A 
ATOM     20  C   UNL     1       2.789   8.269  17.715  0.00  0.00    +0.000 C 
ENDBRANCH  12  14
ENDBRANCH   3  10
BRANCH   5  21
ATOM     21  C   UNL     1       1.686  14.029  19.970  0.00  0.00    +0.000 C 
ATOM     22  O   UNL     1       2.913  13.907  19.962  0.00  0.00    +0.000 OA
BRANCH  21  23
ATOM     23  C   UNL     1       1.187  15.273  19.276  0.00  0.00    +0.000 A 
ATOM     24  C   UNL     1       2.159  16.248  18.975  0.00  0.00    +0.000 A 
ATOM     25  C   UNL     1       1.842  17.405  18.254  0.00  0.00    +0.000 A 
ATOM     26  C   UNL     1       0.534  17.631  17.843  0.00  0.00    +0.000 A 
ATOM     27  C   UNL     1      -0.443  16.686  18.128  0.00  0.00    +0.000 A 
ATOM     28  C   UNL     1      -0.109  15.501  18.798  0.00  0.00    +0.000 A 
ENDBRANCH  21  23
ENDBRANCH   5  21
BRANCH   4  29
ATOM     29  C   UNL     1       0.203  11.266  18.849  0.00  0.00    +0.000 C 
BRANCH  29  30
ATOM     30  C   UNL     1      -1.274  10.819  18.765  0.00  0.00    +0.000 C 
ATOM     31  C   UNL     1      -2.309  11.939  18.863  0.00  0.00    +0.000 C 
ATOM     32  C   UNL     1      -1.498  10.114  17.418  0.00  0.00    +0.000 C 
ENDBRANCH  29  30
ENDBRANCH   4  29
TORSDOF 6
ENDMDL
MODEL 4
REMARK VINA RESULT:      -7.4      4.756      7.121
REMARK  Name = 
REMARK  11 active torsions:
REMARK  status: ('A' for Active; 'I' for Inactive)
REMARK    1  A    between atoms: C_1  and  C_2
REMARK    2  A    between atoms: C_3  and  C_4
REMARK    3  A    between atoms: N_6  and  C_7
REMARK    4  A    between atoms: C_12  and  C_13
REMARK    5  A    between atoms: C_14  and  C_15
REMARK    6  A    between atoms: C_15  and  C_16
REMARK    7  A    between atoms: C_16  and  C_17
REMARK    8  A    between atoms: C_16  and  C_18
REMARK    9  A    between atoms: C_19  and  C_20
REMARK   10  A    between atoms: C_20  and  C_22
REMARK   11  A    between atoms: C_28  and  C_29
REMARK                            x       y       z     vdW  Elec       q    Type
REMARK                         _______ _______ _______ _____ _____    ______ ____
ROOT
ATOM      1  C   UNL     1      -7.230  12.368  21.268  0.00  0.00    +0.000 C 
ATOM      2  C   UNL     1      -5.777  12.665  21.497  0.00  0.00    +0.000 C 
ATOM      3  C   UNL     1      -4.774  12.672  20.585  0.00  0.00    +0.000 C 
ATOM      4  C   UNL     1      -3.351  13.049  21.058  0.00  0.00    +0.000 C 
ATOM      5  C   UNL     1      -3.068  12.786  22.530  0.00  0.00    +0.000 C 
ATOM      6  C   UNL     1      -4.146  12.730  23.361  0.00  0.00    +0.000 C 
ATOM      7  C   UNL     1      -4.152  12.559  24.865  0.00  0.00    +0.000 C 
ATOM      8  N   UNL     1      -5.437  12.869  22.831  0.00  0.00    +0.000 N 
ATOM      9  H   UNL     1      -6.192  12.725  23.504  0.00  0.00    +0.000 HD
ENDROOT
BRANCH   3  10
ATOM     10  C   UNL     1      -4.766  12.104  19.180  0.00  0.00    +0.000 C 
ATOM     11  O   UNL     1      -5.859  11.844  18.680  0.00  0.00    +0.000 OA
ATOM     12  N   UNL     1      -3.557  11.836  18.584  0.00  0.00    +0.000 N 
ATOM     13  H   UNL     1      -2.730  11.975  19.141  0.00  0.00    +0.000 HD
BRANCH  12  14
ATOM     14  C   UNL     1      -3.372  11.246  17.294  0.00  0.00    +0.000 A 
ATOM     15  C   UNL     1      -4.275  11.450  16.236  0.00  0.00    +0.000 A 
ATOM     16  C   UNL     1      -4.111  10.829  14.992  0.00  0.00    +0.000 A 
ATOM     17  C   UNL     1      -3.016  10.013  14.769  0.00  0.00    +0.000 A 
ATOM     18  C   UNL     1      -2.086   9.824  15.788  0.00  0.00    +0.000 A 
ATOM     19  C   UNL     1      -2.253  10.420  17.055  0.00  0.00    +0.000 A 
ATOM     20  C   UNL     1      -1.182  10.162  18.085  0.00  0.00    +0.000 C 
ENDBRANCH  12  14
ENDBRANCH   3  10
BRANCH   5  21
ATOM     21  C   UNL     1      -1.633  12.599  23.008  0.00  0.00    +0.000 C 
ATOM     22  O   UNL     1      -1.141  13.386  23.819  0.00  0.00    +0.000 OA
BRANCH  21  23
ATOM     23  C   UNL     1      -0.684  11.522  22.542  0.00  0.00    +0.000 A 
ATOM     24  C   UNL     1      -0.785  10.278  23.197  0.00  0.00    +0.000 A 
ATOM     25  C   UNL     1      -0.026   9.172  22.800  0.00  0.00    +0.000 A 
ATOM     26  C   UNL     1       0.881   9.292  21.754  0.00  0.00    +0.000 A 
ATOM     27  C   UNL     1       1.002  10.507  21.092  0.00  0.00    +0.000 A 
ATOM     28  C   UNL     1       0.196  11.595  21.455  0.00  0.00    +0.000 A 
ENDBRANCH  21  23
ENDBRANCH   5  21
BRANCH   4  29
ATOM     29  C   UNL     1      -2.907  14.442  20.543  0.00  0.00    +0.000 C 
BRANCH  29  30
ATOM     30  C   UNL     1      -3.097  15.689  21.437  0.00  0.00    +0.000 C 
ATOM     31  C   UNL     1      -1.811  16.387  21.878  0.00  0.00    +0.000 C 
ATOM     32  C   UNL     1      -3.931  16.723  20.666  0.00  0.00    +0.000 C 
ENDBRANCH  29  30
ENDBRANCH   4  29
TORSDOF 6
ENDMDL
MODEL 5
REMARK VINA RESULT:      -7.4      3.122      8.878
REMARK  Name = 
REMARK  11 active torsions:
REMARK  status: ('A' for Active; 'I' for Inactive)
REMARK    1  A    between atoms: C_1  and  C_2
REMARK    2  A    between atoms: C_3  and  C_4
REMARK    3  A    between atoms: N_6  and  C_7
REMARK    4  A    between atoms: C_12  and  C_13
REMARK    5  A    between atoms: C_14  and  C_15
REMARK    6  A    between atoms: C_15  and  C_16
REMARK    7  A    between atoms: C_16  and  C_17
REMARK    8  A    between atoms: C_16  and  C_18
REMARK    9  A    between atoms: C_19  and  C_20
REMARK   10  A    between atoms: C_20  and  C_22
REMARK   11  A    between atoms: C_28  and  C_29
REMARK                            x       y       z     vdW  Elec       q    Type
REMARK                         _______ _______ _______ _____ _____    ______ ____
ROOT
ATOM      1  C   UNL     1       2.184   9.965  17.477  0.00  0.00    +0.000 C 
ATOM      2  C   UNL     1       2.560   8.578  17.910  0.00  0.00    +0.000 C 
ATOM      3  C   UNL     1       2.138   7.905  19.009  0.00  0.00    +0.000 C 
ATOM      4  C   UNL     1       2.641   6.459  19.225  0.00  0.00    +0.000 C 
ATOM      5  C   UNL     1       3.978   6.135  18.575  0.00  0.00    +0.000 C 
ATOM      6  C   UNL     1       4.349   6.910  17.517  0.00  0.00    +0.000 C 
ATOM      7  C   UNL     1       5.577   6.765  16.645  0.00  0.00    +0.000 C 
ATOM      8  N   UNL     1       3.525   7.970  17.113  0.00  0.00    +0.000 N 
ATOM      9  H   UNL     1       3.917   8.556  16.373  0.00  0.00    +0.000 HD
ENDROOT
BRANCH   3  10
ATOM     10  C   UNL     1       1.433   8.444  20.238  0.00  0.00    +0.000 C 
ATOM     11  O   UNL     1       1.528   7.780  21.268  0.00  0.00    +0.000 OA
ATOM     12  N   UNL     1       0.670   9.580  20.115  0.00  0.00    +0.000 N 
ATOM     13  H   UNL     1       0.568   9.966  19.191  0.00  0.00    +0.000 HD
BRANCH  12  14
ATOM     14  C   UNL     1      -0.105  10.185  21.154  0.00  0.00    +0.000 A 
ATOM     15  C   UNL     1      -0.141   9.673  22.463  0.00  0.00    +0.000 A 
ATOM     16  C   UNL     1      -0.941  10.243  23.460  0.00  0.00    +0.000 A 
ATOM     17  C   UNL     1      -1.701  11.364  23.174  0.00  0.00    +0.000 A 
ATOM     18  C   UNL     1      -1.656  11.914  21.896  0.00  0.00    +0.000 A 
ATOM     19  C   UNL     1      -0.877  11.334  20.874  0.00  0.00    +0.000 A 
ATOM     20  C   UNL     1      -0.887  12.014  19.529  0.00  0.00    +0.000 C 
ENDBRANCH  12  14
ENDBRANCH   3  10
BRANCH   5  21
ATOM     21  C   UNL     1       4.829   4.992  19.113  0.00  0.00    +0.000 C 
ATOM     22  O   UNL     1       5.876   5.229  19.720  0.00  0.00    +0.000 OA
BRANCH  21  23
ATOM     23  C   UNL     1       4.538   3.521  18.941  0.00  0.00    +0.000 A 
ATOM     24  C   UNL     1       4.804   2.701  20.055  0.00  0.00    +0.000 A 
ATOM     25  C   UNL     1       4.493   1.336  20.056  0.00  0.00    +0.000 A 
ATOM     26  C   UNL     1       3.937   0.750  18.926  0.00  0.00    +0.000 A 
ATOM     27  C   UNL     1       3.667   1.536  17.813  0.00  0.00    +0.000 A 
ATOM     28  C   UNL     1       3.924   2.914  17.839  0.00  0.00    +0.000 A 
ENDBRANCH  21  23
ENDBRANCH   5  21
BRANCH   4  29
ATOM     29  C   UNL     1       1.527   5.406  18.995  0.00  0.00    +0.000 C 
BRANCH  29  30
ATOM     30  C   UNL     1       1.061   4.512  20.166  0.00  0.00    +0.000 C 
ATOM     31  C   UNL     1       0.853   3.036  19.828  0.00  0.00    +0.000 C 
ATOM     32  C   UNL     1       2.116   4.575  21.281  0.00  0.00    +0.000 C 
ENDBRANCH  29  30
ENDBRANCH   4  29
TORSDOF 6
ENDMDL
MODEL 6
REMARK VINA RESULT:      -7.4      3.493      6.307
REMARK  Name = 
REMARK  11 active torsions:
REMARK  status: ('A' for Active; 'I' for Inactive)
REMARK    1  A    between atoms: C_1  and  C_2
REMARK    2  A    between atoms: C_3  and  C_4
REMARK    3  A    between atoms: N_6  and  C_7
REMARK    4  A    between atoms: C_12  and  C_13
REMARK    5  A    between atoms: C_14  and  C_15
REMARK    6  A    between atoms: C_15  and  C_16
REMARK    7  A    between atoms: C_16  and  C_17
REMARK    8  A    between atoms: C_16  and  C_18
REMARK    9  A    between atoms: C_19  and  C_20
REMARK   10  A    between atoms: C_20  and  C_22
REMARK   11  A    between atoms: C_28  and  C_29
REMARK                            x       y       z     vdW  Elec       q    Type
REMARK                         _______ _______ _______ _____ _____    ______ ____
ROOT
ATOM      1  C   UNL     1      -4.746  11.366  17.506  0.00  0.00    +0.000 C 
ATOM      2  C   UNL     1      -4.319  11.967  18.813  0.00  0.00    +0.000 C 
ATOM      3  C   UNL     1      -3.063  12.073  19.311  0.00  0.00    +0.000 C 
ATOM      4  C   UNL     1      -2.869  12.772  20.677  0.00  0.00    +0.000 C 
ATOM      5  C   UNL     1      -4.076  12.728  21.603  0.00  0.00    +0.000 C 
ATOM      6  C   UNL     1      -5.292  12.550  21.016  0.00  0.00    +0.000 C 
ATOM      7  C   UNL     1      -6.652  12.544  21.680  0.00  0.00    +0.000 C 
ATOM      8  N   UNL     1      -5.372  12.375  19.627  0.00  0.00    +0.000 N 
ATOM      9  H   UNL     1      -6.307  12.158  19.277  0.00  0.00    +0.000 HD
ENDROOT
BRANCH   3  10
ATOM     10  C   UNL     1      -1.800  11.370  18.855  0.00  0.00    +0.000 C 
ATOM     11  O   UNL     1      -1.456  11.547  17.688  0.00  0.00    +0.000 OA
ATOM     12  N   UNL     1      -1.165  10.522  19.730  0.00  0.00    +0.000 N 
ATOM     13  H   UNL     1      -1.611  10.361  20.619  0.00  0.00    +0.000 HD
BRANCH  12  14
ATOM     14  C   UNL     1      -0.003   9.738  19.443  0.00  0.00    +0.000 A 
ATOM     15  C   UNL     1       0.588   9.706  18.168  0.00  0.00    +0.000 A 
ATOM     16  C   UNL     1       1.695   8.898  17.884  0.00  0.00    +0.000 A 
ATOM     17  C   UNL     1       2.257   8.126  18.886  0.00  0.00    +0.000 A 
ATOM     18  C   UNL     1       1.715   8.167  20.167  0.00  0.00    +0.000 A 
ATOM     19  C   UNL     1       0.582   8.954  20.461  0.00  0.00    +0.000 A 
ATOM     20  C   UNL     1       0.081   8.938  21.882  0.00  0.00    +0.000 C 
ENDBRANCH  12  14
ENDBRANCH   3  10
BRANCH   5  21
ATOM     21  C   UNL     1      -3.887  12.880  23.107  0.00  0.00    +0.000 C 
ATOM     22  O   UNL     1      -3.791  11.882  23.825  0.00  0.00    +0.000 OA
BRANCH  21  23
ATOM     23  C   UNL     1      -3.843  14.187  23.861  0.00  0.00    +0.000 A 
ATOM     24  C   UNL     1      -2.658  14.452  24.575  0.00  0.00    +0.000 A 
ATOM     25  C   UNL     1      -2.455  15.667  25.241  0.00  0.00    +0.000 A 
ATOM     26  C   UNL     1      -3.451  16.636  25.235  0.00  0.00    +0.000 A 
ATOM     27  C   UNL     1      -4.630  16.399  24.540  0.00  0.00    +0.000 A 
ATOM     28  C   UNL     1      -4.803  15.206  23.825  0.00  0.00    +0.000 A 
ENDBRANCH  21  23
ENDBRANCH   5  21
BRANCH   4  29
ATOM     29  C   UNL     1      -2.196  14.161  20.539  0.00  0.00    +0.000 C 
BRANCH  29  30
ATOM     30  C   UNL     1      -0.736  14.357  21.007  0.00  0.00    +0.000 C 
ATOM     31  C   UNL     1      -0.195  13.284  21.950  0.00  0.00    +0.000 C 
ATOM     32  C   UNL     1       0.177  14.374  19.771  0.00  0.00    +0.000 C 
ENDBRANCH  29  30
ENDBRANCH   4  29
TORSDOF 6
ENDMDL
MODEL 7
REMARK VINA RESULT:      -7.4      2.867      5.416
REMARK  Name = 
REMARK  11 active torsions:
REMARK  status: ('A' for Active; 'I' for Inactive)
REMARK    1  A    between atoms: C_1  and  C_2
REMARK    2  A    between atoms: C_3  and  C_4
REMARK    3  A    between atoms: N_6  and  C_7
REMARK    4  A    between atoms: C_12  and  C_13
REMARK    5  A    between atoms: C_14  and  C_15
REMARK    6  A    between atoms: C_15  and  C_16
REMARK    7  A    between atoms: C_16  and  C_17
REMARK    8  A    between atoms: C_16  and  C_18
REMARK    9  A    between atoms: C_19  and  C_20
REMARK   10  A    between atoms: C_20  and  C_22
REMARK   11  A    between atoms: C_28  and  C_29
REMARK                            x       y       z     vdW  Elec       q    Type
REMARK                         _______ _______ _______ _____ _____    ______ ____
ROOT
ATOM      1  C   UNL     1      -4.211  11.089  16.834  0.00  0.00    +0.000 C 
ATOM      2  C   UNL     1      -3.676  11.713  18.090  0.00  0.00    +0.000 C 
ATOM      3  C   UNL     1      -2.438  11.581  18.625  0.00  0.00    +0.000 C 
ATOM      4  C   UNL     1      -2.108  12.360  19.920  0.00  0.00    +0.000 C 
ATOM      5  C   UNL     1      -3.306  12.695  20.795  0.00  0.00    +0.000 C 
ATOM      6  C   UNL     1      -4.521  12.739  20.181  0.00  0.00    +0.000 C 
ATOM      7  C   UNL     1      -5.856  13.118  20.786  0.00  0.00    +0.000 C 
ATOM      8  N   UNL     1      -4.617  12.438  18.814  0.00  0.00    +0.000 N 
ATOM      9  H   UNL     1      -5.572  12.405  18.451  0.00  0.00    +0.000 HD
ENDROOT
BRANCH   3  10
ATOM     10  C   UNL     1      -1.366  10.561  18.294  0.00  0.00    +0.000 C 
ATOM     11  O   UNL     1      -1.519   9.909  17.264  0.00  0.00    +0.000 OA
ATOM     12  N   UNL     1      -0.343  10.365  19.191  0.00  0.00    +0.000 N 
ATOM     13  H   UNL     1      -0.392  10.872  20.060  0.00  0.00    +0.000 HD
BRANCH  12  14
ATOM     14  C   UNL     1       0.711   9.407  19.064  0.00  0.00    +0.000 A 
ATOM     15  C   UNL     1       1.465   9.269  17.886  0.00  0.00    +0.000 A 
ATOM     16  C   UNL     1       2.461   8.295  17.753  0.00  0.00    +0.000 A 
ATOM     17  C   UNL     1       2.747   7.455  18.815  0.00  0.00    +0.000 A 
ATOM     18  C   UNL     1       2.041   7.595  20.007  0.00  0.00    +0.000 A 
ATOM     19  C   UNL     1       1.015   8.552  20.145  0.00  0.00    +0.000 A 
ATOM     20  C   UNL     1       0.320   8.631  21.481  0.00  0.00    +0.000 C 
ENDBRANCH  12  14
ENDBRANCH   3  10
BRANCH   5  21
ATOM     21  C   UNL     1      -3.111  12.962  22.282  0.00  0.00    +0.000 C 
ATOM     22  O   UNL     1      -3.350  12.078  23.109  0.00  0.00    +0.000 OA
BRANCH  21  23
ATOM     23  C   UNL     1      -2.673  14.271  22.892  0.00  0.00    +0.000 A 
ATOM     24  C   UNL     1      -1.680  14.191  23.889  0.00  0.00    +0.000 A 
ATOM     25  C   UNL     1      -1.124  15.338  24.468  0.00  0.00    +0.000 A 
ATOM     26  C   UNL     1      -1.572  16.596  24.086  0.00  0.00    +0.000 A 
ATOM     27  C   UNL     1      -2.552  16.703  23.107  0.00  0.00    +0.000 A 
ATOM     28  C   UNL     1      -3.063  15.554  22.487  0.00  0.00    +0.000 A 
ENDBRANCH  21  23
ENDBRANCH   5  21
BRANCH   4  29
ATOM     29  C   UNL     1      -1.128  13.534  19.669  0.00  0.00    +0.000 C 
BRANCH  29  30
ATOM     30  C   UNL     1       0.138  13.678  20.543  0.00  0.00    +0.000 C 
ATOM     31  C   UNL     1       1.441  13.202  19.902  0.00  0.00    +0.000 C 
ATOM     32  C   UNL     1       0.324  15.162  20.895  0.00  0.00    +0.000 C 
ENDBRANCH  29  30
ENDBRANCH   4  29
TORSDOF 6
ENDMDL
MODEL 8
REMARK VINA RESULT:      -7.3      3.452      6.169
REMARK  Name = 
REMARK  11 active torsions:
REMARK  status: ('A' for Active; 'I' for Inactive)
REMARK    1  A    between atoms: C_1  and  C_2
REMARK    2  A    between atoms: C_3  and  C_4
REMARK    3  A    between atoms: N_6  and  C_7
REMARK    4  A    between atoms: C_12  and  C_13
REMARK    5  A    between atoms: C_14  and  C_15
REMARK    6  A    between atoms: C_15  and  C_16
REMARK    7  A    between atoms: C_16  and  C_17
REMARK    8  A    between atoms: C_16  and  C_18
REMARK    9  A    between atoms: C_19  and  C_20
REMARK   10  A    between atoms: C_20  and  C_22
REMARK   11  A    between atoms: C_28  and  C_29
REMARK                            x       y       z     vdW  Elec       q    Type
REMARK                         _______ _______ _______ _____ _____    ______ ____
ROOT
ATOM      1  C   UNL     1      -3.448  11.394  17.164  0.00  0.00    +0.000 C 
ATOM      2  C   UNL     1      -3.385  12.043  18.515  0.00  0.00    +0.000 C 
ATOM      3  C   UNL     1      -2.300  12.207  19.312  0.00  0.00    +0.000 C 
ATOM      4  C   UNL     1      -2.480  12.948  20.657  0.00  0.00    +0.000 C 
ATOM      5  C   UNL     1      -3.881  12.887  21.247  0.00  0.00    +0.000 C 
ATOM      6  C   UNL     1      -4.902  12.651  20.377  0.00  0.00    +0.000 C 
ATOM      7  C   UNL     1      -6.386  12.614  20.674  0.00  0.00    +0.000 C 
ATOM      8  N   UNL     1      -4.620  12.436  19.020  0.00  0.00    +0.000 N 
ATOM      9  H   UNL     1      -5.430  12.178  18.453  0.00  0.00    +0.000 HD
ENDROOT
BRANCH   3  10
ATOM     10  C   UNL     1      -0.944  11.537  19.216  0.00  0.00    +0.000 C 
ATOM     11  O   UNL     1       0.016  12.260  18.956  0.00  0.00    +0.000 OA
ATOM     12  N   UNL     1      -0.874  10.170  19.339  0.00  0.00    +0.000 N 
ATOM     13  H   UNL     1      -1.744   9.672  19.426  0.00  0.00    +0.000 HD
BRANCH  12  14
ATOM     14  C   UNL     1       0.310   9.377  19.215  0.00  0.00    +0.000 A 
ATOM     15  C   UNL     1       1.030   9.282  18.011  0.00  0.00    +0.000 A 
ATOM     16  C   UNL     1       2.160   8.464  17.886  0.00  0.00    +0.000 A 
ATOM     17  C   UNL     1       2.613   7.747  18.979  0.00  0.00    +0.000 A 
ATOM     18  C   UNL     1       1.941   7.852  20.194  0.00  0.00    +0.000 A 
ATOM     19  C   UNL     1       0.786   8.649  20.327  0.00  0.00    +0.000 A 
ATOM     20  C   UNL     1       0.139   8.705  21.688  0.00  0.00    +0.000 C 
ENDBRANCH  12  14
ENDBRANCH   3  10
BRANCH   5  21
ATOM     21  C   UNL     1      -4.086  13.085  22.744  0.00  0.00    +0.000 C 
ATOM     22  O   UNL     1      -4.338  12.120  23.469  0.00  0.00    +0.000 OA
BRANCH  21  23
ATOM     23  C   UNL     1      -4.052  14.408  23.469  0.00  0.00    +0.000 A 
ATOM     24  C   UNL     1      -3.285  14.450  24.650  0.00  0.00    +0.000 A 
ATOM     25  C   UNL     1      -3.099  15.638  25.366  0.00  0.00    +0.000 A 
ATOM     26  C   UNL     1      -3.706  16.811  24.935  0.00  0.00    +0.000 A 
ATOM     27  C   UNL     1      -4.470  16.796  23.775  0.00  0.00    +0.000 A 
ATOM     28  C   UNL     1      -4.603  15.617  23.028  0.00  0.00    +0.000 A 
ENDBRANCH  21  23
ENDBRANCH   5  21
BRANCH   4  29
ATOM     29  C   UNL     1      -1.832  14.356  20.647  0.00  0.00    +0.000 C 
BRANCH  29  30
ATOM     30  C   UNL     1      -0.647  14.663  21.591  0.00  0.00    +0.000 C 
ATOM     31  C   UNL     1      -0.818  15.888  22.488  0.00  0.00    +0.000 C 
ATOM     32  C   UNL     1      -0.429  13.454  22.514  0.00  0.00    +0.000 C 
ENDBRANCH  29  30
ENDBRANCH   4  29
TORSDOF 6
ENDMDL
MODEL 9
REMARK VINA RESULT:      -7.3      1.496      1.949
REMARK  Name = 
REMARK  11 active torsions:
REMARK  status: ('A' for Active; 'I' for Inactive)
REMARK    1  A    between atoms: C_1  and  C_2
REMARK    2  A    between atoms: C_3  and  C_4
REMARK    3  A    between atoms: N_6  and  C_7
REMARK    4  A    between atoms: C_12  and  C_13
REMARK    5  A    between atoms: C_14  and  C_15
REMARK    6  A    between atoms: C_15  and  C_16
REMARK    7  A    between atoms: C_16  and  C_17
REMARK    8  A    between atoms: C_16  and  C_18
REMARK    9  A    between atoms: C_19  and  C_20
REMARK   10  A    between atoms: C_20  and  C_22
REMARK   11  A    between atoms: C_28  and  C_29
REMARK                            x       y       z     vdW  Elec       q    Type
REMARK                         _______ _______ _______ _____ _____    ______ ____
ROOT
ATOM      1  C   UNL     1       1.459   6.089  20.802  0.00  0.00    +0.000 C 
ATOM      2  C   UNL     1       1.141   7.513  20.453  0.00  0.00    +0.000 C 
ATOM      3  C   UNL     1       1.515   8.205  19.349  0.00  0.00    +0.000 C 
ATOM      4  C   UNL     1       1.028   9.664  19.194  0.00  0.00    +0.000 C 
ATOM      5  C   UNL     1       0.714  10.383  20.497  0.00  0.00    +0.000 C 
ATOM      6  C   UNL     1       0.414   9.601  21.572  0.00  0.00    +0.000 C 
ATOM      7  C   UNL     1      -0.007  10.046  22.956  0.00  0.00    +0.000 C 
ATOM      8  N   UNL     1       0.450   8.205  21.443  0.00  0.00    +0.000 N 
ATOM      9  H   UNL     1       0.301   7.693  22.315  0.00  0.00    +0.000 HD
ENDROOT
BRANCH   3  10
ATOM     10  C   UNL     1       2.580   7.856  18.328  0.00  0.00    +0.000 C 
ATOM     11  O   UNL     1       2.704   8.619  17.372  0.00  0.00    +0.000 OA
ATOM     12  N   UNL     1       3.278   6.682  18.479  0.00  0.00    +0.000 N 
ATOM     13  H   UNL     1       3.002   6.078  19.235  0.00  0.00    +0.000 HD
BRANCH  12  14
ATOM     14  C   UNL     1       4.269   6.175  17.580  0.00  0.00    +0.000 A 
ATOM     15  C   UNL     1       5.406   6.918  17.217  0.00  0.00    +0.000 A 
ATOM     16  C   UNL     1       6.345   6.433  16.299  0.00  0.00    +0.000 A 
ATOM     17  C   UNL     1       6.181   5.175  15.747  0.00  0.00    +0.000 A 
ATOM     18  C   UNL     1       5.084   4.403  16.118  0.00  0.00    +0.000 A 
ATOM     19  C   UNL     1       4.115   4.889  17.020  0.00  0.00    +0.000 A 
ATOM     20  C   UNL     1       2.971   3.970  17.365  0.00  0.00    +0.000 C 
ENDBRANCH  12  14
ENDBRANCH   3  10
BRANCH   5  21
ATOM     21  C   UNL     1       0.746  11.905  20.554  0.00  0.00    +0.000 C 
ATOM     22  O   UNL     1      -0.150  12.525  21.131  0.00  0.00    +0.000 OA
BRANCH  21  23
ATOM     23  C   UNL     1       1.789  12.788  19.912  0.00  0.00    +0.000 A 
ATOM     24  C   UNL     1       2.515  13.625  20.782  0.00  0.00    +0.000 A 
ATOM     25  C   UNL     1       3.569  14.424  20.325  0.00  0.00    +0.000 A 
ATOM     26  C   UNL     1       3.903  14.431  18.977  0.00  0.00    +0.000 A 
ATOM     27  C   UNL     1       3.201  13.616  18.097  0.00  0.00    +0.000 A 
ATOM     28  C   UNL     1       2.186  12.772  18.569  0.00  0.00    +0.000 A 
ENDBRANCH  21  23
ENDBRANCH   5  21
BRANCH   4  29
ATOM     29  C   UNL     1      -0.045   9.813  18.086  0.00  0.00    +0.000 C 
BRANCH  29  30
ATOM     30  C   UNL     1      -1.386  10.515  18.404  0.00  0.00    +0.000 C 
ATOM     31  C   UNL     1      -1.525  11.942  17.876  0.00  0.00    +0.000 C 
ATOM     32  C   UNL     1      -2.528   9.692  17.788  0.00  0.00    +0.000 C 
ENDBRANCH  29  30
ENDBRANCH   4  29
TORSDOF 6
ENDMDL
