MODEL 1
REMARK VINA RESULT:      -8.5      0.000      0.000
REMARK  Name = 
REMARK  11 active torsions:
REMARK  status: ('A' for Active; 'I' for Inactive)
REMARK    1  A    between atoms: C_1  and  C_2
REMARK    2  A    between atoms: C_2  and  C_3
REMARK    3  A    between atoms: C_3  and  C_4
REMARK    4  A    between atoms: C_7  and  C_8
REMARK    5  A    between atoms: N_13  and  C_14
REMARK    6  A    between atoms: C_14  and  C_15
REMARK    7  A    between atoms: C_18  and  O_19
REMARK    8  A    between atoms: O_19  and  C_20
REMARK    9  A    between atoms: C_20  and  C_21
REMARK   10  A    between atoms: C_20  and  C_24
REMARK   11  A    between atoms: C_21  and  O_23
REMARK                            x       y       z     vdW  Elec       q    Type
REMARK                         _______ _______ _______ _____ _____    ______ ____
ROOT
ATOM      1  C   UNL     1       1.439   9.023  18.783  0.00  0.00    +0.000 A 
ATOM      2  C   UNL     1       1.325   8.344  20.002  0.00  0.00    +0.000 A 
ATOM      3  C   UNL     1       2.111   7.211  20.265  0.00  0.00    +0.000 A 
ATOM      4  C   UNL     1       3.015   6.725  19.316  0.00  0.00    +0.000 A 
ATOM      5  C   UNL     1       3.097   7.363  18.081  0.00  0.00    +0.000 A 
ATOM      6  C   UNL     1       2.329   8.508  17.829  0.00  0.00    +0.000 A 
ENDROOT
BRANCH   1   7
ATOM      7  C   UNL     1       0.578  10.229  18.483  0.00  0.00    +0.000 C 
BRANCH   7  17
ATOM      8  C   UNL     1       0.290  11.530  20.655  0.00  0.00    +0.000 A 
ATOM      9  N   UNL     1       0.869  12.543  21.273  0.00  0.00    +0.000 NA
ATOM     10  C   UNL     1       1.788  13.048  20.392  0.00  0.00    +0.000 A 
ATOM     11  C   UNL     1       2.709  14.102  20.533  0.00  0.00    +0.000 A 
ATOM     12  C   UNL     1       2.831  14.947  21.764  0.00  0.00    +0.000 C 
ATOM     13  C   UNL     1       3.541  14.340  19.433  0.00  0.00    +0.000 A 
ATOM     14  C   UNL     1       3.407  13.551  18.288  0.00  0.00    +0.000 A 
ATOM     15  N   UNL     1       2.544  12.524  18.118  0.00  0.00    +0.000 NA
ATOM     16  C   UNL     1       1.766  12.333  19.200  0.00  0.00    +0.000 A 
ATOM     17  N   UNL     1       0.803  11.363  19.376  0.00  0.00    +0.000 N 
BRANCH   8  18
ATOM     18  C   UNL     1      -0.746  10.641  21.266  0.00  0.00    +0.000 C 
BRANCH  18  20
ATOM     19  C   UNL     1       0.048   9.447  23.337  0.00  0.00    +0.000 C 
ATOM     20  C   UNL     1      -0.687  10.663  22.792  0.00  0.00    +0.000 C 
ENDBRANCH  18  20
ENDBRANCH   8  18
ENDBRANCH   7  17
ENDBRANCH   1   7
BRANCH   4  21
ATOM     21  O   UNL     1       3.824   5.691  19.718  0.00  0.00    +0.000 OA
BRANCH  21  22
ATOM     22  C   UNL     1       4.505   4.972  18.690  0.00  0.00    +0.000 C 
BRANCH  22  23
ATOM     23  C   UNL     1       3.886   3.553  18.486  0.00  0.00    +0.000 C 
ATOM     24  C   UNL     1       3.334   2.838  19.736  0.00  0.00    +0.000 C 
ATOM     25  C   UNL     1       1.949   3.302  20.188  0.00  0.00    +0.000 C 
ATOM     26  C   UNL     1       0.941   3.224  19.048  0.00  0.00    +0.000 C 
ATOM     27  C   UNL     1       1.422   4.006  17.833  0.00  0.00    +0.000 C 
ATOM     28  C   UNL     1       2.811   3.563  17.378  0.00  0.00    +0.000 C 
ENDBRANCH  22  23
BRANCH  22  29
ATOM     29  C   UNL     1       6.029   4.869  18.887  0.00  0.00    +0.000 C 
ATOM     30  O   UNL     1       6.629   5.432  19.794  0.00  0.00    +0.000 OA
BRANCH  29  31
ATOM     31  O   UNL     1       6.667   4.087  17.987  0.00  0.00    +0.000 OA
ATOM     32  H   UNL     1       7.471   4.513  17.629  0.00  0.00    +0.000 HD
ENDBRANCH  29  31
ENDBRANCH  22  29
ENDBRANCH  21  22
ENDBRANCH   4  21
TORSDOF 9
ENDMDL
MODEL 2
REMARK VINA RESULT:      -8.4      2.255      3.539
REMARK  Name = 
REMARK  11 active torsions:
REMARK  status: ('A' for Active; 'I' for Inactive)
REMARK    1  A    between atoms: C_1  and  C_2
REMARK    2  A    between atoms: C_2  and  C_3
REMARK    3  A    between atoms: C_3  and  C_4
REMARK    4  A    between atoms: C_7  and  C_8
REMARK    5  A    between atoms: N_13  and  C_14
REMARK    6  A    between atoms: C_14  and  C_15
REMARK    7  A    between atoms: C_18  and  O_19
REMARK    8  A    between atoms: O_19  and  C_20
REMARK    9  A    between atoms: C_20  and  C_21
REMARK   10  A    between atoms: C_20  and  C_24
REMARK   11  A    between atoms: C_21  and  O_23
REMARK                            x       y       z     vdW  Elec       q    Type
REMARK                         _______ _______ _______ _____ _____    ______ ____
ROOT
ATOM      1  C   UNL     1       1.313   9.742  18.954  0.00  0.00    +0.000 A 
ATOM      2  C   UNL     1       1.175   9.136  20.208  0.00  0.00    +0.000 A 
ATOM      3  C   UNL     1       1.666   7.841  20.434  0.00  0.00    +0.000 A 
ATOM      4  C   UNL     1       2.291   7.119  19.412  0.00  0.00    +0.000 A 
ATOM      5  C   UNL     1       2.386   7.693  18.148  0.00  0.00    +0.000 A 
ATOM      6  C   UNL     1       1.916   8.996  17.930  0.00  0.00    +0.000 A 
ENDROOT
BRANCH   1   7
ATOM      7  C   UNL     1       0.764  11.127  18.695  0.00  0.00    +0.000 C 
BRANCH   7  17
ATOM      8  C   UNL     1      -1.153  11.925  20.172  0.00  0.00    +0.000 A 
ATOM      9  N   UNL     1      -2.459  12.099  20.071  0.00  0.00    +0.000 NA
ATOM     10  C   UNL     1      -2.816  11.578  18.857  0.00  0.00    +0.000 A 
ATOM     11  C   UNL     1      -4.069  11.524  18.217  0.00  0.00    +0.000 A 
ATOM     12  C   UNL     1      -5.339  12.043  18.819  0.00  0.00    +0.000 C 
ATOM     13  C   UNL     1      -4.081  10.945  16.943  0.00  0.00    +0.000 A 
ATOM     14  C   UNL     1      -2.891  10.456  16.400  0.00  0.00    +0.000 A 
ATOM     15  N   UNL     1      -1.669  10.499  16.977  0.00  0.00    +0.000 NA
ATOM     16  C   UNL     1      -1.706  11.064  18.199  0.00  0.00    +0.000 A 
ATOM     17  N   UNL     1      -0.644  11.289  19.048  0.00  0.00    +0.000 N 
BRANCH   8  18
ATOM     18  C   UNL     1      -0.319  12.398  21.319  0.00  0.00    +0.000 C 
BRANCH  18  20
ATOM     19  C   UNL     1      -0.841  10.566  22.966  0.00  0.00    +0.000 C 
ATOM     20  C   UNL     1      -0.952  12.053  22.665  0.00  0.00    +0.000 C 
ENDBRANCH  18  20
ENDBRANCH   8  18
ENDBRANCH   7  17
ENDBRANCH   1   7
BRANCH   4  21
ATOM     21  O   UNL     1       2.847   5.914  19.769  0.00  0.00    +0.000 OA
BRANCH  21  22
ATOM     22  C   UNL     1       3.420   5.136  18.719  0.00  0.00    +0.000 C 
BRANCH  22  23
ATOM     23  C   UNL     1       2.886   3.670  18.745  0.00  0.00    +0.000 C 
ATOM     24  C   UNL     1       3.459   2.729  19.825  0.00  0.00    +0.000 C 
ATOM     25  C   UNL     1       2.854   2.901  21.218  0.00  0.00    +0.000 C 
ATOM     26  C   UNL     1       1.335   2.794  21.178  0.00  0.00    +0.000 C 
ATOM     27  C   UNL     1       0.739   3.784  20.187  0.00  0.00    +0.000 C 
ATOM     28  C   UNL     1       1.343   3.634  18.792  0.00  0.00    +0.000 C 
ENDBRANCH  22  23
BRANCH  22  29
ATOM     29  C   UNL     1       4.961   5.147  18.687  0.00  0.00    +0.000 C 
ATOM     30  O   UNL     1       5.652   5.379  19.671  0.00  0.00    +0.000 OA
BRANCH  29  31
ATOM     31  O   UNL     1       5.505   4.860  17.483  0.00  0.00    +0.000 OA
ATOM     32  H   UNL     1       6.119   5.557  17.177  0.00  0.00    +0.000 HD
ENDBRANCH  29  31
ENDBRANCH  22  29
ENDBRANCH  21  22
ENDBRANCH   4  21
TORSDOF 9
ENDMDL
MODEL 3
REMARK VINA RESULT:      -8.3      2.356      3.700
REMARK  Name = 
REMARK  11 active torsions:
REMARK  status: ('A' for Active; 'I' for Inactive)
REMARK    1  A    between atoms: C_1  and  C_2
REMARK    2  A    between atoms: C_2  and  C_3
REMARK    3  A    between atoms: C_3  and  C_4
REMARK    4  A    between atoms: C_7  and  C_8
REMARK    5  A    between atoms: N_13  and  C_14
REMARK    6  A    between atoms: C_14  and  C_15
REMARK    7  A    between atoms: C_18  and  O_19
REMARK    8  A    between atoms: O_19  and  C_20
REMARK    9  A    between atoms: C_20  and  C_21
REMARK   10  A    between atoms: C_20  and  C_24
REMARK   11  A    between atoms: C_21  and  O_23
REMARK                            x       y       z     vdW  Elec       q    Type
REMARK                         _______ _______ _______ _____ _____    ______ ____
ROOT
ATOM      1  C   UNL     1       1.149   9.909  18.951  0.00  0.00    +0.000 A 
ATOM      2  C   UNL     1       1.825   9.280  17.899  0.00  0.00    +0.000 A 
ATOM      3  C   UNL     1       2.380   8.001  18.071  0.00  0.00    +0.000 A 
ATOM      4  C   UNL     1       2.282   7.332  19.295  0.00  0.00    +0.000 A 
ATOM      5  C   UNL     1       1.656   7.972  20.361  0.00  0.00    +0.000 A 
ATOM      6  C   UNL     1       1.082   9.239  20.181  0.00  0.00    +0.000 A 
ENDROOT
BRANCH   1   7
ATOM      7  C   UNL     1       0.571  11.296  18.782  0.00  0.00    +0.000 C 
BRANCH   7  17
ATOM      8  C   UNL     1      -1.446  11.910  20.213  0.00  0.00    +0.000 A 
ATOM      9  N   UNL     1      -2.750  12.057  20.056  0.00  0.00    +0.000 NA
ATOM     10  C   UNL     1      -3.026  11.634  18.783  0.00  0.00    +0.000 A 
ATOM     11  C   UNL     1      -4.240  11.602  18.073  0.00  0.00    +0.000 A 
ATOM     12  C   UNL     1      -5.557  12.032  18.646  0.00  0.00    +0.000 C 
ATOM     13  C   UNL     1      -4.167  11.136  16.755  0.00  0.00    +0.000 A 
ATOM     14  C   UNL     1      -2.935  10.729  16.239  0.00  0.00    +0.000 A 
ATOM     15  N   UNL     1      -1.747  10.754  16.884  0.00  0.00    +0.000 NA
ATOM     16  C   UNL     1      -1.867  11.210  18.146  0.00  0.00    +0.000 A 
ATOM     17  N   UNL     1      -0.859  11.388  19.069  0.00  0.00    +0.000 N 
BRANCH   8  18
ATOM     18  C   UNL     1      -0.689  12.304  21.441  0.00  0.00    +0.000 C 
BRANCH  18  20
ATOM     19  C   UNL     1      -0.784  10.423  23.113  0.00  0.00    +0.000 C 
ATOM     20  C   UNL     1      -1.351  11.777  22.712  0.00  0.00    +0.000 C 
ENDBRANCH  18  20
ENDBRANCH   8  18
ENDBRANCH   7  17
ENDBRANCH   1   7
BRANCH   4  21
ATOM     21  O   UNL     1       2.745   6.039  19.320  0.00  0.00    +0.000 OA
BRANCH  21  22
ATOM     22  C   UNL     1       3.551   5.624  18.218  0.00  0.00    +0.000 C 
BRANCH  22  23
ATOM     23  C   UNL     1       3.046   4.271  17.625  0.00  0.00    +0.000 C 
ATOM     24  C   UNL     1       3.744   2.984  18.111  0.00  0.00    +0.000 C 
ATOM     25  C   UNL     1       3.287   2.477  19.478  0.00  0.00    +0.000 C 
ATOM     26  C   UNL     1       1.774   2.305  19.526  0.00  0.00    +0.000 C 
ATOM     27  C   UNL     1       1.061   3.595  19.143  0.00  0.00    +0.000 C 
ATOM     28  C   UNL     1       1.518   4.122  17.785  0.00  0.00    +0.000 C 
ENDBRANCH  22  23
BRANCH  22  29
ATOM     29  C   UNL     1       5.059   5.547  18.525  0.00  0.00    +0.000 C 
ATOM     30  O   UNL     1       5.507   5.351  19.647  0.00  0.00    +0.000 OA
BRANCH  29  31
ATOM     31  O   UNL     1       5.865   5.696  17.449  0.00  0.00    +0.000 OA
ATOM     32  H   UNL     1       6.678   6.196  17.661  0.00  0.00    +0.000 HD
ENDBRANCH  29  31
ENDBRANCH  22  29
ENDBRANCH  21  22
ENDBRANCH   4  21
TORSDOF 9
ENDMDL
MODEL 4
REMARK VINA RESULT:      -8.1      2.036      3.635
REMARK  Name = 
REMARK  11 active torsions:
REMARK  status: ('A' for Active; 'I' for Inactive)
REMARK    1  A    between atoms: C_1  and  C_2
REMARK    2  A    between atoms: C_2  and  C_3
REMARK    3  A    between atoms: C_3  and  C_4
REMARK    4  A    between atoms: C_7  and  C_8
REMARK    5  A    between atoms: N_13  and  C_14
REMARK    6  A    between atoms: C_14  and  C_15
REMARK    7  A    between atoms: C_18  and  O_19
REMARK    8  A    between atoms: O_19  and  C_20
REMARK    9  A    between atoms: C_20  and  C_21
REMARK   10  A    between atoms: C_20  and  C_24
REMARK   11  A    between atoms: C_21  and  O_23
REMARK                            x       y       z     vdW  Elec       q    Type
REMARK                         _______ _______ _______ _____ _____    ______ ____
ROOT
ATOM      1  C   UNL     1       1.728   9.295  18.581  0.00  0.00    +0.000 A 
ATOM      2  C   UNL     1       1.471   8.783  19.858  0.00  0.00    +0.000 A 
ATOM      3  C   UNL     1       1.948   7.515  20.229  0.00  0.00    +0.000 A 
ATOM      4  C   UNL     1       2.678   6.730  19.332  0.00  0.00    +0.000 A 
ATOM      5  C   UNL     1       2.894   7.209  18.043  0.00  0.00    +0.000 A 
ATOM      6  C   UNL     1       2.437   8.485  17.681  0.00  0.00    +0.000 A 
ENDROOT
BRANCH   1   7
ATOM      7  C   UNL     1       1.196  10.648  18.165  0.00  0.00    +0.000 C 
BRANCH   7  17
ATOM      8  C   UNL     1      -0.393  11.804  19.787  0.00  0.00    +0.000 A 
ATOM      9  N   UNL     1      -1.686  12.060  19.875  0.00  0.00    +0.000 NA
ATOM     10  C   UNL     1      -2.275  11.390  18.836  0.00  0.00    +0.000 A 
ATOM     11  C   UNL     1      -3.621  11.336  18.428  0.00  0.00    +0.000 A 
ATOM     12  C   UNL     1      -4.740  12.036  19.138  0.00  0.00    +0.000 C 
ATOM     13  C   UNL     1      -3.884  10.574  17.284  0.00  0.00    +0.000 A 
ATOM     14  C   UNL     1      -2.832   9.919  16.639  0.00  0.00    +0.000 A 
ATOM     15  N   UNL     1      -1.527   9.955  16.994  0.00  0.00    +0.000 NA
ATOM     16  C   UNL     1      -1.323  10.699  18.097  0.00  0.00    +0.000 A 
ATOM     17  N   UNL     1      -0.120  10.968  18.713  0.00  0.00    +0.000 N 
BRANCH   8  18
ATOM     18  C   UNL     1       0.650  12.380  20.689  0.00  0.00    +0.000 C 
BRANCH  18  20
ATOM     19  C   UNL     1       1.074  14.301  19.118  0.00  0.00    +0.000 C 
ATOM     20  C   UNL     1       0.753  13.897  20.549  0.00  0.00    +0.000 C 
ENDBRANCH  18  20
ENDBRANCH   8  18
ENDBRANCH   7  17
ENDBRANCH   1   7
BRANCH   4  21
ATOM     21  O   UNL     1       3.206   5.564  19.833  0.00  0.00    +0.000 OA
BRANCH  21  22
ATOM     22  C   UNL     1       3.809   4.677  18.891  0.00  0.00    +0.000 C 
BRANCH  22  23
ATOM     23  C   UNL     1       3.270   3.222  19.060  0.00  0.00    +0.000 C 
ATOM     24  C   UNL     1       3.518   2.530  20.416  0.00  0.00    +0.000 C 
ATOM     25  C   UNL     1       2.561   2.941  21.535  0.00  0.00    +0.000 C 
ATOM     26  C   UNL     1       1.108   2.765  21.112  0.00  0.00    +0.000 C 
ATOM     27  C   UNL     1       0.814   3.521  19.823  0.00  0.00    +0.000 C 
ATOM     28  C   UNL     1       1.772   3.132  18.699  0.00  0.00    +0.000 C 
ENDBRANCH  22  23
BRANCH  22  29
ATOM     29  C   UNL     1       5.349   4.685  18.906  0.00  0.00    +0.000 C 
ATOM     30  O   UNL     1       6.011   5.328  19.711  0.00  0.00    +0.000 OA
BRANCH  29  31
ATOM     31  O   UNL     1       5.930   3.905  17.966  0.00  0.00    +0.000 OA
ATOM     32  H   UNL     1       6.751   4.300  17.612  0.00  0.00    +0.000 HD
ENDBRANCH  29  31
ENDBRANCH  22  29
ENDBRANCH  21  22
ENDBRANCH   4  21
TORSDOF 9
ENDMDL
MODEL 5
REMARK VINA RESULT:      -8.0      2.424      4.154
REMARK  Name = 
REMARK  11 active torsions:
REMARK  status: ('A' for Active; 'I' for Inactive)
REMARK    1  A    between atoms: C_1  and  C_2
REMARK    2  A    between atoms: C_2  and  C_3
REMARK    3  A    between atoms: C_3  and  C_4
REMARK    4  A    between atoms: C_7  and  C_8
REMARK    5  A    between atoms: N_13  and  C_14
REMARK    6  A    between atoms: C_14  and  C_15
REMARK    7  A    between atoms: C_18  and  O_19
REMARK    8  A    between atoms: O_19  and  C_20
REMARK    9  A    between atoms: C_20  and  C_21
REMARK   10  A    between atoms: C_20  and  C_24
REMARK   11  A    between atoms: C_21  and  O_23
REMARK                            x       y       z     vdW  Elec       q    Type
REMARK                         _______ _______ _______ _____ _____    ______ ____
ROOT
ATOM      1  C   UNL     1       1.223   9.579  19.186  0.00  0.00    +0.000 A 
ATOM      2  C   UNL     1       1.729   8.984  18.024  0.00  0.00    +0.000 A 
ATOM      3  C   UNL     1       2.128   7.638  18.026  0.00  0.00    +0.000 A 
ATOM      4  C   UNL     1       2.043   6.863  19.187  0.00  0.00    +0.000 A 
ATOM      5  C   UNL     1       1.589   7.461  20.360  0.00  0.00    +0.000 A 
ATOM      6  C   UNL     1       1.170   8.799  20.351  0.00  0.00    +0.000 A 
ENDROOT
BRANCH   1   7
ATOM      7  C   UNL     1       0.815  11.035  19.198  0.00  0.00    +0.000 C 
BRANCH   7  17
ATOM      8  C   UNL     1      -1.244  11.937  20.398  0.00  0.00    +0.000 A 
ATOM      9  N   UNL     1      -2.519  12.152  20.127  0.00  0.00    +0.000 NA
ATOM     10  C   UNL     1      -2.738  11.609  18.889  0.00  0.00    +0.000 A 
ATOM     11  C   UNL     1      -3.900  11.578  18.096  0.00  0.00    +0.000 A 
ATOM     12  C   UNL     1      -5.217  12.156  18.518  0.00  0.00    +0.000 C 
ATOM     13  C   UNL     1      -3.771  10.965  16.844  0.00  0.00    +0.000 A 
ATOM     14  C   UNL     1      -2.540  10.421  16.470  0.00  0.00    +0.000 A 
ATOM     15  N   UNL     1      -1.401  10.440  17.198  0.00  0.00    +0.000 NA
ATOM     16  C   UNL     1      -1.573  11.040  18.391  0.00  0.00    +0.000 A 
ATOM     17  N   UNL     1      -0.620  11.253  19.364  0.00  0.00    +0.000 N 
BRANCH   8  18
ATOM     18  C   UNL     1      -0.546  12.414  21.631  0.00  0.00    +0.000 C 
BRANCH  18  20
ATOM     19  C   UNL     1      -0.835  10.356  23.052  0.00  0.00    +0.000 C 
ATOM     20  C   UNL     1      -1.166  11.832  22.899  0.00  0.00    +0.000 C 
ENDBRANCH  18  20
ENDBRANCH   8  18
ENDBRANCH   7  17
ENDBRANCH   1   7
BRANCH   4  21
ATOM     21  O   UNL     1       2.338   5.528  19.052  0.00  0.00    +0.000 OA
BRANCH  21  22
ATOM     22  C   UNL     1       2.954   4.891  20.171  0.00  0.00    +0.000 C 
BRANCH  22  23
ATOM     23  C   UNL     1       4.216   4.082  19.737  0.00  0.00    +0.000 C 
ATOM     24  C   UNL     1       4.011   2.957  18.701  0.00  0.00    +0.000 C 
ATOM     25  C   UNL     1       3.898   3.427  17.251  0.00  0.00    +0.000 C 
ATOM     26  C   UNL     1       5.087   4.295  16.857  0.00  0.00    +0.000 C 
ATOM     27  C   UNL     1       5.251   5.470  17.812  0.00  0.00    +0.000 C 
ATOM     28  C   UNL     1       5.351   5.017  19.268  0.00  0.00    +0.000 C 
ENDBRANCH  22  23
BRANCH  22  29
ATOM     29  C   UNL     1       2.005   4.004  21.000  0.00  0.00    +0.000 C 
ATOM     30  O   UNL     1       2.316   3.510  22.076  0.00  0.00    +0.000 OA
BRANCH  29  31
ATOM     31  O   UNL     1       0.780   3.822  20.458  0.00  0.00    +0.000 OA
ATOM     32  H   UNL     1       0.521   2.880  20.435  0.00  0.00    +0.000 HD
ENDBRANCH  29  31
ENDBRANCH  22  29
ENDBRANCH  21  22
ENDBRANCH   4  21
TORSDOF 9
ENDMDL
MODEL 6
REMARK VINA RESULT:      -8.0      0.691      1.294
REMARK  Name = 
REMARK  11 active torsions:
REMARK  status: ('A' for Active; 'I' for Inactive)
REMARK    1  A    between atoms: C_1  and  C_2
REMARK    2  A    between atoms: C_2  and  C_3
REMARK    3  A    between atoms: C_3  and  C_4
REMARK    4  A    between atoms: C_7  and  C_8
REMARK    5  A    between atoms: N_13  and  C_14
REMARK    6  A    between atoms: C_14  and  C_15
REMARK    7  A    between atoms: C_18  and  O_19
REMARK    8  A    between atoms: O_19  and  C_20
REMARK    9  A    between atoms: C_20  and  C_21
REMARK   10  A    between atoms: C_20  and  C_24
REMARK   11  A    between atoms: C_21  and  O_23
REMARK                            x       y       z     vdW  Elec       q    Type
REMARK                         _______ _______ _______ _____ _____    ______ ____
ROOT
ATOM      1  C   UNL     1       1.369   8.939  18.745  0.00  0.00    +0.000 A 
ATOM      2  C   UNL     1       2.298   8.503  17.793  0.00  0.00    +0.000 A 
ATOM      3  C   UNL     1       3.128   7.402  18.057  0.00  0.00    +0.000 A 
ATOM      4  C   UNL     1       3.056   6.722  19.277  0.00  0.00    +0.000 A 
ATOM      5  C   UNL     1       2.171   7.181  20.249  0.00  0.00    +0.000 A 
ATOM      6  C   UNL     1       1.327   8.266  19.975  0.00  0.00    +0.000 A 
ENDROOT
BRANCH   1   7
ATOM      7  C   UNL     1       0.490  10.140  18.478  0.00  0.00    +0.000 C 
BRANCH   7  17
ATOM      8  C   UNL     1       0.249  11.440  20.657  0.00  0.00    +0.000 A 
ATOM      9  N   UNL     1       0.845  12.450  21.265  0.00  0.00    +0.000 NA
ATOM     10  C   UNL     1       1.748  12.952  20.366  0.00  0.00    +0.000 A 
ATOM     11  C   UNL     1       2.675  14.003  20.490  0.00  0.00    +0.000 A 
ATOM     12  C   UNL     1       2.825  14.846  21.720  0.00  0.00    +0.000 C 
ATOM     13  C   UNL     1       3.487  14.238  19.375  0.00  0.00    +0.000 A 
ATOM     14  C   UNL     1       3.328  13.451  18.232  0.00  0.00    +0.000 A 
ATOM     15  N   UNL     1       2.458  12.428  18.078  0.00  0.00    +0.000 NA
ATOM     16  C   UNL     1       1.700  12.239  19.175  0.00  0.00    +0.000 A 
ATOM     17  N   UNL     1       0.737  11.272  19.368  0.00  0.00    +0.000 N 
BRANCH   8  18
ATOM     18  C   UNL     1      -0.778  10.555  21.288  0.00  0.00    +0.000 C 
BRANCH  18  20
ATOM     19  C   UNL     1       0.077   9.423  23.368  0.00  0.00    +0.000 C 
ATOM     20  C   UNL     1      -0.710  10.600  22.813  0.00  0.00    +0.000 C 
ENDBRANCH  18  20
ENDBRANCH   8  18
ENDBRANCH   7  17
ENDBRANCH   1   7
BRANCH   4  21
ATOM     21  O   UNL     1       3.818   5.584  19.387  0.00  0.00    +0.000 OA
BRANCH  21  22
ATOM     22  C   UNL     1       3.778   4.678  18.285  0.00  0.00    +0.000 C 
BRANCH  22  23
ATOM     23  C   UNL     1       3.243   3.279  18.723  0.00  0.00    +0.000 C 
ATOM     24  C   UNL     1       3.503   2.848  20.181  0.00  0.00    +0.000 C 
ATOM     25  C   UNL     1       2.556   3.457  21.214  0.00  0.00    +0.000 C 
ATOM     26  C   UNL     1       1.100   3.208  20.843  0.00  0.00    +0.000 C 
ATOM     27  C   UNL     1       0.794   3.714  19.440  0.00  0.00    +0.000 C 
ATOM     28  C   UNL     1       1.742   3.124  18.398  0.00  0.00    +0.000 C 
ENDBRANCH  22  23
BRANCH  22  29
ATOM     29  C   UNL     1       5.116   4.530  17.534  0.00  0.00    +0.000 C 
ATOM     30  O   UNL     1       5.290   4.924  16.387  0.00  0.00    +0.000 OA
BRANCH  29  31
ATOM     31  O   UNL     1       6.105   3.943  18.245  0.00  0.00    +0.000 OA
ATOM     32  H   UNL     1       5.763   3.289  18.886  0.00  0.00    +0.000 HD
ENDBRANCH  29  31
ENDBRANCH  22  29
ENDBRANCH  21  22
ENDBRANCH   4  21
TORSDOF 9
ENDMDL
MODEL 7
REMARK VINA RESULT:      -8.0      3.806      8.438
REMARK  Name = 
REMARK  11 active torsions:
REMARK  status: ('A' for Active; 'I' for Inactive)
REMARK    1  A    between atoms: C_1  and  C_2
REMARK    2  A    between atoms: C_2  and  C_3
REMARK    3  A    between atoms: C_3  and  C_4
REMARK    4  A    between atoms: C_7  and  C_8
REMARK    5  A    between atoms: N_13  and  C_14
REMARK    6  A    between atoms: C_14  and  C_15
REMARK    7  A    between atoms: C_18  and  O_19
REMARK    8  A    between atoms: O_19  and  C_20
REMARK    9  A    between atoms: C_20  and  C_21
REMARK   10  A    between atoms: C_20  and  C_24
REMARK   11  A    between atoms: C_21  and  O_23
REMARK                            x       y       z     vdW  Elec       q    Type
REMARK                         _______ _______ _______ _____ _____    ______ ____
ROOT
ATOM      1  C   UNL     1       2.480   6.987  19.535  0.00  0.00    +0.000 A 
ATOM      2  C   UNL     1       2.622   7.523  18.250  0.00  0.00    +0.000 A 
ATOM      3  C   UNL     1       2.050   8.763  17.926  0.00  0.00    +0.000 A 
ATOM      4  C   UNL     1       1.314   9.486  18.870  0.00  0.00    +0.000 A 
ATOM      5  C   UNL     1       1.124   8.937  20.135  0.00  0.00    +0.000 A 
ATOM      6  C   UNL     1       1.716   7.709  20.465  0.00  0.00    +0.000 A 
ENDROOT
BRANCH   1   7
ATOM      7  C   UNL     1       3.072   5.641  19.885  0.00  0.00    +0.000 C 
BRANCH   7  17
ATOM      8  C   UNL     1       2.928   4.251  17.754  0.00  0.00    +0.000 A 
ATOM      9  N   UNL     1       3.720   3.908  16.754  0.00  0.00    +0.000 NA
ATOM     10  C   UNL     1       4.967   4.366  17.086  0.00  0.00    +0.000 A 
ATOM     11  C   UNL     1       6.180   4.311  16.376  0.00  0.00    +0.000 A 
ATOM     12  C   UNL     1       6.337   3.660  15.035  0.00  0.00    +0.000 C 
ATOM     13  C   UNL     1       7.280   4.916  16.996  0.00  0.00    +0.000 A 
ATOM     14  C   UNL     1       7.121   5.509  18.250  0.00  0.00    +0.000 A 
ATOM     15  N   UNL     1       5.971   5.591  18.958  0.00  0.00    +0.000 NA
ATOM     16  C   UNL     1       4.943   4.997  18.323  0.00  0.00    +0.000 A 
ATOM     17  N   UNL     1       3.633   4.919  18.746  0.00  0.00    +0.000 N 
BRANCH   8  18
ATOM     18  C   UNL     1       1.454   4.004  17.794  0.00  0.00    +0.000 C 
BRANCH  18  20
ATOM     19  C   UNL     1       0.718   3.056  20.008  0.00  0.00    +0.000 C 
ATOM     20  C   UNL     1       1.109   2.736  18.574  0.00  0.00    +0.000 C 
ENDBRANCH  18  20
ENDBRANCH   8  18
ENDBRANCH   7  17
ENDBRANCH   1   7
BRANCH   4  21
ATOM     21  O   UNL     1       0.905  10.742  18.493  0.00  0.00    +0.000 OA
BRANCH  21  22
ATOM     22  C   UNL     1       0.117  11.470  19.434  0.00  0.00    +0.000 C 
BRANCH  22  23
ATOM     23  C   UNL     1      -0.880  12.431  18.715  0.00  0.00    +0.000 C 
ATOM     24  C   UNL     1      -1.850  11.805  17.692  0.00  0.00    +0.000 C 
ATOM     25  C   UNL     1      -3.067  11.108  18.298  0.00  0.00    +0.000 C 
ATOM     26  C   UNL     1      -3.823  12.035  19.241  0.00  0.00    +0.000 C 
ATOM     27  C   UNL     1      -2.904  12.591  20.321  0.00  0.00    +0.000 C 
ATOM     28  C   UNL     1      -1.675  13.280  19.731  0.00  0.00    +0.000 C 
ENDBRANCH  22  23
BRANCH  22  29
ATOM     29  C   UNL     1       0.936  12.237  20.490  0.00  0.00    +0.000 C 
ATOM     30  O   UNL     1       0.760  12.116  21.696  0.00  0.00    +0.000 OA
BRANCH  29  31
ATOM     31  O   UNL     1       1.891  13.052  19.987  0.00  0.00    +0.000 OA
ATOM     32  H   UNL     1       1.849  13.952  20.367  0.00  0.00    +0.000 HD
ENDBRANCH  29  31
ENDBRANCH  22  29
ENDBRANCH  21  22
ENDBRANCH   4  21
TORSDOF 9
ENDMDL
MODEL 8
REMARK VINA RESULT:      -8.0      3.655      8.385
REMARK  Name = 
REMARK  11 active torsions:
REMARK  status: ('A' for Active; 'I' for Inactive)
REMARK    1  A    between atoms: C_1  and  C_2
REMARK    2  A    between atoms: C_2  and  C_3
REMARK    3  A    between atoms: C_3  and  C_4
REMARK    4  A    between atoms: C_7  and  C_8
REMARK    5  A    between atoms: N_13  and  C_14
REMARK    6  A    between atoms: C_14  and  C_15
REMARK    7  A    between atoms: C_18  and  O_19
REMARK    8  A    between atoms: O_19  and  C_20
REMARK    9  A    between atoms: C_20  and  C_21
REMARK   10  A    between atoms: C_20  and  C_24
REMARK   11  A    between atoms: C_21  and  O_23
REMARK                            x       y       z     vdW  Elec       q    Type
REMARK                         _______ _______ _______ _____ _____    ______ ____
ROOT
ATOM      1  C   UNL     1       2.557   7.078  19.413  0.00  0.00    +0.000 A 
ATOM      2  C   UNL     1       2.586   7.605  18.117  0.00  0.00    +0.000 A 
ATOM      3  C   UNL     1       1.914   8.800  17.816  0.00  0.00    +0.000 A 
ATOM      4  C   UNL     1       1.190   9.486  18.797  0.00  0.00    +0.000 A 
ATOM      5  C   UNL     1       1.113   8.941  20.076  0.00  0.00    +0.000 A 
ATOM      6  C   UNL     1       1.804   7.760  20.380  0.00  0.00    +0.000 A 
ENDROOT
BRANCH   1   7
ATOM      7  C   UNL     1       3.258   5.778  19.738  0.00  0.00    +0.000 C 
BRANCH   7  17
ATOM      8  C   UNL     1       2.978   4.292  17.687  0.00  0.00    +0.000 A 
ATOM      9  N   UNL     1       3.676   3.961  16.616  0.00  0.00    +0.000 NA
ATOM     10  C   UNL     1       4.916   4.516  16.787  0.00  0.00    +0.000 A 
ATOM     11  C   UNL     1       6.044   4.514  15.946  0.00  0.00    +0.000 A 
ATOM     12  C   UNL     1       6.098   3.818  14.620  0.00  0.00    +0.000 C 
ATOM     13  C   UNL     1       7.159   5.218  16.415  0.00  0.00    +0.000 A 
ATOM     14  C   UNL     1       7.098   5.852  17.658  0.00  0.00    +0.000 A 
ATOM     15  N   UNL     1       6.032   5.885  18.489  0.00  0.00    +0.000 NA
ATOM     16  C   UNL     1       4.984   5.197  17.997  0.00  0.00    +0.000 A 
ATOM     17  N   UNL     1       3.739   5.048  18.568  0.00  0.00    +0.000 N 
BRANCH   8  18
ATOM     18  C   UNL     1       1.539   3.946  17.904  0.00  0.00    +0.000 C 
BRANCH  18  20
ATOM     19  C   UNL     1       0.740   3.217  20.178  0.00  0.00    +0.000 C 
ATOM     20  C   UNL     1       1.373   2.773  18.868  0.00  0.00    +0.000 C 
ENDBRANCH  18  20
ENDBRANCH   8  18
ENDBRANCH   7  17
ENDBRANCH   1   7
BRANCH   4  21
ATOM     21  O   UNL     1       0.676  10.707  18.433  0.00  0.00    +0.000 OA
BRANCH  21  22
ATOM     22  C   UNL     1       0.979  11.810  19.286  0.00  0.00    +0.000 C 
BRANCH  22  23
ATOM     23  C   UNL     1      -0.304  12.630  19.628  0.00  0.00    +0.000 C 
ATOM     24  C   UNL     1      -1.449  11.885  20.342  0.00  0.00    +0.000 C 
ATOM     25  C   UNL     1      -1.256  11.692  21.845  0.00  0.00    +0.000 C 
ATOM     26  C   UNL     1      -0.976  13.017  22.542  0.00  0.00    +0.000 C 
ATOM     27  C   UNL     1       0.215  13.729  21.914  0.00  0.00    +0.000 C 
ATOM     28  C   UNL     1       0.043  13.917  20.408  0.00  0.00    +0.000 C 
ENDBRANCH  22  23
BRANCH  22  29
ATOM     29  C   UNL     1       2.087  12.740  18.755  0.00  0.00    +0.000 C 
ATOM     30  O   UNL     1       2.838  13.376  19.483  0.00  0.00    +0.000 OA
BRANCH  29  31
ATOM     31  O   UNL     1       2.186  12.792  17.407  0.00  0.00    +0.000 OA
ATOM     32  H   UNL     1       1.755  13.587  17.034  0.00  0.00    +0.000 HD
ENDBRANCH  29  31
ENDBRANCH  22  29
ENDBRANCH  21  22
ENDBRANCH   4  21
TORSDOF 9
ENDMDL
MODEL 9
REMARK VINA RESULT:      -7.9      0.874      1.185
REMARK  Name = 
REMARK  11 active torsions:
REMARK  status: ('A' for Active; 'I' for Inactive)
REMARK    1  A    between atoms: C_1  and  C_2
REMARK    2  A    between atoms: C_2  and  C_3
REMARK    3  A    between atoms: C_3  and  C_4
REMARK    4  A    between atoms: C_7  and  C_8
REMARK    5  A    between atoms: N_13  and  C_14
REMARK    6  A    between atoms: C_14  and  C_15
REMARK    7  A    between atoms: C_18  and  O_19
REMARK    8  A    between atoms: O_19  and  C_20
REMARK    9  A    between atoms: C_20  and  C_21
REMARK   10  A    between atoms: C_20  and  C_24
REMARK   11  A    between atoms: C_21  and  O_23
REMARK                            x       y       z     vdW  Elec       q    Type
REMARK                         _______ _______ _______ _____ _____    ______ ____
ROOT
ATOM      1  C   UNL     1       1.205   8.999  19.077  0.00  0.00    +0.000 A 
ATOM      2  C   UNL     1       1.283   8.274  20.272  0.00  0.00    +0.000 A 
ATOM      3  C   UNL     1       2.157   7.182  20.389  0.00  0.00    +0.000 A 
ATOM      4  C   UNL     1       2.960   6.783  19.316  0.00  0.00    +0.000 A 
ATOM      5  C   UNL     1       2.851   7.466  18.108  0.00  0.00    +0.000 A 
ATOM      6  C   UNL     1       1.995   8.571  17.999  0.00  0.00    +0.000 A 
ENDROOT
BRANCH   1   7
ATOM      7  C   UNL     1       0.247  10.160  18.935  0.00  0.00    +0.000 C 
BRANCH   7  17
ATOM      8  C   UNL     1       0.234  11.542  21.075  0.00  0.00    +0.000 A 
ATOM      9  N   UNL     1       0.894  12.568  21.582  0.00  0.00    +0.000 NA
ATOM     10  C   UNL     1       1.707  13.027  20.580  0.00  0.00    +0.000 A 
ATOM     11  C   UNL     1       2.649  14.071  20.571  0.00  0.00    +0.000 A 
ATOM     12  C   UNL     1       2.927  14.958  21.748  0.00  0.00    +0.000 C 
ATOM     13  C   UNL     1       3.348  14.256  19.373  0.00  0.00    +0.000 A 
ATOM     14  C   UNL     1       3.070  13.429  18.282  0.00  0.00    +0.000 A 
ATOM     15  N   UNL     1       2.182  12.410  18.254  0.00  0.00    +0.000 NA
ATOM     16  C   UNL     1       1.535  12.270  19.427  0.00  0.00    +0.000 A 
ATOM     17  N   UNL     1       0.589  11.322  19.752  0.00  0.00    +0.000 N 
BRANCH   8  18
ATOM     18  C   UNL     1      -0.731  10.693  21.838  0.00  0.00    +0.000 C 
BRANCH  18  20
ATOM     19  C   UNL     1      -2.543  12.169  22.775  0.00  0.00    +0.000 C 
ATOM     20  C   UNL     1      -1.263  11.407  23.079  0.00  0.00    +0.000 C 
ENDBRANCH  18  20
ENDBRANCH   8  18
ENDBRANCH   7  17
ENDBRANCH   1   7
BRANCH   4  21
ATOM     21  O   UNL     1       3.870   5.786  19.572  0.00  0.00    +0.000 OA
BRANCH  21  22
ATOM     22  C   UNL     1       3.842   4.654  18.704  0.00  0.00    +0.000 C 
BRANCH  22  23
ATOM     23  C   UNL     1       3.498   3.349  19.488  0.00  0.00    +0.000 C 
ATOM     24  C   UNL     1       2.646   3.496  20.765  0.00  0.00    +0.000 C 
ATOM     25  C   UNL     1       1.147   3.665  20.526  0.00  0.00    +0.000 C 
ATOM     26  C   UNL     1       0.596   2.545  19.652  0.00  0.00    +0.000 C 
ATOM     27  C   UNL     1       1.361   2.443  18.340  0.00  0.00    +0.000 C 
ATOM     28  C   UNL     1       2.864   2.288  18.562  0.00  0.00    +0.000 C 
ENDBRANCH  22  23
BRANCH  22  29
ATOM     29  C   UNL     1       5.123   4.459  17.871  0.00  0.00    +0.000 C 
ATOM     30  O   UNL     1       5.210   4.765  16.689  0.00  0.00    +0.000 OA
BRANCH  29  31
ATOM     31  O   UNL     1       6.168   3.936  18.551  0.00  0.00    +0.000 OA
ATOM     32  H   UNL     1       5.889   3.253  19.193  0.00  0.00    +0.000 HD
ENDBRANCH  29  31
ENDBRANCH  22  29
ENDBRANCH  21  22
ENDBRANCH   4  21
TORSDOF 9
ENDMDL
