MODEL 1
REMARK VINA RESULT:      -7.6      0.000      0.000
REMARK  Name = 
REMARK  12 active torsions:
REMARK  status: ('A' for Active; 'I' for Inactive)
REMARK    1  A    between atoms: C_1  and  C_2
REMARK    2  A    between atoms: C_2  and  O_3
REMARK    3  A    between atoms: O_3  and  C_4
REMARK    4  A    between atoms: C_4  and  C_5
REMARK    5  A    between atoms: C_5  and  C_6
REMARK    6  A    between atoms: C_6  and  N_7
REMARK    7  A    between atoms: C_8  and  S_9
REMARK    8  A    between atoms: S_9  and  C_10
REMARK    9  A    between atoms: C_10  and  C_11
REMARK   10  A    between atoms: N_13  and  C_14
REMARK   11  A    between atoms: C_17  and  N_18
REMARK   12  A    between atoms: C_19  and  C_20
REMARK                            x       y       z     vdW  Elec       q    Type
REMARK                         _______ _______ _______ _____ _____    ______ ____
ROOT
ATOM      1  N   UNL     1       5.642   5.193  17.117  0.00  0.00    +0.000 N 
ATOM      2  C   UNL     1       6.864   5.810  16.917  0.00  0.00    +0.000 A 
ATOM      3  N   UNL     1       7.531   5.769  15.809  0.00  0.00    +0.000 NA
ATOM      4  C   UNL     1       6.997   5.072  14.725  0.00  0.00    +0.000 A 
ATOM      5  C   UNL     1       7.671   5.082  13.501  0.00  0.00    +0.000 A 
ATOM      6  C   UNL     1       7.183   4.347  12.416  0.00  0.00    +0.000 A 
ATOM      7  C   UNL     1       6.014   3.597  12.543  0.00  0.00    +0.000 A 
ATOM      8  C   UNL     1       5.314   3.617  13.748  0.00  0.00    +0.000 A 
ATOM      9  C   UNL     1       5.806   4.367  14.820  0.00  0.00    +0.000 A 
ATOM     10  C   UNL     1       5.049   4.485  16.070  0.00  0.00    +0.000 A 
ATOM     11  O   UNL     1       3.924   3.986  16.110  0.00  0.00    +0.000 OA
ENDROOT
BRANCH   1  12
ATOM     12  C   UNL     1       4.808   5.335  18.325  0.00  0.00    +0.000 C 
BRANCH  12  13
ATOM     13  C   UNL     1       4.827   4.086  19.217  0.00  0.00    +0.000 C 
BRANCH  13  14
ATOM     14  C   UNL     1       3.426   3.523  19.429  0.00  0.00    +0.000 C 
BRANCH  14  15
ATOM     15  O   UNL     1       3.016   3.769  20.774  0.00  0.00    +0.000 OA
BRANCH  15  17
ATOM     16  C   UNL     1       0.875   3.454  19.763  0.00  0.00    +0.000 C 
ATOM     17  C   UNL     1       1.696   3.295  21.027  0.00  0.00    +0.000 C 
ENDBRANCH  15  17
ENDBRANCH  14  15
ENDBRANCH  13  14
ENDBRANCH  12  13
ENDBRANCH   1  12
BRANCH   2  18
ATOM     18  S   UNL     1       7.544   6.760  18.232  0.00  0.00    +0.000 S 
BRANCH  18  19
ATOM     19  C   UNL     1       7.641   8.422  17.514  0.00  0.00    +0.000 C 
BRANCH  19  20
ATOM     20  C   UNL     1       8.573   9.410  18.202  0.00  0.00    +0.000 C 
ATOM     21  O   UNL     1       9.175   9.041  19.211  0.00  0.00    +0.000 OA
ATOM     22  N   UNL     1       8.610  10.687  17.672  0.00  0.00    +0.000 N 
ATOM     23  H   UNL     1       7.936  10.884  16.946  0.00  0.00    +0.000 HD
BRANCH  22  24
ATOM     24  C   UNL     1       9.409  11.757  18.108  0.00  0.00    +0.000 A 
ATOM     25  C   UNL     1       9.043  12.595  19.156  0.00  0.00    +0.000 A 
ATOM     26  C   UNL     1       9.769  13.755  19.424  0.00  0.00    +0.000 A 
ATOM     27  C   UNL     1      10.877  14.092  18.652  0.00  0.00    +0.000 A 
ATOM     28  C   UNL     1      11.326  13.183  17.686  0.00  0.00    +0.000 A 
ATOM     29  C   UNL     1      10.602  12.010  17.427  0.00  0.00    +0.000 A 
BRANCH  27  30
ATOM     30  N   UNL     1      11.515  15.347  18.738  0.00  0.00    +0.000 N 
ATOM     31  C   UNL     1      11.283  16.439  17.919  0.00  0.00    +0.000 C 
ATOM     32  C   UNL     1      12.332  17.509  18.051  0.00  0.00    +0.000 C 
ATOM     33  O   UNL     1      10.335  16.596  17.157  0.00  0.00    +0.000 OA
ATOM     34  H   UNL     1      12.254  15.429  19.426  0.00  0.00    +0.000 HD
ENDBRANCH  27  30
ENDBRANCH  22  24
ENDBRANCH  19  20
ENDBRANCH  18  19
ENDBRANCH   2  18
TORSDOF 10
ENDMDL
MODEL 2
REMARK VINA RESULT:      -7.4      6.497      9.048
REMARK  Name = 
REMARK  12 active torsions:
REMARK  status: ('A' for Active; 'I' for Inactive)
REMARK    1  A    between atoms: C_1  and  C_2
REMARK    2  A    between atoms: C_2  and  O_3
REMARK    3  A    between atoms: O_3  and  C_4
REMARK    4  A    between atoms: C_4  and  C_5
REMARK    5  A    between atoms: C_5  and  C_6
REMARK    6  A    between atoms: C_6  and  N_7
REMARK    7  A    between atoms: C_8  and  S_9
REMARK    8  A    between atoms: S_9  and  C_10
REMARK    9  A    between atoms: C_10  and  C_11
REMARK   10  A    between atoms: N_13  and  C_14
REMARK   11  A    between atoms: C_17  and  N_18
REMARK   12  A    between atoms: C_19  and  C_20
REMARK                            x       y       z     vdW  Elec       q    Type
REMARK                         _______ _______ _______ _____ _____    ______ ____
ROOT
ATOM      1  N   UNL     1       3.515   6.019  17.583  0.00  0.00    +0.000 N 
ATOM      2  C   UNL     1       2.753   6.801  18.433  0.00  0.00    +0.000 A 
ATOM      3  N   UNL     1       2.006   6.335  19.381  0.00  0.00    +0.000 NA
ATOM      4  C   UNL     1       1.959   4.957  19.589  0.00  0.00    +0.000 A 
ATOM      5  C   UNL     1       1.215   4.446  20.656  0.00  0.00    +0.000 A 
ATOM      6  C   UNL     1       1.109   3.067  20.852  0.00  0.00    +0.000 A 
ATOM      7  C   UNL     1       1.749   2.181  19.984  0.00  0.00    +0.000 A 
ATOM      8  C   UNL     1       2.528   2.684  18.942  0.00  0.00    +0.000 A 
ATOM      9  C   UNL     1       2.635   4.067  18.767  0.00  0.00    +0.000 A 
ATOM     10  C   UNL     1       3.518   4.632  17.741  0.00  0.00    +0.000 A 
ATOM     11  O   UNL     1       4.234   3.856  17.108  0.00  0.00    +0.000 OA
ENDROOT
BRANCH   1  12
ATOM     12  C   UNL     1       4.469   6.534  16.583  0.00  0.00    +0.000 C 
BRANCH  12  13
ATOM     13  C   UNL     1       5.862   6.806  17.167  0.00  0.00    +0.000 C 
BRANCH  13  14
ATOM     14  C   UNL     1       6.919   5.894  16.553  0.00  0.00    +0.000 C 
BRANCH  14  15
ATOM     15  O   UNL     1       6.583   5.632  15.191  0.00  0.00    +0.000 OA
BRANCH  15  17
ATOM     16  C   UNL     1       6.360   4.064  13.401  0.00  0.00    +0.000 C 
ATOM     17  C   UNL     1       6.688   4.247  14.870  0.00  0.00    +0.000 C 
ENDBRANCH  15  17
ENDBRANCH  14  15
ENDBRANCH  13  14
ENDBRANCH  12  13
ENDBRANCH   1  12
BRANCH   2  18
ATOM     18  S   UNL     1       2.834   8.550  18.255  0.00  0.00    +0.000 S 
BRANCH  18  19
ATOM     19  C   UNL     1       1.169   8.967  17.671  0.00  0.00    +0.000 C 
BRANCH  19  20
ATOM     20  C   UNL     1       0.348   9.893  18.557  0.00  0.00    +0.000 C 
ATOM     21  O   UNL     1      -0.711  10.339  18.115  0.00  0.00    +0.000 OA
ATOM     22  N   UNL     1       0.905  10.223  19.779  0.00  0.00    +0.000 N 
ATOM     23  H   UNL     1       1.854   9.912  19.931  0.00  0.00    +0.000 HD
BRANCH  22  24
ATOM     24  C   UNL     1       0.331  11.028  20.778  0.00  0.00    +0.000 A 
ATOM     25  C   UNL     1      -0.235  10.506  21.936  0.00  0.00    +0.000 A 
ATOM     26  C   UNL     1      -0.962  11.324  22.801  0.00  0.00    +0.000 A 
ATOM     27  C   UNL     1      -1.128  12.678  22.524  0.00  0.00    +0.000 A 
ATOM     28  C   UNL     1      -0.447  13.230  21.432  0.00  0.00    +0.000 A 
ATOM     29  C   UNL     1       0.295  12.409  20.572  0.00  0.00    +0.000 A 
BRANCH  27  30
ATOM     30  N   UNL     1      -2.022  13.499  23.241  0.00  0.00    +0.000 N 
ATOM     31  C   UNL     1      -1.679  14.433  24.205  0.00  0.00    +0.000 C 
ATOM     32  C   UNL     1      -2.857  14.913  25.008  0.00  0.00    +0.000 C 
ATOM     33  O   UNL     1      -0.559  14.884  24.424  0.00  0.00    +0.000 OA
ATOM     34  H   UNL     1      -3.009  13.343  23.075  0.00  0.00    +0.000 HD
ENDBRANCH  27  30
ENDBRANCH  22  24
ENDBRANCH  19  20
ENDBRANCH  18  19
ENDBRANCH   2  18
TORSDOF 10
ENDMDL
MODEL 3
REMARK VINA RESULT:      -7.4      1.944      5.016
REMARK  Name = 
REMARK  12 active torsions:
REMARK  status: ('A' for Active; 'I' for Inactive)
REMARK    1  A    between atoms: C_1  and  C_2
REMARK    2  A    between atoms: C_2  and  O_3
REMARK    3  A    between atoms: O_3  and  C_4
REMARK    4  A    between atoms: C_4  and  C_5
REMARK    5  A    between atoms: C_5  and  C_6
REMARK    6  A    between atoms: C_6  and  N_7
REMARK    7  A    between atoms: C_8  and  S_9
REMARK    8  A    between atoms: S_9  and  C_10
REMARK    9  A    between atoms: C_10  and  C_11
REMARK   10  A    between atoms: N_13  and  C_14
REMARK   11  A    between atoms: C_17  and  N_18
REMARK   12  A    between atoms: C_19  and  C_20
REMARK                            x       y       z     vdW  Elec       q    Type
REMARK                         _______ _______ _______ _____ _____    ______ ____
ROOT
ATOM      1  N   UNL     1       4.517   5.388  17.782  0.00  0.00    +0.000 N 
ATOM      2  C   UNL     1       5.479   4.619  18.412  0.00  0.00    +0.000 A 
ATOM      3  N   UNL     1       5.236   3.787  19.372  0.00  0.00    +0.000 NA
ATOM      4  C   UNL     1       3.921   3.628  19.812  0.00  0.00    +0.000 A 
ATOM      5  C   UNL     1       3.635   2.679  20.796  0.00  0.00    +0.000 A 
ATOM      6  C   UNL     1       2.335   2.539  21.291  0.00  0.00    +0.000 A 
ATOM      7  C   UNL     1       1.306   3.344  20.802  0.00  0.00    +0.000 A 
ATOM      8  C   UNL     1       1.577   4.264  19.789  0.00  0.00    +0.000 A 
ATOM      9  C   UNL     1       2.879   4.383  19.296  0.00  0.00    +0.000 A 
ATOM     10  C   UNL     1       3.181   5.271  18.169  0.00  0.00    +0.000 A 
ATOM     11  O   UNL     1       2.238   5.832  17.610  0.00  0.00    +0.000 OA
ENDROOT
BRANCH   1  12
ATOM     12  C   UNL     1       4.753   6.243  16.603  0.00  0.00    +0.000 C 
BRANCH  12  13
ATOM     13  C   UNL     1       4.968   5.441  15.313  0.00  0.00    +0.000 C 
BRANCH  13  14
ATOM     14  C   UNL     1       6.295   5.790  14.647  0.00  0.00    +0.000 C 
BRANCH  14  15
ATOM     15  O   UNL     1       6.997   4.588  14.333  0.00  0.00    +0.000 OA
BRANCH  15  17
ATOM     16  C   UNL     1       6.187   3.483  12.376  0.00  0.00    +0.000 C 
ATOM     17  C   UNL     1       6.120   3.556  13.889  0.00  0.00    +0.000 C 
ENDBRANCH  15  17
ENDBRANCH  14  15
ENDBRANCH  13  14
ENDBRANCH  12  13
ENDBRANCH   1  12
BRANCH   2  18
ATOM     18  S   UNL     1       7.141   4.732  17.845  0.00  0.00    +0.000 S 
BRANCH  18  19
ATOM     19  C   UNL     1       7.856   5.971  18.959  0.00  0.00    +0.000 C 
BRANCH  19  20
ATOM     20  C   UNL     1       8.049   7.371  18.390  0.00  0.00    +0.000 C 
ATOM     21  O   UNL     1       7.682   7.588  17.235  0.00  0.00    +0.000 OA
ATOM     22  N   UNL     1       8.700   8.278  19.205  0.00  0.00    +0.000 N 
ATOM     23  H   UNL     1       9.088   7.906  20.061  0.00  0.00    +0.000 HD
BRANCH  22  24
ATOM     24  C   UNL     1       8.965   9.628  18.920  0.00  0.00    +0.000 A 
ATOM     25  C   UNL     1       9.772  10.426  19.725  0.00  0.00    +0.000 A 
ATOM     26  C   UNL     1       9.849  11.801  19.510  0.00  0.00    +0.000 A 
ATOM     27  C   UNL     1       9.125  12.400  18.483  0.00  0.00    +0.000 A 
ATOM     28  C   UNL     1       8.420  11.583  17.591  0.00  0.00    +0.000 A 
ATOM     29  C   UNL     1       8.356  10.198  17.800  0.00  0.00    +0.000 A 
BRANCH  27  30
ATOM     30  N   UNL     1       8.997  13.799  18.354  0.00  0.00    +0.000 N 
ATOM     31  C   UNL     1       9.943  14.660  17.825  0.00  0.00    +0.000 C 
ATOM     32  C   UNL     1       9.653  16.107  18.116  0.00  0.00    +0.000 C 
ATOM     33  O   UNL     1      10.927  14.350  17.161  0.00  0.00    +0.000 OA
ATOM     34  H   UNL     1       8.158  14.211  18.743  0.00  0.00    +0.000 HD
ENDBRANCH  27  30
ENDBRANCH  22  24
ENDBRANCH  19  20
ENDBRANCH  18  19
ENDBRANCH   2  18
TORSDOF 10
ENDMDL
MODEL 4
REMARK VINA RESULT:      -7.4      6.134      9.277
REMARK  Name = 
REMARK  12 active torsions:
REMARK  status: ('A' for Active; 'I' for Inactive)
REMARK    1  A    between atoms: C_1  and  C_2
REMARK    2  A    between atoms: C_2  and  O_3
REMARK    3  A    between atoms: O_3  and  C_4
REMARK    4  A    between atoms: C_4  and  C_5
REMARK    5  A    between atoms: C_5  and  C_6
REMARK    6  A    between atoms: C_6  and  N_7
REMARK    7  A    between atoms: C_8  and  S_9
REMARK    8  A    between atoms: S_9  and  C_10
REMARK    9  A    between atoms: C_10  and  C_11
REMARK   10  A    between atoms: N_13  and  C_14
REMARK   11  A    between atoms: C_17  and  N_18
REMARK   12  A    between atoms: C_19  and  C_20
REMARK                            x       y       z     vdW  Elec       q    Type
REMARK                         _______ _______ _______ _____ _____    ______ ____
ROOT
ATOM      1  N   UNL     1       4.019   6.002  17.336  0.00  0.00    +0.000 N 
ATOM      2  C   UNL     1       3.006   6.622  18.045  0.00  0.00    +0.000 A 
ATOM      3  N   UNL     1       2.055   5.996  18.659  0.00  0.00    +0.000 NA
ATOM      4  C   UNL     1       2.035   4.601  18.629  0.00  0.00    +0.000 A 
ATOM      5  C   UNL     1       1.057   3.911  19.350  0.00  0.00    +0.000 A 
ATOM      6  C   UNL     1       0.984   2.517  19.292  0.00  0.00    +0.000 A 
ATOM      7  C   UNL     1       1.891   1.796  18.515  0.00  0.00    +0.000 A 
ATOM      8  C   UNL     1       2.896   2.475  17.827  0.00  0.00    +0.000 A 
ATOM      9  C   UNL     1       2.964   3.869  17.906  0.00  0.00    +0.000 A 
ATOM     10  C   UNL     1       4.061   4.608  17.272  0.00  0.00    +0.000 A 
ATOM     11  O   UNL     1       4.970   3.957  16.755  0.00  0.00    +0.000 OA
ENDROOT
BRANCH   1  12
ATOM     12  C   UNL     1       5.180   6.689  16.739  0.00  0.00    +0.000 C 
BRANCH  12  13
ATOM     13  C   UNL     1       6.418   6.673  17.646  0.00  0.00    +0.000 C 
BRANCH  13  14
ATOM     14  C   UNL     1       7.538   7.544  17.087  0.00  0.00    +0.000 C 
BRANCH  14  15
ATOM     15  O   UNL     1       8.274   8.117  18.167  0.00  0.00    +0.000 OA
BRANCH  15  17
ATOM     16  C   UNL     1       9.216  10.055  19.199  0.00  0.00    +0.000 C 
ATOM     17  C   UNL     1       8.335   9.538  18.079  0.00  0.00    +0.000 C 
ENDBRANCH  15  17
ENDBRANCH  14  15
ENDBRANCH  13  14
ENDBRANCH  12  13
ENDBRANCH   1  12
BRANCH   2  18
ATOM     18  S   UNL     1       3.028   8.377  18.171  0.00  0.00    +0.000 S 
BRANCH  18  19
ATOM     19  C   UNL     1       1.366   8.836  17.610  0.00  0.00    +0.000 C 
BRANCH  19  20
ATOM     20  C   UNL     1       0.491   9.580  18.610  0.00  0.00    +0.000 C 
ATOM     21  O   UNL     1      -0.655   9.883  18.273  0.00  0.00    +0.000 OA
ATOM     22  N   UNL     1       1.089   9.927  19.807  0.00  0.00    +0.000 N 
ATOM     23  H   UNL     1       2.083   9.756  19.871  0.00  0.00    +0.000 HD
BRANCH  22  24
ATOM     24  C   UNL     1       0.485  10.583  20.893  0.00  0.00    +0.000 A 
ATOM     25  C   UNL     1      -0.156   9.904  21.924  0.00  0.00    +0.000 A 
ATOM     26  C   UNL     1      -0.905  10.600  22.872  0.00  0.00    +0.000 A 
ATOM     27  C   UNL     1      -1.021  11.985  22.808  0.00  0.00    +0.000 A 
ATOM     28  C   UNL     1      -0.269  12.680  21.853  0.00  0.00    +0.000 A 
ATOM     29  C   UNL     1       0.496  11.980  20.909  0.00  0.00    +0.000 A 
BRANCH  27  30
ATOM     30  N   UNL     1      -1.930  12.713  23.604  0.00  0.00    +0.000 N 
ATOM     31  C   UNL     1      -3.275  12.904  23.339  0.00  0.00    +0.000 C 
ATOM     32  C   UNL     1      -3.898  13.978  24.189  0.00  0.00    +0.000 C 
ATOM     33  O   UNL     1      -3.959  12.287  22.529  0.00  0.00    +0.000 OA
ATOM     34  H   UNL     1      -1.541  13.189  24.409  0.00  0.00    +0.000 HD
ENDBRANCH  27  30
ENDBRANCH  22  24
ENDBRANCH  19  20
ENDBRANCH  18  19
ENDBRANCH   2  18
TORSDOF 10
ENDMDL
MODEL 5
REMARK VINA RESULT:      -7.3      6.292      9.144
REMARK  Name = 
REMARK  12 active torsions:
REMARK  status: ('A' for Active; 'I' for Inactive)
REMARK    1  A    between atoms: C_1  and  C_2
REMARK    2  A    between atoms: C_2  and  O_3
REMARK    3  A    between atoms: O_3  and  C_4
REMARK    4  A    between atoms: C_4  and  C_5
REMARK    5  A    between atoms: C_5  and  C_6
REMARK    6  A    between atoms: C_6  and  N_7
REMARK    7  A    between atoms: C_8  and  S_9
REMARK    8  A    between atoms: S_9  and  C_10
REMARK    9  A    between atoms: C_10  and  C_11
REMARK   10  A    between atoms: N_13  and  C_14
REMARK   11  A    between atoms: C_17  and  N_18
REMARK   12  A    between atoms: C_19  and  C_20
REMARK                            x       y       z     vdW  Elec       q    Type
REMARK                         _______ _______ _______ _____ _____    ______ ____
ROOT
ATOM      1  N   UNL     1       4.603   5.989  18.379  0.00  0.00    +0.000 N 
ATOM      2  C   UNL     1       3.374   6.624  18.339  0.00  0.00    +0.000 A 
ATOM      3  N   UNL     1       2.295   6.162  18.882  0.00  0.00    +0.000 NA
ATOM      4  C   UNL     1       2.351   4.950  19.571  0.00  0.00    +0.000 A 
ATOM      5  C   UNL     1       1.210   4.477  20.226  0.00  0.00    +0.000 A 
ATOM      6  C   UNL     1       1.227   3.240  20.877  0.00  0.00    +0.000 A 
ATOM      7  C   UNL     1       2.387   2.464  20.884  0.00  0.00    +0.000 A 
ATOM      8  C   UNL     1       3.541   2.950  20.270  0.00  0.00    +0.000 A 
ATOM      9  C   UNL     1       3.512   4.194  19.634  0.00  0.00    +0.000 A 
ATOM     10  C   UNL     1       4.729   4.776  19.059  0.00  0.00    +0.000 A 
ATOM     11  O   UNL     1       5.792   4.182  19.240  0.00  0.00    +0.000 OA
ENDROOT
BRANCH   1  12
ATOM     12  C   UNL     1       5.868   6.558  17.879  0.00  0.00    +0.000 C 
BRANCH  12  13
ATOM     13  C   UNL     1       6.412   5.823  16.647  0.00  0.00    +0.000 C 
BRANCH  13  14
ATOM     14  C   UNL     1       5.389   5.784  15.517  0.00  0.00    +0.000 C 
BRANCH  14  15
ATOM     15  O   UNL     1       5.033   4.428  15.248  0.00  0.00    +0.000 OA
BRANCH  15  17
ATOM     16  C   UNL     1       6.248   3.841  13.276  0.00  0.00    +0.000 C 
ATOM     17  C   UNL     1       6.143   3.667  14.779  0.00  0.00    +0.000 C 
ENDBRANCH  15  17
ENDBRANCH  14  15
ENDBRANCH  13  14
ENDBRANCH  12  13
ENDBRANCH   1  12
BRANCH   2  18
ATOM     18  S   UNL     1       3.269   8.189  17.541  0.00  0.00    +0.000 S 
BRANCH  18  19
ATOM     19  C   UNL     1       1.516   8.613  17.730  0.00  0.00    +0.000 C 
BRANCH  19  20
ATOM     20  C   UNL     1       1.193   9.782  18.651  0.00  0.00    +0.000 C 
ATOM     21  O   UNL     1       1.871  10.805  18.559  0.00  0.00    +0.000 OA
ATOM     22  N   UNL     1       0.194   9.567  19.583  0.00  0.00    +0.000 N 
ATOM     23  H   UNL     1      -0.157   8.622  19.647  0.00  0.00    +0.000 HD
BRANCH  22  24
ATOM     24  C   UNL     1      -0.303  10.495  20.514  0.00  0.00    +0.000 A 
ATOM     25  C   UNL     1      -0.144  10.346  21.888  0.00  0.00    +0.000 A 
ATOM     26  C   UNL     1      -0.818  11.184  22.775  0.00  0.00    +0.000 A 
ATOM     27  C   UNL     1      -1.658  12.188  22.303  0.00  0.00    +0.000 A 
ATOM     28  C   UNL     1      -1.714  12.425  20.924  0.00  0.00    +0.000 A 
ATOM     29  C   UNL     1      -1.024  11.591  20.034  0.00  0.00    +0.000 A 
BRANCH  27  30
ATOM     30  N   UNL     1      -2.523  12.919  23.144  0.00  0.00    +0.000 N 
ATOM     31  C   UNL     1      -2.197  14.061  23.855  0.00  0.00    +0.000 C 
ATOM     32  C   UNL     1      -3.220  14.420  24.898  0.00  0.00    +0.000 C 
ATOM     33  O   UNL     1      -1.208  14.769  23.693  0.00  0.00    +0.000 OA
ATOM     34  H   UNL     1      -3.448  12.531  23.284  0.00  0.00    +0.000 HD
ENDBRANCH  27  30
ENDBRANCH  22  24
ENDBRANCH  19  20
ENDBRANCH  18  19
ENDBRANCH   2  18
TORSDOF 10
ENDMDL
MODEL 6
REMARK VINA RESULT:      -7.2      6.301      8.521
REMARK  Name = 
REMARK  12 active torsions:
REMARK  status: ('A' for Active; 'I' for Inactive)
REMARK    1  A    between atoms: C_1  and  C_2
REMARK    2  A    between atoms: C_2  and  O_3
REMARK    3  A    between atoms: O_3  and  C_4
REMARK    4  A    between atoms: C_4  and  C_5
REMARK    5  A    between atoms: C_5  and  C_6
REMARK    6  A    between atoms: C_6  and  N_7
REMARK    7  A    between atoms: C_8  and  S_9
REMARK    8  A    between atoms: S_9  and  C_10
REMARK    9  A    between atoms: C_10  and  C_11
REMARK   10  A    between atoms: N_13  and  C_14
REMARK   11  A    between atoms: C_17  and  N_18
REMARK   12  A    between atoms: C_19  and  C_20
REMARK                            x       y       z     vdW  Elec       q    Type
REMARK                         _______ _______ _______ _____ _____    ______ ____
ROOT
ATOM      1  N   UNL     1       2.597   4.953  18.117  0.00  0.00    +0.000 N 
ATOM      2  C   UNL     1       3.249   6.138  18.407  0.00  0.00    +0.000 A 
ATOM      3  N   UNL     1       4.388   6.486  17.902  0.00  0.00    +0.000 NA
ATOM      4  C   UNL     1       5.013   5.633  16.992  0.00  0.00    +0.000 A 
ATOM      5  C   UNL     1       6.206   6.032  16.382  0.00  0.00    +0.000 A 
ATOM      6  C   UNL     1       6.878   5.173  15.509  0.00  0.00    +0.000 A 
ATOM      7  C   UNL     1       6.363   3.906  15.232  0.00  0.00    +0.000 A 
ATOM      8  C   UNL     1       5.151   3.519  15.803  0.00  0.00    +0.000 A 
ATOM      9  C   UNL     1       4.484   4.394  16.664  0.00  0.00    +0.000 A 
ATOM     10  C   UNL     1       3.165   4.058  17.209  0.00  0.00    +0.000 A 
ATOM     11  O   UNL     1       2.622   3.028  16.807  0.00  0.00    +0.000 OA
ENDROOT
BRANCH   1  12
ATOM     12  C   UNL     1       1.243   4.595  18.581  0.00  0.00    +0.000 C 
BRANCH  12  13
ATOM     13  C   UNL     1       1.181   4.309  20.088  0.00  0.00    +0.000 C 
BRANCH  13  14
ATOM     14  C   UNL     1       0.983   2.823  20.371  0.00  0.00    +0.000 C 
BRANCH  14  15
ATOM     15  O   UNL     1       2.173   2.114  20.028  0.00  0.00    +0.000 OA
BRANCH  15  17
ATOM     16  C   UNL     1       4.560   2.235  20.009  0.00  0.00    +0.000 C 
ATOM     17  C   UNL     1       3.297   2.555  20.785  0.00  0.00    +0.000 C 
ENDBRANCH  15  17
ENDBRANCH  14  15
ENDBRANCH  13  14
ENDBRANCH  12  13
ENDBRANCH   1  12
BRANCH   2  18
ATOM     18  S   UNL     1       2.467   7.277  19.495  0.00  0.00    +0.000 S 
BRANCH  18  19
ATOM     19  C   UNL     1       1.941   8.601  18.373  0.00  0.00    +0.000 C 
BRANCH  19  20
ATOM     20  C   UNL     1       0.825   9.511  18.867  0.00  0.00    +0.000 C 
ATOM     21  O   UNL     1       0.002   9.926  18.050  0.00  0.00    +0.000 OA
ATOM     22  N   UNL     1       0.871   9.864  20.204  0.00  0.00    +0.000 N 
ATOM     23  H   UNL     1       1.699   9.580  20.709  0.00  0.00    +0.000 HD
BRANCH  22  24
ATOM     24  C   UNL     1      -0.056  10.661  20.897  0.00  0.00    +0.000 A 
ATOM     25  C   UNL     1      -0.547  11.860  20.394  0.00  0.00    +0.000 A 
ATOM     26  C   UNL     1      -1.310  12.707  21.198  0.00  0.00    +0.000 A 
ATOM     27  C   UNL     1      -1.599  12.364  22.516  0.00  0.00    +0.000 A 
ATOM     28  C   UNL     1      -1.221  11.098  22.980  0.00  0.00    +0.000 A 
ATOM     29  C   UNL     1      -0.466  10.242  22.166  0.00  0.00    +0.000 A 
BRANCH  27  30
ATOM     30  N   UNL     1      -2.177  13.268  23.430  0.00  0.00    +0.000 N 
ATOM     31  C   UNL     1      -3.515  13.329  23.782  0.00  0.00    +0.000 C 
ATOM     32  C   UNL     1      -3.874  14.588  24.524  0.00  0.00    +0.000 C 
ATOM     33  O   UNL     1      -4.371  12.477  23.566  0.00  0.00    +0.000 OA
ATOM     34  H   UNL     1      -1.562  13.974  23.815  0.00  0.00    +0.000 HD
ENDBRANCH  27  30
ENDBRANCH  22  24
ENDBRANCH  19  20
ENDBRANCH  18  19
ENDBRANCH   2  18
TORSDOF 10
ENDMDL
MODEL 7
REMARK VINA RESULT:      -7.1      6.324      8.865
REMARK  Name = 
REMARK  12 active torsions:
REMARK  status: ('A' for Active; 'I' for Inactive)
REMARK    1  A    between atoms: C_1  and  C_2
REMARK    2  A    between atoms: C_2  and  O_3
REMARK    3  A    between atoms: O_3  and  C_4
REMARK    4  A    between atoms: C_4  and  C_5
REMARK    5  A    between atoms: C_5  and  C_6
REMARK    6  A    between atoms: C_6  and  N_7
REMARK    7  A    between atoms: C_8  and  S_9
REMARK    8  A    between atoms: S_9  and  C_10
REMARK    9  A    between atoms: C_10  and  C_11
REMARK   10  A    between atoms: N_13  and  C_14
REMARK   11  A    between atoms: C_17  and  N_18
REMARK   12  A    between atoms: C_19  and  C_20
REMARK                            x       y       z     vdW  Elec       q    Type
REMARK                         _______ _______ _______ _____ _____    ______ ____
ROOT
ATOM      1  N   UNL     1       4.261   5.785  17.207  0.00  0.00    +0.000 N 
ATOM      2  C   UNL     1       3.226   6.473  17.814  0.00  0.00    +0.000 A 
ATOM      3  N   UNL     1       2.248   5.911  18.448  0.00  0.00    +0.000 NA
ATOM      4  C   UNL     1       2.221   4.520  18.553  0.00  0.00    +0.000 A 
ATOM      5  C   UNL     1       1.212   3.905  19.299  0.00  0.00    +0.000 A 
ATOM      6  C   UNL     1       1.133   2.512  19.373  0.00  0.00    +0.000 A 
ATOM      7  C   UNL     1       2.066   1.717  18.705  0.00  0.00    +0.000 A 
ATOM      8  C   UNL     1       3.100   2.325  17.994  0.00  0.00    +0.000 A 
ATOM      9  C   UNL     1       3.174   3.720  17.940  0.00  0.00    +0.000 A 
ATOM     10  C   UNL     1       4.298   4.391  17.280  0.00  0.00    +0.000 A 
ATOM     11  O   UNL     1       5.222   3.692  16.864  0.00  0.00    +0.000 OA
ENDROOT
BRANCH   1  12
ATOM     12  C   UNL     1       5.448   6.408  16.592  0.00  0.00    +0.000 C 
BRANCH  12  13
ATOM     13  C   UNL     1       6.604   6.604  17.583  0.00  0.00    +0.000 C 
BRANCH  13  14
ATOM     14  C   UNL     1       7.540   7.726  17.142  0.00  0.00    +0.000 C 
BRANCH  14  15
ATOM     15  O   UNL     1       8.191   8.274  18.288  0.00  0.00    +0.000 OA
BRANCH  15  17
ATOM     16  C   UNL     1       9.281  10.129  19.327  0.00  0.00    +0.000 C 
ATOM     17  C   UNL     1       8.487   9.658  18.124  0.00  0.00    +0.000 C 
ENDBRANCH  15  17
ENDBRANCH  14  15
ENDBRANCH  13  14
ENDBRANCH  12  13
ENDBRANCH   1  12
BRANCH   2  18
ATOM     18  S   UNL     1       3.253   8.232  17.769  0.00  0.00    +0.000 S 
BRANCH  18  19
ATOM     19  C   UNL     1       1.494   8.653  17.634  0.00  0.00    +0.000 C 
BRANCH  19  20
ATOM     20  C   UNL     1       0.949   9.643  18.655  0.00  0.00    +0.000 C 
ATOM     21  O   UNL     1       1.122   9.406  19.850  0.00  0.00    +0.000 OA
ATOM     22  N   UNL     1       0.227  10.708  18.148  0.00  0.00    +0.000 N 
ATOM     23  H   UNL     1       0.029  10.677  17.157  0.00  0.00    +0.000 HD
BRANCH  22  24
ATOM     24  C   UNL     1      -0.345  11.762  18.879  0.00  0.00    +0.000 A 
ATOM     25  C   UNL     1       0.298  12.979  19.080  0.00  0.00    +0.000 A 
ATOM     26  C   UNL     1      -0.221  13.918  19.970  0.00  0.00    +0.000 A 
ATOM     27  C   UNL     1      -1.396  13.657  20.669  0.00  0.00    +0.000 A 
ATOM     28  C   UNL     1      -2.115  12.494  20.368  0.00  0.00    +0.000 A 
ATOM     29  C   UNL     1      -1.598  11.558  19.462  0.00  0.00    +0.000 A 
BRANCH  27  30
ATOM     30  N   UNL     1      -1.849  14.469  21.730  0.00  0.00    +0.000 N 
ATOM     31  C   UNL     1      -1.563  14.292  23.073  0.00  0.00    +0.000 C 
ATOM     32  C   UNL     1      -2.440  15.114  23.977  0.00  0.00    +0.000 C 
ATOM     33  O   UNL     1      -0.689  13.574  23.549  0.00  0.00    +0.000 OA
ATOM     34  H   UNL     1      -2.492  15.212  21.485  0.00  0.00    +0.000 HD
ENDBRANCH  27  30
ENDBRANCH  22  24
ENDBRANCH  19  20
ENDBRANCH  18  19
ENDBRANCH   2  18
TORSDOF 10
ENDMDL
MODEL 8
REMARK VINA RESULT:      -7.1      6.608     10.046
REMARK  Name = 
REMARK  12 active torsions:
REMARK  status: ('A' for Active; 'I' for Inactive)
REMARK    1  A    between atoms: C_1  and  C_2
REMARK    2  A    between atoms: C_2  and  O_3
REMARK    3  A    between atoms: O_3  and  C_4
REMARK    4  A    between atoms: C_4  and  C_5
REMARK    5  A    between atoms: C_5  and  C_6
REMARK    6  A    between atoms: C_6  and  N_7
REMARK    7  A    between atoms: C_8  and  S_9
REMARK    8  A    between atoms: S_9  and  C_10
REMARK    9  A    between atoms: C_10  and  C_11
REMARK   10  A    between atoms: N_13  and  C_14
REMARK   11  A    between atoms: C_17  and  N_18
REMARK   12  A    between atoms: C_19  and  C_20
REMARK                            x       y       z     vdW  Elec       q    Type
REMARK                         _______ _______ _______ _____ _____    ______ ____
ROOT
ATOM      1  N   UNL     1       3.732   5.648  17.556  0.00  0.00    +0.000 N 
ATOM      2  C   UNL     1       2.791   6.407  18.229  0.00  0.00    +0.000 A 
ATOM      3  N   UNL     1       1.940   5.930  19.078  0.00  0.00    +0.000 NA
ATOM      4  C   UNL     1       1.962   4.563  19.361  0.00  0.00    +0.000 A 
ATOM      5  C   UNL     1       1.099   4.048  20.332  0.00  0.00    +0.000 A 
ATOM      6  C   UNL     1       1.064   2.676  20.594  0.00  0.00    +0.000 A 
ATOM      7  C   UNL     1       1.896   1.803  19.891  0.00  0.00    +0.000 A 
ATOM      8  C   UNL     1       2.790   2.316  18.952  0.00  0.00    +0.000 A 
ATOM      9  C   UNL     1       2.822   3.693  18.710  0.00  0.00    +0.000 A 
ATOM     10  C   UNL     1       3.811   4.276  17.798  0.00  0.00    +0.000 A 
ATOM     11  O   UNL     1       4.673   3.531  17.331  0.00  0.00    +0.000 OA
ENDROOT
BRANCH   1  12
ATOM     12  C   UNL     1       4.792   6.190  16.684  0.00  0.00    +0.000 C 
BRANCH  12  13
ATOM     13  C   UNL     1       6.114   6.430  17.425  0.00  0.00    +0.000 C 
BRANCH  13  14
ATOM     14  C   UNL     1       7.318   6.213  16.513  0.00  0.00    +0.000 C 
BRANCH  14  15
ATOM     15  O   UNL     1       7.282   4.885  15.992  0.00  0.00    +0.000 OA
BRANCH  15  17
ATOM     16  C   UNL     1       6.134   3.881  14.152  0.00  0.00    +0.000 C 
ATOM     17  C   UNL     1       7.206   4.870  14.569  0.00  0.00    +0.000 C 
ENDBRANCH  15  17
ENDBRANCH  14  15
ENDBRANCH  13  14
ENDBRANCH  12  13
ENDBRANCH   1  12
BRANCH   2  18
ATOM     18  S   UNL     1       2.771   8.145  17.958  0.00  0.00    +0.000 S 
BRANCH  18  19
ATOM     19  C   UNL     1       1.741   8.748  19.324  0.00  0.00    +0.000 C 
BRANCH  19  20
ATOM     20  C   UNL     1       0.725   9.831  18.986  0.00  0.00    +0.000 C 
ATOM     21  O   UNL     1       0.806  10.388  17.891  0.00  0.00    +0.000 OA
ATOM     22  N   UNL     1      -0.175  10.157  19.983  0.00  0.00    +0.000 N 
ATOM     23  H   UNL     1      -0.012   9.729  20.884  0.00  0.00    +0.000 HD
BRANCH  22  24
ATOM     24  C   UNL     1      -1.220  11.092  19.902  0.00  0.00    +0.000 A 
ATOM     25  C   UNL     1      -1.480  12.023  20.902  0.00  0.00    +0.000 A 
ATOM     26  C   UNL     1      -2.639  12.798  20.867  0.00  0.00    +0.000 A 
ATOM     27  C   UNL     1      -3.554  12.657  19.828  0.00  0.00    +0.000 A 
ATOM     28  C   UNL     1      -3.230  11.820  18.754  0.00  0.00    +0.000 A 
ATOM     29  C   UNL     1      -2.057  11.053  18.784  0.00  0.00    +0.000 A 
BRANCH  27  30
ATOM     30  N   UNL     1      -4.833  13.252  19.851  0.00  0.00    +0.000 N 
ATOM     31  C   UNL     1      -5.950  12.760  20.504  0.00  0.00    +0.000 C 
ATOM     32  C   UNL     1      -7.226  13.436  20.082  0.00  0.00    +0.000 C 
ATOM     33  O   UNL     1      -5.972  11.884  21.362  0.00  0.00    +0.000 OA
ATOM     34  H   UNL     1      -4.953  14.082  19.284  0.00  0.00    +0.000 HD
ENDBRANCH  27  30
ENDBRANCH  22  24
ENDBRANCH  19  20
ENDBRANCH  18  19
ENDBRANCH   2  18
TORSDOF 10
ENDMDL
MODEL 9
REMARK VINA RESULT:      -7.1      6.645      8.932
REMARK  Name = 
REMARK  12 active torsions:
REMARK  status: ('A' for Active; 'I' for Inactive)
REMARK    1  A    between atoms: C_1  and  C_2
REMARK    2  A    between atoms: C_2  and  O_3
REMARK    3  A    between atoms: O_3  and  C_4
REMARK    4  A    between atoms: C_4  and  C_5
REMARK    5  A    between atoms: C_5  and  C_6
REMARK    6  A    between atoms: C_6  and  N_7
REMARK    7  A    between atoms: C_8  and  S_9
REMARK    8  A    between atoms: S_9  and  C_10
REMARK    9  A    between atoms: C_10  and  C_11
REMARK   10  A    between atoms: N_13  and  C_14
REMARK   11  A    between atoms: C_17  and  N_18
REMARK   12  A    between atoms: C_19  and  C_20
REMARK                            x       y       z     vdW  Elec       q    Type
REMARK                         _______ _______ _______ _____ _____    ______ ____
ROOT
ATOM      1  N   UNL     1       3.514   5.108  19.934  0.00  0.00    +0.000 N 
ATOM      2  C   UNL     1       3.066   6.302  19.397  0.00  0.00    +0.000 A 
ATOM      3  N   UNL     1       3.482   6.802  18.279  0.00  0.00    +0.000 NA
ATOM      4  C   UNL     1       4.436   6.102  17.539  0.00  0.00    +0.000 A 
ATOM      5  C   UNL     1       4.838   6.593  16.294  0.00  0.00    +0.000 A 
ATOM      6  C   UNL     1       5.831   5.939  15.560  0.00  0.00    +0.000 A 
ATOM      7  C   UNL     1       6.431   4.783  16.062  0.00  0.00    +0.000 A 
ATOM      8  C   UNL     1       6.004   4.264  17.283  0.00  0.00    +0.000 A 
ATOM      9  C   UNL     1       5.000   4.922  18.000  0.00  0.00    +0.000 A 
ATOM     10  C   UNL     1       4.463   4.356  19.241  0.00  0.00    +0.000 A 
ATOM     11  O   UNL     1       4.853   3.237  19.578  0.00  0.00    +0.000 OA
ENDROOT
BRANCH   1  12
ATOM     12  C   UNL     1       2.962   4.460  21.138  0.00  0.00    +0.000 C 
BRANCH  12  13
ATOM     13  C   UNL     1       1.530   3.945  20.939  0.00  0.00    +0.000 C 
BRANCH  13  14
ATOM     14  C   UNL     1       1.513   2.499  20.453  0.00  0.00    +0.000 C 
BRANCH  14  15
ATOM     15  O   UNL     1       0.815   2.427  19.210  0.00  0.00    +0.000 OA
BRANCH  15  17
ATOM     16  C   UNL     1       1.405   3.861  17.392  0.00  0.00    +0.000 C 
ATOM     17  C   UNL     1       1.694   2.548  18.095  0.00  0.00    +0.000 C 
ENDBRANCH  15  17
ENDBRANCH  14  15
ENDBRANCH  13  14
ENDBRANCH  12  13
ENDBRANCH   1  12
BRANCH   2  18
ATOM     18  S   UNL     1       1.812   7.186  20.258  0.00  0.00    +0.000 S 
BRANCH  18  19
ATOM     19  C   UNL     1       1.642   8.698  19.270  0.00  0.00    +0.000 C 
BRANCH  19  20
ATOM     20  C   UNL     1       0.585   9.695  19.725  0.00  0.00    +0.000 C 
ATOM     21  O   UNL     1      -0.246  10.083  18.903  0.00  0.00    +0.000 OA
ATOM     22  N   UNL     1       0.692  10.148  21.027  0.00  0.00    +0.000 N 
ATOM     23  H   UNL     1       1.523   9.865  21.528  0.00  0.00    +0.000 HD
BRANCH  22  24
ATOM     24  C   UNL     1      -0.174  11.038  21.684  0.00  0.00    +0.000 A 
ATOM     25  C   UNL     1      -0.913  10.683  22.807  0.00  0.00    +0.000 A 
ATOM     26  C   UNL     1      -1.900  11.533  23.305  0.00  0.00    +0.000 A 
ATOM     27  C   UNL     1      -2.159  12.755  22.690  0.00  0.00    +0.000 A 
ATOM     28  C   UNL     1      -1.327  13.172  21.644  0.00  0.00    +0.000 A 
ATOM     29  C   UNL     1      -0.326  12.322  21.154  0.00  0.00    +0.000 A 
BRANCH  27  30
ATOM     30  N   UNL     1      -3.277  13.551  23.016  0.00  0.00    +0.000 N 
ATOM     31  C   UNL     1      -4.573  13.361  22.568  0.00  0.00    +0.000 C 
ATOM     32  C   UNL     1      -5.467  14.544  22.824  0.00  0.00    +0.000 C 
ATOM     33  O   UNL     1      -5.023  12.355  22.030  0.00  0.00    +0.000 OA
ATOM     34  H   UNL     1      -3.095  14.372  23.580  0.00  0.00    +0.000 HD
ENDBRANCH  27  30
ENDBRANCH  22  24
ENDBRANCH  19  20
ENDBRANCH  18  19
ENDBRANCH   2  18
TORSDOF 10
ENDMDL
