MODEL 1
REMARK VINA RESULT:      -7.5      0.000      0.000
REMARK  Name = 
REMARK  10 active torsions:
REMARK  status: ('A' for Active; 'I' for Inactive)
REMARK    1  A    between atoms: C_1  and  O_2
REMARK    2  A    between atoms: O_2  and  C_3
REMARK    3  A    between atoms: C_6  and  N_7
REMARK    4  A    between atoms: C_8  and  C_10
REMARK    5  A    between atoms: C_10  and  C_11
REMARK    6  A    between atoms: C_11  and  O_12
REMARK    7  A    between atoms: O_12  and  C_13
REMARK    8  A    between atoms: C_16  and  C_17
REMARK    9  A    between atoms: C_21  and  S_22
REMARK   10  A    between atoms: S_22  and  N_25
REMARK                            x       y       z     vdW  Elec       q    Type
REMARK                         _______ _______ _______ _____ _____    ______ ____
ROOT
ATOM      1  C   UNL     1       1.333   8.516  20.561  0.00  0.00    +0.000 A 
ATOM      2  C   UNL     1       1.787   7.208  20.792  0.00  0.00    +0.000 A 
ATOM      3  C   UNL     1       2.368   6.450  19.793  0.00  0.00    +0.000 A 
ATOM      4  C   UNL     1       2.610   7.013  18.555  0.00  0.00    +0.000 A 
ATOM      5  C   UNL     1       2.205   8.325  18.308  0.00  0.00    +0.000 A 
ATOM      6  C   UNL     1       1.566   9.090  19.309  0.00  0.00    +0.000 A 
ENDROOT
BRANCH   4   7
ATOM      7  N   UNL     1       3.236   6.289  17.533  0.00  0.00    +0.000 N 
ATOM      8  C   UNL     1       4.597   6.282  17.242  0.00  0.00    +0.000 C 
ATOM      9  O   UNL     1       5.444   6.994  17.781  0.00  0.00    +0.000 OA
ATOM     10  H   UNL     1       2.586   5.813  16.926  0.00  0.00    +0.000 HD
BRANCH   8  11
ATOM     11  C   UNL     1       5.047   5.321  16.161  0.00  0.00    +0.000 C 
BRANCH  11  12
ATOM     12  C   UNL     1       5.016   3.884  16.619  0.00  0.00    +0.000 C 
BRANCH  12  13
ATOM     13  O   UNL     1       3.708   3.347  16.603  0.00  0.00    +0.000 OA
BRANCH  13  14
ATOM     14  C   UNL     1       3.235   3.142  17.878  0.00  0.00    +0.000 A 
ATOM     15  C   UNL     1       1.859   3.105  17.995  0.00  0.00    +0.000 A 
ATOM     16  C   UNL     1       1.274   2.916  19.253  0.00  0.00    +0.000 A 
ATOM     17  C   UNL     1       2.071   2.765  20.396  0.00  0.00    +0.000 A 
ATOM     18  C   UNL     1       1.455   2.543  21.745  0.00  0.00    +0.000 C 
ATOM     19  C   UNL     1       3.458   2.805  20.266  0.00  0.00    +0.000 A 
ATOM     20  C   UNL     1       4.044   2.991  19.014  0.00  0.00    +0.000 A 
ENDBRANCH  13  14
ENDBRANCH  12  13
ENDBRANCH  11  12
ENDBRANCH   8  11
ENDBRANCH   4   7
BRANCH   6  21
ATOM     21  S   UNL     1       1.100  10.728  18.783  0.00  0.00    +0.000 S 
ATOM     22  O   UNL     1       1.436  11.598  19.894  0.00  0.00    +0.000 OA
ATOM     23  O   UNL     1       1.743  10.910  17.495  0.00  0.00    +0.000 OA
BRANCH  21  24
ATOM     24  N   UNL     1      -0.569  10.822  18.545  0.00  0.00    +0.000 NA
ATOM     25  C   UNL     1      -1.355  11.648  19.465  0.00  0.00    +0.000 C 
ATOM     26  C   UNL     1      -2.790  11.943  19.050  0.00  0.00    +0.000 C 
ATOM     27  C   UNL     1      -3.238  11.399  17.708  0.00  0.00    +0.000 C 
ATOM     28  C   UNL     1      -2.684  10.018  17.440  0.00  0.00    +0.000 C 
ATOM     29  C   UNL     1      -1.172   9.928  17.554  0.00  0.00    +0.000 C 
ENDBRANCH  21  24
ENDBRANCH   6  21
BRANCH   1  31
ATOM     30  C   UNL     1      -0.590   8.585  21.897  0.00  0.00    +0.000 C 
ATOM     31  O   UNL     1       0.659   9.189  21.540  0.00  0.00    +0.000 OA
ENDBRANCH   1  31
TORSDOF 8
ENDMDL
MODEL 2
REMARK VINA RESULT:      -7.4      2.769      7.995
REMARK  Name = 
REMARK  10 active torsions:
REMARK  status: ('A' for Active; 'I' for Inactive)
REMARK    1  A    between atoms: C_1  and  O_2
REMARK    2  A    between atoms: O_2  and  C_3
REMARK    3  A    between atoms: C_6  and  N_7
REMARK    4  A    between atoms: C_8  and  C_10
REMARK    5  A    between atoms: C_10  and  C_11
REMARK    6  A    between atoms: C_11  and  O_12
REMARK    7  A    between atoms: O_12  and  C_13
REMARK    8  A    between atoms: C_16  and  C_17
REMARK    9  A    between atoms: C_21  and  S_22
REMARK   10  A    between atoms: S_22  and  N_25
REMARK                            x       y       z     vdW  Elec       q    Type
REMARK                         _______ _______ _______ _____ _____    ______ ____
ROOT
ATOM      1  C   UNL     1       2.394   4.063  20.214  0.00  0.00    +0.000 A 
ATOM      2  C   UNL     1       1.362   4.875  20.706  0.00  0.00    +0.000 A 
ATOM      3  C   UNL     1       1.348   6.242  20.501  0.00  0.00    +0.000 A 
ATOM      4  C   UNL     1       2.312   6.828  19.703  0.00  0.00    +0.000 A 
ATOM      5  C   UNL     1       3.330   6.038  19.166  0.00  0.00    +0.000 A 
ATOM      6  C   UNL     1       3.378   4.647  19.413  0.00  0.00    +0.000 A 
ENDROOT
BRANCH   4   7
ATOM      7  N   UNL     1       2.305   8.202  19.437  0.00  0.00    +0.000 N 
ATOM      8  C   UNL     1       2.132   8.799  18.192  0.00  0.00    +0.000 C 
ATOM      9  O   UNL     1       2.060   8.201  17.119  0.00  0.00    +0.000 OA
ATOM     10  H   UNL     1       2.537   8.765  20.240  0.00  0.00    +0.000 HD
BRANCH   8  11
ATOM     11  C   UNL     1       2.041  10.311  18.180  0.00  0.00    +0.000 C 
BRANCH  11  12
ATOM     12  C   UNL     1       0.740  10.814  18.752  0.00  0.00    +0.000 C 
BRANCH  12  13
ATOM     13  O   UNL     1       0.179   9.907  19.680  0.00  0.00    +0.000 OA
BRANCH  13  14
ATOM     14  C   UNL     1      -0.506  10.567  20.674  0.00  0.00    +0.000 A 
ATOM     15  C   UNL     1      -1.319  11.598  20.242  0.00  0.00    +0.000 A 
ATOM     16  C   UNL     1      -2.049  12.344  21.174  0.00  0.00    +0.000 A 
ATOM     17  C   UNL     1      -1.963  12.057  22.543  0.00  0.00    +0.000 A 
ATOM     18  C   UNL     1      -2.756  12.837  23.548  0.00  0.00    +0.000 C 
ATOM     19  C   UNL     1      -1.141  11.016  22.968  0.00  0.00    +0.000 A 
ATOM     20  C   UNL     1      -0.413  10.269  22.041  0.00  0.00    +0.000 A 
ENDBRANCH  13  14
ENDBRANCH  12  13
ENDBRANCH  11  12
ENDBRANCH   8  11
ENDBRANCH   4   7
BRANCH   6  21
ATOM     21  S   UNL     1       4.772   3.826  18.666  0.00  0.00    +0.000 S 
ATOM     22  O   UNL     1       5.317   2.973  19.704  0.00  0.00    +0.000 OA
ATOM     23  O   UNL     1       4.258   3.244  17.440  0.00  0.00    +0.000 OA
BRANCH  21  24
ATOM     24  N   UNL     1       5.964   4.946  18.244  0.00  0.00    +0.000 NA
ATOM     25  C   UNL     1       6.176   5.231  16.823  0.00  0.00    +0.000 C 
ATOM     26  C   UNL     1       7.038   6.443  16.497  0.00  0.00    +0.000 C 
ATOM     27  C   UNL     1       7.540   7.258  17.672  0.00  0.00    +0.000 C 
ATOM     28  C   UNL     1       7.942   6.386  18.841  0.00  0.00    +0.000 C 
ATOM     29  C   UNL     1       6.852   5.434  19.301  0.00  0.00    +0.000 C 
ENDBRANCH  21  24
ENDBRANCH   6  21
BRANCH   1  31
ATOM     30  C   UNL     1       1.623   2.397  21.669  0.00  0.00    +0.000 C 
ATOM     31  O   UNL     1       2.434   2.736  20.538  0.00  0.00    +0.000 OA
ENDBRANCH   1  31
TORSDOF 8
ENDMDL
MODEL 3
REMARK VINA RESULT:      -7.3      1.885      4.195
REMARK  Name = 
REMARK  10 active torsions:
REMARK  status: ('A' for Active; 'I' for Inactive)
REMARK    1  A    between atoms: C_1  and  O_2
REMARK    2  A    between atoms: O_2  and  C_3
REMARK    3  A    between atoms: C_6  and  N_7
REMARK    4  A    between atoms: C_8  and  C_10
REMARK    5  A    between atoms: C_10  and  C_11
REMARK    6  A    between atoms: C_11  and  O_12
REMARK    7  A    between atoms: O_12  and  C_13
REMARK    8  A    between atoms: C_16  and  C_17
REMARK    9  A    between atoms: C_21  and  S_22
REMARK   10  A    between atoms: S_22  and  N_25
REMARK                            x       y       z     vdW  Elec       q    Type
REMARK                         _______ _______ _______ _____ _____    ______ ____
ROOT
ATOM      1  C   UNL     1       1.559   9.251  18.767  0.00  0.00    +0.000 A 
ATOM      2  C   UNL     1       2.260   8.395  17.903  0.00  0.00    +0.000 A 
ATOM      3  C   UNL     1       2.782   7.190  18.335  0.00  0.00    +0.000 A 
ATOM      4  C   UNL     1       2.528   6.752  19.620  0.00  0.00    +0.000 A 
ATOM      5  C   UNL     1       1.800   7.565  20.491  0.00  0.00    +0.000 A 
ATOM      6  C   UNL     1       1.305   8.821  20.071  0.00  0.00    +0.000 A 
ENDROOT
BRANCH   4   7
ATOM      7  N   UNL     1       3.003   5.518  20.079  0.00  0.00    +0.000 N 
ATOM      8  C   UNL     1       2.292   4.322  20.111  0.00  0.00    +0.000 C 
ATOM      9  O   UNL     1       1.100   4.194  19.833  0.00  0.00    +0.000 OA
ATOM     10  H   UNL     1       3.920   5.572  20.494  0.00  0.00    +0.000 HD
BRANCH   8  11
ATOM     11  C   UNL     1       3.066   3.092  20.540  0.00  0.00    +0.000 C 
BRANCH  11  12
ATOM     12  C   UNL     1       4.181   2.751  19.583  0.00  0.00    +0.000 C 
BRANCH  12  13
ATOM     13  O   UNL     1       5.141   3.786  19.492  0.00  0.00    +0.000 OA
BRANCH  13  14
ATOM     14  C   UNL     1       5.488   4.033  18.184  0.00  0.00    +0.000 A 
ATOM     15  C   UNL     1       6.774   4.504  17.996  0.00  0.00    +0.000 A 
ATOM     16  C   UNL     1       7.222   4.802  16.704  0.00  0.00    +0.000 A 
ATOM     17  C   UNL     1       6.380   4.629  15.598  0.00  0.00    +0.000 A 
ATOM     18  C   UNL     1       6.856   4.926  14.209  0.00  0.00    +0.000 C 
ATOM     19  C   UNL     1       5.085   4.155  15.799  0.00  0.00    +0.000 A 
ATOM     20  C   UNL     1       4.635   3.855  17.085  0.00  0.00    +0.000 A 
ENDBRANCH  13  14
ENDBRANCH  12  13
ENDBRANCH  11  12
ENDBRANCH   8  11
ENDBRANCH   4   7
BRANCH   6  21
ATOM     21  S   UNL     1       0.432   9.716  21.340  0.00  0.00    +0.000 S 
ATOM     22  O   UNL     1      -0.641   8.836  21.761  0.00  0.00    +0.000 OA
ATOM     23  O   UNL     1       1.452  10.125  22.287  0.00  0.00    +0.000 OA
BRANCH  21  24
ATOM     24  N   UNL     1      -0.271  11.114  20.703  0.00  0.00    +0.000 NA
ATOM     25  C   UNL     1      -1.393  10.963  19.773  0.00  0.00    +0.000 C 
ATOM     26  C   UNL     1      -2.181  12.227  19.454  0.00  0.00    +0.000 C 
ATOM     27  C   UNL     1      -1.758  13.493  20.171  0.00  0.00    +0.000 C 
ATOM     28  C   UNL     1      -0.255  13.599  20.302  0.00  0.00    +0.000 C 
ATOM     29  C   UNL     1       0.392  12.393  20.960  0.00  0.00    +0.000 C 
ENDBRANCH  21  24
ENDBRANCH   6  21
BRANCH   1  31
ATOM     30  C   UNL     1       2.251  11.371  18.048  0.00  0.00    +0.000 C 
ATOM     31  O   UNL     1       1.162  10.485  18.333  0.00  0.00    +0.000 OA
ENDBRANCH   1  31
TORSDOF 8
ENDMDL
MODEL 4
REMARK VINA RESULT:      -7.1      0.322      1.313
REMARK  Name = 
REMARK  10 active torsions:
REMARK  status: ('A' for Active; 'I' for Inactive)
REMARK    1  A    between atoms: C_1  and  O_2
REMARK    2  A    between atoms: O_2  and  C_3
REMARK    3  A    between atoms: C_6  and  N_7
REMARK    4  A    between atoms: C_8  and  C_10
REMARK    5  A    between atoms: C_10  and  C_11
REMARK    6  A    between atoms: C_11  and  O_12
REMARK    7  A    between atoms: O_12  and  C_13
REMARK    8  A    between atoms: C_16  and  C_17
REMARK    9  A    between atoms: C_21  and  S_22
REMARK   10  A    between atoms: S_22  and  N_25
REMARK                            x       y       z     vdW  Elec       q    Type
REMARK                         _______ _______ _______ _____ _____    ______ ____
ROOT
ATOM      1  C   UNL     1       1.252   8.611  20.619  0.00  0.00    +0.000 A 
ATOM      2  C   UNL     1       1.676   7.300  20.886  0.00  0.00    +0.000 A 
ATOM      3  C   UNL     1       2.259   6.509  19.913  0.00  0.00    +0.000 A 
ATOM      4  C   UNL     1       2.533   7.041  18.668  0.00  0.00    +0.000 A 
ATOM      5  C   UNL     1       2.158   8.355  18.386  0.00  0.00    +0.000 A 
ATOM      6  C   UNL     1       1.517   9.154  19.359  0.00  0.00    +0.000 A 
ENDROOT
BRANCH   4   7
ATOM      7  N   UNL     1       3.162   6.284  17.672  0.00  0.00    +0.000 N 
ATOM      8  C   UNL     1       4.534   6.163  17.471  0.00  0.00    +0.000 C 
ATOM      9  O   UNL     1       5.400   6.789  18.080  0.00  0.00    +0.000 OA
ATOM     10  H   UNL     1       2.516   5.877  17.013  0.00  0.00    +0.000 HD
BRANCH   8  11
ATOM     11  C   UNL     1       4.972   5.186  16.399  0.00  0.00    +0.000 C 
BRANCH  11  12
ATOM     12  C   UNL     1       4.786   3.750  16.820  0.00  0.00    +0.000 C 
BRANCH  12  13
ATOM     13  O   UNL     1       3.440   3.330  16.709  0.00  0.00    +0.000 OA
BRANCH  13  14
ATOM     14  C   UNL     1       2.867   3.154  17.947  0.00  0.00    +0.000 A 
ATOM     15  C   UNL     1       3.758   2.935  18.981  0.00  0.00    +0.000 A 
ATOM     16  C   UNL     1       3.278   2.728  20.279  0.00  0.00    +0.000 A 
ATOM     17  C   UNL     1       1.901   2.741  20.542  0.00  0.00    +0.000 A 
ATOM     18  C   UNL     1       1.377   2.540  21.932  0.00  0.00    +0.000 C 
ATOM     19  C   UNL     1       1.012   2.963  19.493  0.00  0.00    +0.000 A 
ATOM     20  C   UNL     1       1.487   3.170  18.197  0.00  0.00    +0.000 A 
ENDBRANCH  13  14
ENDBRANCH  12  13
ENDBRANCH  11  12
ENDBRANCH   8  11
ENDBRANCH   4   7
BRANCH   6  21
ATOM     21  S   UNL     1       1.092  10.788  18.791  0.00  0.00    +0.000 S 
ATOM     22  O   UNL     1       1.313  11.660  19.929  0.00  0.00    +0.000 OA
ATOM     23  O   UNL     1       1.855  10.977  17.571  0.00  0.00    +0.000 OA
BRANCH  21  24
ATOM     24  N   UNL     1      -0.547  10.870  18.392  0.00  0.00    +0.000 NA
ATOM     25  C   UNL     1      -1.056   9.963  17.362  0.00  0.00    +0.000 C 
ATOM     26  C   UNL     1      -2.570   9.860  17.240  0.00  0.00    +0.000 C 
ATOM     27  C   UNL     1      -3.391  10.662  18.230  0.00  0.00    +0.000 C 
ATOM     28  C   UNL     1      -2.785  12.020  18.504  0.00  0.00    +0.000 C 
ATOM     29  C   UNL     1      -1.336  11.968  18.957  0.00  0.00    +0.000 C 
ENDBRANCH  21  24
ENDBRANCH   6  21
BRANCH   1  31
ATOM     30  C   UNL     1      -0.495   8.583  22.179  0.00  0.00    +0.000 C 
ATOM     31  O   UNL     1       0.574   9.318  21.572  0.00  0.00    +0.000 OA
ENDBRANCH   1  31
TORSDOF 8
ENDMDL
MODEL 5
REMARK VINA RESULT:      -7.1      2.494      8.104
REMARK  Name = 
REMARK  10 active torsions:
REMARK  status: ('A' for Active; 'I' for Inactive)
REMARK    1  A    between atoms: C_1  and  O_2
REMARK    2  A    between atoms: O_2  and  C_3
REMARK    3  A    between atoms: C_6  and  N_7
REMARK    4  A    between atoms: C_8  and  C_10
REMARK    5  A    between atoms: C_10  and  C_11
REMARK    6  A    between atoms: C_11  and  O_12
REMARK    7  A    between atoms: O_12  and  C_13
REMARK    8  A    between atoms: C_16  and  C_17
REMARK    9  A    between atoms: C_21  and  S_22
REMARK   10  A    between atoms: S_22  and  N_25
REMARK                            x       y       z     vdW  Elec       q    Type
REMARK                         _______ _______ _______ _____ _____    ______ ____
ROOT
ATOM      1  C   UNL     1       2.284   3.947  20.147  0.00  0.00    +0.000 A 
ATOM      2  C   UNL     1       1.235   4.753  20.616  0.00  0.00    +0.000 A 
ATOM      3  C   UNL     1       1.231   6.123  20.436  0.00  0.00    +0.000 A 
ATOM      4  C   UNL     1       2.225   6.722  19.686  0.00  0.00    +0.000 A 
ATOM      5  C   UNL     1       3.261   5.939  19.172  0.00  0.00    +0.000 A 
ATOM      6  C   UNL     1       3.298   4.544  19.394  0.00  0.00    +0.000 A 
ENDROOT
BRANCH   4   7
ATOM      7  N   UNL     1       2.230   8.100  19.445  0.00  0.00    +0.000 N 
ATOM      8  C   UNL     1       2.180   8.720  18.200  0.00  0.00    +0.000 C 
ATOM      9  O   UNL     1       2.228   8.142  17.115  0.00  0.00    +0.000 OA
ATOM     10  H   UNL     1       2.369   8.650  20.279  0.00  0.00    +0.000 HD
BRANCH   8  11
ATOM     11  C   UNL     1       2.074  10.231  18.206  0.00  0.00    +0.000 C 
BRANCH  11  12
ATOM     12  C   UNL     1       1.005  10.729  19.146  0.00  0.00    +0.000 C 
BRANCH  12  13
ATOM     13  O   UNL     1       0.268  11.804  18.597  0.00  0.00    +0.000 OA
BRANCH  13  14
ATOM     14  C   UNL     1      -1.054  11.467  18.421  0.00  0.00    +0.000 A 
ATOM     15  C   UNL     1      -1.959  12.285  19.069  0.00  0.00    +0.000 A 
ATOM     16  C   UNL     1      -3.330  12.020  18.968  0.00  0.00    +0.000 A 
ATOM     17  C   UNL     1      -3.794  10.932  18.217  0.00  0.00    +0.000 A 
ATOM     18  C   UNL     1      -5.261  10.651  18.087  0.00  0.00    +0.000 C 
ATOM     19  C   UNL     1      -2.872  10.113  17.569  0.00  0.00    +0.000 A 
ATOM     20  C   UNL     1      -1.505  10.374  17.666  0.00  0.00    +0.000 A 
ENDBRANCH  13  14
ENDBRANCH  12  13
ENDBRANCH  11  12
ENDBRANCH   8  11
ENDBRANCH   4   7
BRANCH   6  21
ATOM     21  S   UNL     1       4.717   3.735  18.683  0.00  0.00    +0.000 S 
ATOM     22  O   UNL     1       5.270   2.923  19.750  0.00  0.00    +0.000 OA
ATOM     23  O   UNL     1       4.228   3.107  17.470  0.00  0.00    +0.000 OA
BRANCH  21  24
ATOM     24  N   UNL     1       5.888   4.869  18.242  0.00  0.00    +0.000 NA
ATOM     25  C   UNL     1       6.096   5.131  16.816  0.00  0.00    +0.000 C 
ATOM     26  C   UNL     1       6.936   6.353  16.469  0.00  0.00    +0.000 C 
ATOM     27  C   UNL     1       7.421   7.200  17.629  0.00  0.00    +0.000 C 
ATOM     28  C   UNL     1       7.837   6.357  18.814  0.00  0.00    +0.000 C 
ATOM     29  C   UNL     1       6.765   5.394  19.291  0.00  0.00    +0.000 C 
ENDBRANCH  21  24
ENDBRANCH   6  21
BRANCH   1  31
ATOM     30  C   UNL     1       2.054   2.333  21.828  0.00  0.00    +0.000 C 
ATOM     31  O   UNL     1       2.310   2.614  20.448  0.00  0.00    +0.000 OA
ENDBRANCH   1  31
TORSDOF 8
ENDMDL
MODEL 6
REMARK VINA RESULT:      -7.1      1.937      4.158
REMARK  Name = 
REMARK  10 active torsions:
REMARK  status: ('A' for Active; 'I' for Inactive)
REMARK    1  A    between atoms: C_1  and  O_2
REMARK    2  A    between atoms: O_2  and  C_3
REMARK    3  A    between atoms: C_6  and  N_7
REMARK    4  A    between atoms: C_8  and  C_10
REMARK    5  A    between atoms: C_10  and  C_11
REMARK    6  A    between atoms: C_11  and  O_12
REMARK    7  A    between atoms: O_12  and  C_13
REMARK    8  A    between atoms: C_16  and  C_17
REMARK    9  A    between atoms: C_21  and  S_22
REMARK   10  A    between atoms: S_22  and  N_25
REMARK                            x       y       z     vdW  Elec       q    Type
REMARK                         _______ _______ _______ _____ _____    ______ ____
ROOT
ATOM      1  C   UNL     1       1.491   9.323  18.867  0.00  0.00    +0.000 A 
ATOM      2  C   UNL     1       2.166   8.488  17.964  0.00  0.00    +0.000 A 
ATOM      3  C   UNL     1       2.662   7.254  18.341  0.00  0.00    +0.000 A 
ATOM      4  C   UNL     1       2.404   6.768  19.609  0.00  0.00    +0.000 A 
ATOM      5  C   UNL     1       1.699   7.560  20.517  0.00  0.00    +0.000 A 
ATOM      6  C   UNL     1       1.233   8.843  20.153  0.00  0.00    +0.000 A 
ENDROOT
BRANCH   4   7
ATOM      7  N   UNL     1       2.851   5.504  20.012  0.00  0.00    +0.000 N 
ATOM      8  C   UNL     1       2.311   4.279  19.633  0.00  0.00    +0.000 C 
ATOM      9  O   UNL     1       1.290   4.127  18.964  0.00  0.00    +0.000 OA
ATOM     10  H   UNL     1       3.580   5.543  20.708  0.00  0.00    +0.000 HD
BRANCH   8  11
ATOM     11  C   UNL     1       3.050   3.044  20.108  0.00  0.00    +0.000 C 
BRANCH  11  12
ATOM     12  C   UNL     1       4.445   2.955  19.542  0.00  0.00    +0.000 C 
BRANCH  12  13
ATOM     13  O   UNL     1       4.483   3.274  18.164  0.00  0.00    +0.000 OA
BRANCH  13  14
ATOM     14  C   UNL     1       5.257   4.387  17.930  0.00  0.00    +0.000 A 
ATOM     15  C   UNL     1       6.149   4.705  18.936  0.00  0.00    +0.000 A 
ATOM     16  C   UNL     1       6.973   5.828  18.804  0.00  0.00    +0.000 A 
ATOM     17  C   UNL     1       6.902   6.636  17.661  0.00  0.00    +0.000 A 
ATOM     18  C   UNL     1       7.794   7.830  17.500  0.00  0.00    +0.000 C 
ATOM     19  C   UNL     1       5.999   6.306  16.653  0.00  0.00    +0.000 A 
ATOM     20  C   UNL     1       5.176   5.186  16.780  0.00  0.00    +0.000 A 
ENDBRANCH  13  14
ENDBRANCH  12  13
ENDBRANCH  11  12
ENDBRANCH   8  11
ENDBRANCH   4   7
BRANCH   6  21
ATOM     21  S   UNL     1       0.386   9.705  21.464  0.00  0.00    +0.000 S 
ATOM     22  O   UNL     1      -0.710   8.837  21.847  0.00  0.00    +0.000 OA
ATOM     23  O   UNL     1       1.419  10.042  22.426  0.00  0.00    +0.000 OA
BRANCH  21  24
ATOM     24  N   UNL     1      -0.278  11.149  20.892  0.00  0.00    +0.000 NA
ATOM     25  C   UNL     1      -1.483  11.077  20.064  0.00  0.00    +0.000 C 
ATOM     26  C   UNL     1      -2.213  12.391  19.817  0.00  0.00    +0.000 C 
ATOM     27  C   UNL     1      -1.649  13.622  20.497  0.00  0.00    +0.000 C 
ATOM     28  C   UNL     1      -0.137  13.631  20.496  0.00  0.00    +0.000 C 
ATOM     29  C   UNL     1       0.486  12.382  21.093  0.00  0.00    +0.000 C 
ENDBRANCH  21  24
ENDBRANCH   6  21
BRANCH   1  31
ATOM     30  C   UNL     1       2.216  11.393  18.044  0.00  0.00    +0.000 C 
ATOM     31  O   UNL     1       1.121  10.583  18.488  0.00  0.00    +0.000 OA
ENDBRANCH   1  31
TORSDOF 8
ENDMDL
MODEL 7
REMARK VINA RESULT:      -7.1      1.191      1.899
REMARK  Name = 
REMARK  10 active torsions:
REMARK  status: ('A' for Active; 'I' for Inactive)
REMARK    1  A    between atoms: C_1  and  O_2
REMARK    2  A    between atoms: O_2  and  C_3
REMARK    3  A    between atoms: C_6  and  N_7
REMARK    4  A    between atoms: C_8  and  C_10
REMARK    5  A    between atoms: C_10  and  C_11
REMARK    6  A    between atoms: C_11  and  O_12
REMARK    7  A    between atoms: O_12  and  C_13
REMARK    8  A    between atoms: C_16  and  C_17
REMARK    9  A    between atoms: C_21  and  S_22
REMARK   10  A    between atoms: S_22  and  N_25
REMARK                            x       y       z     vdW  Elec       q    Type
REMARK                         _______ _______ _______ _____ _____    ______ ____
ROOT
ATOM      1  C   UNL     1       1.242   8.640  20.542  0.00  0.00    +0.000 A 
ATOM      2  C   UNL     1       1.797   7.384  20.831  0.00  0.00    +0.000 A 
ATOM      3  C   UNL     1       2.393   6.607  19.856  0.00  0.00    +0.000 A 
ATOM      4  C   UNL     1       2.547   7.107  18.577  0.00  0.00    +0.000 A 
ATOM      5  C   UNL     1       2.040   8.371  18.269  0.00  0.00    +0.000 A 
ATOM      6  C   UNL     1       1.386   9.151  19.250  0.00  0.00    +0.000 A 
ENDROOT
BRANCH   4   7
ATOM      7  N   UNL     1       3.185   6.367  17.574  0.00  0.00    +0.000 N 
ATOM      8  C   UNL     1       4.526   6.452  17.213  0.00  0.00    +0.000 C 
ATOM      9  O   UNL     1       5.332   7.269  17.656  0.00  0.00    +0.000 OA
ATOM     10  H   UNL     1       2.551   5.796  17.036  0.00  0.00    +0.000 HD
BRANCH   8  11
ATOM     11  C   UNL     1       5.007   5.457  16.177  0.00  0.00    +0.000 C 
BRANCH  11  12
ATOM     12  C   UNL     1       4.971   4.037  16.683  0.00  0.00    +0.000 C 
BRANCH  12  13
ATOM     13  O   UNL     1       3.668   3.489  16.645  0.00  0.00    +0.000 OA
BRANCH  13  14
ATOM     14  C   UNL     1       3.184   3.259  17.912  0.00  0.00    +0.000 A 
ATOM     15  C   UNL     1       1.807   3.220  18.017  0.00  0.00    +0.000 A 
ATOM     16  C   UNL     1       1.211   3.007  19.266  0.00  0.00    +0.000 A 
ATOM     17  C   UNL     1       1.998   2.834  20.412  0.00  0.00    +0.000 A 
ATOM     18  C   UNL     1       1.371   2.586  21.751  0.00  0.00    +0.000 C 
ATOM     19  C   UNL     1       3.386   2.877  20.295  0.00  0.00    +0.000 A 
ATOM     20  C   UNL     1       3.983   3.088  19.052  0.00  0.00    +0.000 A 
ENDBRANCH  13  14
ENDBRANCH  12  13
ENDBRANCH  11  12
ENDBRANCH   8  11
ENDBRANCH   4   7
BRANCH   6  21
ATOM     21  S   UNL     1       0.784  10.716  18.647  0.00  0.00    +0.000 S 
ATOM     22  O   UNL     1       1.956  11.414  18.156  0.00  0.00    +0.000 OA
ATOM     23  O   UNL     1      -0.300  10.383  17.740  0.00  0.00    +0.000 OA
BRANCH  21  24
ATOM     24  N   UNL     1       0.136  11.629  19.912  0.00  0.00    +0.000 NA
ATOM     25  C   UNL     1      -1.316  11.608  20.108  0.00  0.00    +0.000 C 
ATOM     26  C   UNL     1      -1.828  12.195  21.417  0.00  0.00    +0.000 C 
ATOM     27  C   UNL     1      -0.785  12.688  22.399  0.00  0.00    +0.000 C 
ATOM     28  C   UNL     1       0.368  13.380  21.707  0.00  0.00    +0.000 C 
ATOM     29  C   UNL     1       1.030  12.541  20.627  0.00  0.00    +0.000 C 
ENDBRANCH  21  24
ENDBRANCH   6  21
BRANCH   1  31
ATOM     30  C   UNL     1      -0.519   8.579  22.085  0.00  0.00    +0.000 C 
ATOM     31  O   UNL     1       0.558   9.324  21.507  0.00  0.00    +0.000 OA
ENDBRANCH   1  31
TORSDOF 8
ENDMDL
MODEL 8
REMARK VINA RESULT:      -7.0      2.488      4.514
REMARK  Name = 
REMARK  10 active torsions:
REMARK  status: ('A' for Active; 'I' for Inactive)
REMARK    1  A    between atoms: C_1  and  O_2
REMARK    2  A    between atoms: O_2  and  C_3
REMARK    3  A    between atoms: C_6  and  N_7
REMARK    4  A    between atoms: C_8  and  C_10
REMARK    5  A    between atoms: C_10  and  C_11
REMARK    6  A    between atoms: C_11  and  O_12
REMARK    7  A    between atoms: O_12  and  C_13
REMARK    8  A    between atoms: C_16  and  C_17
REMARK    9  A    between atoms: C_21  and  S_22
REMARK   10  A    between atoms: S_22  and  N_25
REMARK                            x       y       z     vdW  Elec       q    Type
REMARK                         _______ _______ _______ _____ _____    ______ ____
ROOT
ATOM      1  C   UNL     1       0.844   9.792  18.887  0.00  0.00    +0.000 A 
ATOM      2  C   UNL     1       1.385   8.894  17.954  0.00  0.00    +0.000 A 
ATOM      3  C   UNL     1       2.065   7.756  18.346  0.00  0.00    +0.000 A 
ATOM      4  C   UNL     1       2.135   7.424  19.686  0.00  0.00    +0.000 A 
ATOM      5  C   UNL     1       1.572   8.279  20.634  0.00  0.00    +0.000 A 
ATOM      6  C   UNL     1       0.918   9.469  20.244  0.00  0.00    +0.000 A 
ENDROOT
BRANCH   4   7
ATOM      7  N   UNL     1       2.777   6.257  20.117  0.00  0.00    +0.000 N 
ATOM      8  C   UNL     1       2.170   5.036  20.394  0.00  0.00    +0.000 C 
ATOM      9  O   UNL     1       0.957   4.829  20.397  0.00  0.00    +0.000 OA
ATOM     10  H   UNL     1       3.757   6.391  20.313  0.00  0.00    +0.000 HD
BRANCH   8  11
ATOM     11  C   UNL     1       3.097   3.886  20.730  0.00  0.00    +0.000 C 
BRANCH  11  12
ATOM     12  C   UNL     1       4.019   3.539  19.588  0.00  0.00    +0.000 C 
BRANCH  12  13
ATOM     13  O   UNL     1       5.050   4.494  19.425  0.00  0.00    +0.000 OA
BRANCH  13  14
ATOM     14  C   UNL     1       5.528   4.499  18.135  0.00  0.00    +0.000 A 
ATOM     15  C   UNL     1       4.572   4.312  17.154  0.00  0.00    +0.000 A 
ATOM     16  C   UNL     1       4.955   4.285  15.808  0.00  0.00    +0.000 A 
ATOM     17  C   UNL     1       6.299   4.445  15.445  0.00  0.00    +0.000 A 
ATOM     18  C   UNL     1       6.718   4.438  14.005  0.00  0.00    +0.000 C 
ATOM     19  C   UNL     1       7.254   4.633  16.442  0.00  0.00    +0.000 A 
ATOM     20  C   UNL     1       6.876   4.661  17.785  0.00  0.00    +0.000 A 
ENDBRANCH  13  14
ENDBRANCH  12  13
ENDBRANCH  11  12
ENDBRANCH   8  11
ENDBRANCH   4   7
BRANCH   6  21
ATOM     21  S   UNL     1       0.297  10.436  21.606  0.00  0.00    +0.000 S 
ATOM     22  O   UNL     1      -1.148  10.363  21.501  0.00  0.00    +0.000 OA
ATOM     23  O   UNL     1       0.969   9.912  22.781  0.00  0.00    +0.000 OA
BRANCH  21  24
ATOM     24  N   UNL     1       0.743  12.056  21.436  0.00  0.00    +0.000 NA
ATOM     25  C   UNL     1      -0.230  13.085  21.811  0.00  0.00    +0.000 C 
ATOM     26  C   UNL     1       0.302  14.508  21.924  0.00  0.00    +0.000 C 
ATOM     27  C   UNL     1       1.786  14.702  21.690  0.00  0.00    +0.000 C 
ATOM     28  C   UNL     1       2.306  13.830  20.569  0.00  0.00    +0.000 C 
ATOM     29  C   UNL     1       2.000  12.353  20.746  0.00  0.00    +0.000 C 
ENDBRANCH  21  24
ENDBRANCH   6  21
BRANCH   1  31
ATOM     30  C   UNL     1      -1.082  10.831  18.051  0.00  0.00    +0.000 C 
ATOM     31  O   UNL     1       0.284  10.964  18.462  0.00  0.00    +0.000 OA
ENDBRANCH   1  31
TORSDOF 8
ENDMDL
MODEL 9
REMARK VINA RESULT:      -6.8      2.037      8.035
REMARK  Name = 
REMARK  10 active torsions:
REMARK  status: ('A' for Active; 'I' for Inactive)
REMARK    1  A    between atoms: C_1  and  O_2
REMARK    2  A    between atoms: O_2  and  C_3
REMARK    3  A    between atoms: C_6  and  N_7
REMARK    4  A    between atoms: C_8  and  C_10
REMARK    5  A    between atoms: C_10  and  C_11
REMARK    6  A    between atoms: C_11  and  O_12
REMARK    7  A    between atoms: O_12  and  C_13
REMARK    8  A    between atoms: C_16  and  C_17
REMARK    9  A    between atoms: C_21  and  S_22
REMARK   10  A    between atoms: S_22  and  N_25
REMARK                            x       y       z     vdW  Elec       q    Type
REMARK                         _______ _______ _______ _____ _____    ______ ____
ROOT
ATOM      1  C   UNL     1       4.765   6.458  17.118  0.00  0.00    +0.000 A 
ATOM      2  C   UNL     1       4.370   7.797  16.968  0.00  0.00    +0.000 A 
ATOM      3  C   UNL     1       3.252   8.304  17.602  0.00  0.00    +0.000 A 
ATOM      4  C   UNL     1       2.551   7.515  18.494  0.00  0.00    +0.000 A 
ATOM      5  C   UNL     1       2.944   6.191  18.695  0.00  0.00    +0.000 A 
ATOM      6  C   UNL     1       4.057   5.651  18.011  0.00  0.00    +0.000 A 
ENDROOT
BRANCH   4   7
ATOM      7  N   UNL     1       1.440   8.008  19.189  0.00  0.00    +0.000 N 
ATOM      8  C   UNL     1       1.346   8.198  20.564  0.00  0.00    +0.000 C 
ATOM      9  O   UNL     1       2.195   7.863  21.389  0.00  0.00    +0.000 OA
ATOM     10  H   UNL     1       0.630   8.141  18.603  0.00  0.00    +0.000 HD
BRANCH   8  11
ATOM     11  C   UNL     1       0.078   8.860  21.065  0.00  0.00    +0.000 C 
BRANCH  11  12
ATOM     12  C   UNL     1       0.105  10.358  20.892  0.00  0.00    +0.000 C 
BRANCH  12  13
ATOM     13  O   UNL     1       0.310  10.736  19.545  0.00  0.00    +0.000 OA
BRANCH  13  14
ATOM     14  C   UNL     1      -0.879  10.810  18.859  0.00  0.00    +0.000 A 
ATOM     15  C   UNL     1      -1.804  11.695  19.380  0.00  0.00    +0.000 A 
ATOM     16  C   UNL     1      -3.054  11.835  18.766  0.00  0.00    +0.000 A 
ATOM     17  C   UNL     1      -3.378  11.087  17.626  0.00  0.00    +0.000 A 
ATOM     18  C   UNL     1      -4.705  11.244  16.949  0.00  0.00    +0.000 C 
ATOM     19  C   UNL     1      -2.438  10.198  17.109  0.00  0.00    +0.000 A 
ATOM     20  C   UNL     1      -1.190  10.056  17.718  0.00  0.00    +0.000 A 
ENDBRANCH  13  14
ENDBRANCH  12  13
ENDBRANCH  11  12
ENDBRANCH   8  11
ENDBRANCH   4   7
BRANCH   6  21
ATOM     21  S   UNL     1       4.373   3.937  18.381  0.00  0.00    +0.000 S 
ATOM     22  O   UNL     1       4.345   3.257  17.101  0.00  0.00    +0.000 OA
ATOM     23  O   UNL     1       5.585   3.937  19.179  0.00  0.00    +0.000 OA
BRANCH  21  24
ATOM     24  N   UNL     1       3.131   3.296  19.330  0.00  0.00    +0.000 NA
ATOM     25  C   UNL     1       3.443   2.898  20.704  0.00  0.00    +0.000 C 
ATOM     26  C   UNL     1       2.254   2.607  21.610  0.00  0.00    +0.000 C 
ATOM     27  C   UNL     1       0.876   2.810  21.014  0.00  0.00    +0.000 C 
ATOM     28  C   UNL     1       0.807   2.357  19.572  0.00  0.00    +0.000 C 
ATOM     29  C   UNL     1       1.855   2.993  18.676  0.00  0.00    +0.000 C 
ENDBRANCH  21  24
ENDBRANCH   6  21
BRANCH   1  31
ATOM     30  C   UNL     1       7.091   6.236  16.952  0.00  0.00    +0.000 C 
ATOM     31  O   UNL     1       5.805   5.965  16.382  0.00  0.00    +0.000 OA
ENDBRANCH   1  31
TORSDOF 8
ENDMDL
