MODEL 1
REMARK VINA RESULT:      -6.7      0.000      0.000
REMARK  Name = 
REMARK  3 active torsions:
REMARK  status: ('A' for Active; 'I' for Inactive)
REMARK    1  A    between atoms: C_3  and  C_4
REMARK    2  A    between atoms: C_6  and  C_7
REMARK    3  A    between atoms: C_13  and  C_14
REMARK                            x       y       z     vdW  Elec       q    Type
REMARK                         _______ _______ _______ _____ _____    ______ ____
ROOT
ATOM      1  C   UNL     1       4.086   6.341  17.700  0.00  0.00    +0.000 A 
ATOM      2  C   UNL     1       3.483   7.592  17.815  0.00  0.00    +0.000 A 
ATOM      3  C   UNL     1       2.401   7.769  18.678  0.00  0.00    +0.000 A 
ATOM      4  C   UNL     1       1.932   6.666  19.385  0.00  0.00    +0.000 A 
ATOM      5  C   UNL     1       2.556   5.437  19.204  0.00  0.00    +0.000 A 
ATOM      6  N   UNL     1       3.625   5.264  18.385  0.00  0.00    +0.000 NA
ENDROOT
BRANCH   1   9
ATOM      7  C   UNL     1       6.244   5.150  14.834  0.00  0.00    +0.000 A 
ATOM      8  C   UNL     1       5.122   5.379  15.613  0.00  0.00    +0.000 A 
ATOM      9  C   UNL     1       5.241   6.114  16.806  0.00  0.00    +0.000 A 
ATOM     10  C   UNL     1       6.513   6.606  17.121  0.00  0.00    +0.000 A 
ATOM     11  C   UNL     1       7.579   6.327  16.276  0.00  0.00    +0.000 A 
ATOM     12  N   UNL     1       7.472   5.603  15.143  0.00  0.00    +0.000 NA
ENDBRANCH   1   9
BRANCH   3  13
ATOM     13  C   UNL     1       1.783   9.088  18.810  0.00  0.00    +0.000 A 
ATOM     14  C   UNL     1       2.006  10.235  17.980  0.00  0.00    +0.000 A 
ATOM     15  C   UNL     1       1.301  11.342  18.395  0.00  0.00    +0.000 A 
ATOM     16  S   UNL     1       0.354  11.014  19.778  0.00  0.00    +0.000 S 
ATOM     17  C   UNL     1       0.899   9.390  19.831  0.00  0.00    +0.000 A 
ENDBRANCH   3  13
BRANCH   5  18
ATOM     18  C   UNL     1       2.040   4.250  19.884  0.00  0.00    +0.000 A 
ATOM     19  C   UNL     1       1.337   3.147  19.290  0.00  0.00    +0.000 A 
ATOM     20  C   UNL     1       0.977   2.187  20.210  0.00  0.00    +0.000 A 
ATOM     21  S   UNL     1       1.478   2.600  21.790  0.00  0.00    +0.000 S 
ATOM     22  C   UNL     1       2.187   4.061  21.244  0.00  0.00    +0.000 A 
ENDBRANCH   5  18
TORSDOF 3
ENDMDL
MODEL 2
REMARK VINA RESULT:      -6.5      0.061      1.000
REMARK  Name = 
REMARK  3 active torsions:
REMARK  status: ('A' for Active; 'I' for Inactive)
REMARK    1  A    between atoms: C_3  and  C_4
REMARK    2  A    between atoms: C_6  and  C_7
REMARK    3  A    between atoms: C_13  and  C_14
REMARK                            x       y       z     vdW  Elec       q    Type
REMARK                         _______ _______ _______ _____ _____    ______ ____
ROOT
ATOM      1  C   UNL     1       4.107   6.277  17.725  0.00  0.00    +0.000 A 
ATOM      2  C   UNL     1       3.509   7.532  17.826  0.00  0.00    +0.000 A 
ATOM      3  C   UNL     1       2.424   7.722  18.682  0.00  0.00    +0.000 A 
ATOM      4  C   UNL     1       1.947   6.628  19.398  0.00  0.00    +0.000 A 
ATOM      5  C   UNL     1       2.566   5.395  19.232  0.00  0.00    +0.000 A 
ATOM      6  N   UNL     1       3.638   5.209  18.419  0.00  0.00    +0.000 NA
ENDROOT
BRANCH   1   9
ATOM      7  C   UNL     1       7.581   6.347  16.238  0.00  0.00    +0.000 A 
ATOM      8  C   UNL     1       6.538   6.558  17.125  0.00  0.00    +0.000 A 
ATOM      9  C   UNL     1       5.264   6.036  16.839  0.00  0.00    +0.000 A 
ATOM     10  C   UNL     1       5.136   5.289  15.662  0.00  0.00    +0.000 A 
ATOM     11  C   UNL     1       6.241   5.128  14.835  0.00  0.00    +0.000 A 
ATOM     12  N   UNL     1       7.458   5.648  15.095  0.00  0.00    +0.000 NA
ENDBRANCH   1   9
BRANCH   3  13
ATOM     13  C   UNL     1       1.811   9.045  18.799  0.00  0.00    +0.000 A 
ATOM     14  C   UNL     1       2.036  10.180  17.953  0.00  0.00    +0.000 A 
ATOM     15  C   UNL     1       1.336  11.295  18.356  0.00  0.00    +0.000 A 
ATOM     16  S   UNL     1       0.392  10.989  19.745  0.00  0.00    +0.000 S 
ATOM     17  C   UNL     1       0.931   9.364  19.818  0.00  0.00    +0.000 A 
ENDBRANCH   3  13
BRANCH   5  18
ATOM     18  C   UNL     1       2.042   4.217  19.921  0.00  0.00    +0.000 A 
ATOM     19  C   UNL     1       1.326   3.117  19.337  0.00  0.00    +0.000 A 
ATOM     20  C   UNL     1       0.961   2.166  20.265  0.00  0.00    +0.000 A 
ATOM     21  S   UNL     1       1.473   2.583  21.840  0.00  0.00    +0.000 S 
ATOM     22  C   UNL     1       2.193   4.034  21.282  0.00  0.00    +0.000 A 
ENDBRANCH   5  18
TORSDOF 3
ENDMDL
MODEL 3
REMARK VINA RESULT:      -6.4      2.448      5.347
REMARK  Name = 
REMARK  3 active torsions:
REMARK  status: ('A' for Active; 'I' for Inactive)
REMARK    1  A    between atoms: C_3  and  C_4
REMARK    2  A    between atoms: C_6  and  C_7
REMARK    3  A    between atoms: C_13  and  C_14
REMARK                            x       y       z     vdW  Elec       q    Type
REMARK                         _______ _______ _______ _____ _____    ______ ____
ROOT
ATOM      1  C   UNL     1       2.971   4.983  19.273  0.00  0.00    +0.000 A 
ATOM      2  C   UNL     1       2.415   6.256  19.388  0.00  0.00    +0.000 A 
ATOM      3  C   UNL     1       2.746   7.249  18.466  0.00  0.00    +0.000 A 
ATOM      4  C   UNL     1       3.659   6.942  17.463  0.00  0.00    +0.000 A 
ATOM      5  C   UNL     1       4.204   5.663  17.418  0.00  0.00    +0.000 A 
ATOM      6  N   UNL     1       3.867   4.685  18.297  0.00  0.00    +0.000 NA
ENDROOT
BRANCH   1   9
ATOM      7  C   UNL     1       1.129   2.810  21.757  0.00  0.00    +0.000 A 
ATOM      8  C   UNL     1       1.377   3.816  20.837  0.00  0.00    +0.000 A 
ATOM      9  C   UNL     1       2.638   3.900  20.221  0.00  0.00    +0.000 A 
ATOM     10  C   UNL     1       3.576   2.918  20.562  0.00  0.00    +0.000 A 
ATOM     11  C   UNL     1       3.234   1.946  21.494  0.00  0.00    +0.000 A 
ATOM     12  N   UNL     1       2.033   1.877  22.104  0.00  0.00    +0.000 NA
ENDBRANCH   1   9
BRANCH   3  13
ATOM     13  C   UNL     1       2.145   8.578  18.579  0.00  0.00    +0.000 A 
ATOM     14  C   UNL     1       2.312   9.683  17.682  0.00  0.00    +0.000 A 
ATOM     15  C   UNL     1       1.643  10.813  18.094  0.00  0.00    +0.000 A 
ATOM     16  S   UNL     1       0.795  10.557  19.554  0.00  0.00    +0.000 S 
ATOM     17  C   UNL     1       1.336   8.934  19.645  0.00  0.00    +0.000 A 
ENDBRANCH   3  13
BRANCH   5  18
ATOM     18  C   UNL     1       5.215   5.336  16.415  0.00  0.00    +0.000 A 
ATOM     19  C   UNL     1       6.537   5.885  16.304  0.00  0.00    +0.000 A 
ATOM     20  C   UNL     1       7.242   5.370  15.237  0.00  0.00    +0.000 A 
ATOM     21  S   UNL     1       6.324   4.226  14.362  0.00  0.00    +0.000 S 
ATOM     22  C   UNL     1       4.985   4.410  15.415  0.00  0.00    +0.000 A 
ENDBRANCH   5  18
TORSDOF 3
ENDMDL
MODEL 4
REMARK VINA RESULT:      -6.3      2.457      5.361
REMARK  Name = 
REMARK  3 active torsions:
REMARK  status: ('A' for Active; 'I' for Inactive)
REMARK    1  A    between atoms: C_3  and  C_4
REMARK    2  A    between atoms: C_6  and  C_7
REMARK    3  A    between atoms: C_13  and  C_14
REMARK                            x       y       z     vdW  Elec       q    Type
REMARK                         _______ _______ _______ _____ _____    ______ ____
ROOT
ATOM      1  C   UNL     1       3.026   5.040  19.261  0.00  0.00    +0.000 A 
ATOM      2  C   UNL     1       2.470   6.314  19.354  0.00  0.00    +0.000 A 
ATOM      3  C   UNL     1       2.795   7.289  18.409  0.00  0.00    +0.000 A 
ATOM      4  C   UNL     1       3.701   6.960  17.406  0.00  0.00    +0.000 A 
ATOM      5  C   UNL     1       4.246   5.681  17.384  0.00  0.00    +0.000 A 
ATOM      6  N   UNL     1       3.914   4.721  18.285  0.00  0.00    +0.000 NA
ENDROOT
BRANCH   1   9
ATOM      7  C   UNL     1       3.239   1.944  21.419  0.00  0.00    +0.000 A 
ATOM      8  C   UNL     1       3.609   2.947  20.538  0.00  0.00    +0.000 A 
ATOM      9  C   UNL     1       2.700   3.976  20.234  0.00  0.00    +0.000 A 
ATOM     10  C   UNL     1       1.461   3.938  20.882  0.00  0.00    +0.000 A 
ATOM     11  C   UNL     1       1.180   2.892  21.753  0.00  0.00    +0.000 A 
ATOM     12  N   UNL     1       2.041   1.891  22.029  0.00  0.00    +0.000 NA
ENDBRANCH   1   9
BRANCH   3  13
ATOM     13  C   UNL     1       2.194   8.619  18.499  0.00  0.00    +0.000 A 
ATOM     14  C   UNL     1       2.445   9.741  17.644  0.00  0.00    +0.000 A 
ATOM     15  C   UNL     1       1.749  10.868  18.021  0.00  0.00    +0.000 A 
ATOM     16  S   UNL     1       0.778  10.588  19.398  0.00  0.00    +0.000 S 
ATOM     17  C   UNL     1       1.299   8.959  19.499  0.00  0.00    +0.000 A 
ENDBRANCH   3  13
BRANCH   5  18
ATOM     18  C   UNL     1       5.249   5.333  16.381  0.00  0.00    +0.000 A 
ATOM     19  C   UNL     1       6.633   5.717  16.368  0.00  0.00    +0.000 A 
ATOM     20  C   UNL     1       7.313   5.229  15.272  0.00  0.00    +0.000 A 
ATOM     21  S   UNL     1       6.297   4.310  14.252  0.00  0.00    +0.000 S 
ATOM     22  C   UNL     1       4.948   4.554  15.279  0.00  0.00    +0.000 A 
ENDBRANCH   5  18
TORSDOF 3
ENDMDL
MODEL 5
REMARK VINA RESULT:      -6.2      2.611      6.555
REMARK  Name = 
REMARK  3 active torsions:
REMARK  status: ('A' for Active; 'I' for Inactive)
REMARK    1  A    between atoms: C_3  and  C_4
REMARK    2  A    between atoms: C_6  and  C_7
REMARK    3  A    between atoms: C_13  and  C_14
REMARK                            x       y       z     vdW  Elec       q    Type
REMARK                         _______ _______ _______ _____ _____    ______ ____
ROOT
ATOM      1  C   UNL     1       3.077   4.848  19.174  0.00  0.00    +0.000 A 
ATOM      2  C   UNL     1       3.938   4.556  18.119  0.00  0.00    +0.000 A 
ATOM      3  C   UNL     1       4.289   5.553  17.207  0.00  0.00    +0.000 A 
ATOM      4  C   UNL     1       3.735   6.819  17.366  0.00  0.00    +0.000 A 
ATOM      5  C   UNL     1       2.857   7.041  18.422  0.00  0.00    +0.000 A 
ATOM      6  N   UNL     1       2.532   6.083  19.326  0.00  0.00    +0.000 NA
ENDROOT
BRANCH   1   9
ATOM      7  C   UNL     1       1.124   2.881  21.744  0.00  0.00    +0.000 A 
ATOM      8  C   UNL     1       1.423   3.831  20.782  0.00  0.00    +0.000 A 
ATOM      9  C   UNL     1       2.689   3.826  20.168  0.00  0.00    +0.000 A 
ATOM     10  C   UNL     1       3.575   2.815  20.555  0.00  0.00    +0.000 A 
ATOM     11  C   UNL     1       3.184   1.903  21.528  0.00  0.00    +0.000 A 
ATOM     12  N   UNL     1       1.980   1.920  22.136  0.00  0.00    +0.000 NA
ENDBRANCH   1   9
BRANCH   3  13
ATOM     13  C   UNL     1       5.209   5.246  16.112  0.00  0.00    +0.000 A 
ATOM     14  C   UNL     1       4.941   4.441  14.957  0.00  0.00    +0.000 A 
ATOM     15  C   UNL     1       6.034   4.312  14.130  0.00  0.00    +0.000 A 
ATOM     16  S   UNL     1       7.389   5.166  14.723  0.00  0.00    +0.000 S 
ATOM     17  C   UNL     1       6.517   5.699  16.098  0.00  0.00    +0.000 A 
ENDBRANCH   3  13
BRANCH   5  18
ATOM     18  C   UNL     1       2.211   8.343  18.571  0.00  0.00    +0.000 A 
ATOM     19  C   UNL     1       2.241   9.438  17.642  0.00  0.00    +0.000 A 
ATOM     20  C   UNL     1       1.533  10.535  18.087  0.00  0.00    +0.000 A 
ATOM     21  S   UNL     1       0.831  10.260  19.618  0.00  0.00    +0.000 S 
ATOM     22  C   UNL     1       1.463   8.669  19.686  0.00  0.00    +0.000 A 
ENDBRANCH   5  18
TORSDOF 3
ENDMDL
MODEL 6
REMARK VINA RESULT:      -6.1      4.572      9.319
REMARK  Name = 
REMARK  3 active torsions:
REMARK  status: ('A' for Active; 'I' for Inactive)
REMARK    1  A    between atoms: C_3  and  C_4
REMARK    2  A    between atoms: C_6  and  C_7
REMARK    3  A    between atoms: C_13  and  C_14
REMARK                            x       y       z     vdW  Elec       q    Type
REMARK                         _______ _______ _______ _____ _____    ______ ____
ROOT
ATOM      1  C   UNL     1      -1.149  11.478  18.268  0.00  0.00    +0.000 A 
ATOM      2  C   UNL     1      -0.458  10.271  18.356  0.00  0.00    +0.000 A 
ATOM      3  C   UNL     1       0.917  10.268  18.593  0.00  0.00    +0.000 A 
ATOM      4  C   UNL     1       1.570  11.491  18.707  0.00  0.00    +0.000 A 
ATOM      5  C   UNL     1       0.833  12.662  18.579  0.00  0.00    +0.000 A 
ATOM      6  N   UNL     1      -0.509  12.672  18.374  0.00  0.00    +0.000 NA
ENDROOT
BRANCH   1   9
ATOM      7  C   UNL     1      -4.532  11.290  16.595  0.00  0.00    +0.000 A 
ATOM      8  C   UNL     1      -3.165  11.181  16.786  0.00  0.00    +0.000 A 
ATOM      9  C   UNL     1      -2.606  11.526  18.029  0.00  0.00    +0.000 A 
ATOM     10  C   UNL     1      -3.494  11.936  19.030  0.00  0.00    +0.000 A 
ATOM     11  C   UNL     1      -4.852  12.011  18.745  0.00  0.00    +0.000 A 
ATOM     12  N   UNL     1      -5.388  11.704  17.547  0.00  0.00    +0.000 NA
ENDBRANCH   1   9
BRANCH   3  13
ATOM     13  C   UNL     1       1.634   8.998  18.703  0.00  0.00    +0.000 A 
ATOM     14  C   UNL     1       2.427   8.362  17.692  0.00  0.00    +0.000 A 
ATOM     15  C   UNL     1       2.937   7.148  18.097  0.00  0.00    +0.000 A 
ATOM     16  S   UNL     1       2.480   6.766  19.698  0.00  0.00    +0.000 S 
ATOM     17  C   UNL     1       1.586   8.219  19.846  0.00  0.00    +0.000 A 
ENDBRANCH   3  13
BRANCH   5  18
ATOM     18  C   UNL     1       1.507  13.958  18.628  0.00  0.00    +0.000 A 
ATOM     19  C   UNL     1       2.853  14.251  18.223  0.00  0.00    +0.000 A 
ATOM     20  C   UNL     1       3.189  15.576  18.406  0.00  0.00    +0.000 A 
ATOM     21  S   UNL     1       1.895  16.474  19.065  0.00  0.00    +0.000 S 
ATOM     22  C   UNL     1       0.879  15.096  19.098  0.00  0.00    +0.000 A 
ENDBRANCH   5  18
TORSDOF 3
ENDMDL
MODEL 7
REMARK VINA RESULT:      -6.1      3.851      7.088
REMARK  Name = 
REMARK  3 active torsions:
REMARK  status: ('A' for Active; 'I' for Inactive)
REMARK    1  A    between atoms: C_3  and  C_4
REMARK    2  A    between atoms: C_6  and  C_7
REMARK    3  A    between atoms: C_13  and  C_14
REMARK                            x       y       z     vdW  Elec       q    Type
REMARK                         _______ _______ _______ _____ _____    ______ ____
ROOT
ATOM      1  C   UNL     1       0.923   9.847  18.823  0.00  0.00    +0.000 A 
ATOM      2  C   UNL     1      -0.303   9.876  18.161  0.00  0.00    +0.000 A 
ATOM      3  C   UNL     1      -1.085  11.032  18.188  0.00  0.00    +0.000 A 
ATOM      4  C   UNL     1      -0.622  12.126  18.912  0.00  0.00    +0.000 A 
ATOM      5  C   UNL     1       0.595  12.026  19.577  0.00  0.00    +0.000 A 
ATOM      6  N   UNL     1       1.373  10.913  19.533  0.00  0.00    +0.000 NA
ENDROOT
BRANCH   1   9
ATOM      7  C   UNL     1       3.375   7.186  17.730  0.00  0.00    +0.000 A 
ATOM      8  C   UNL     1       2.621   8.348  17.718  0.00  0.00    +0.000 A 
ATOM      9  C   UNL     1       1.786   8.648  18.809  0.00  0.00    +0.000 A 
ATOM     10  C   UNL     1       1.795   7.746  19.879  0.00  0.00    +0.000 A 
ATOM     11  C   UNL     1       2.587   6.607  19.802  0.00  0.00    +0.000 A 
ATOM     12  N   UNL     1       3.371   6.305  18.747  0.00  0.00    +0.000 NA
ENDBRANCH   1   9
BRANCH   3  13
ATOM     13  C   UNL     1      -2.362  11.064  17.477  0.00  0.00    +0.000 A 
ATOM     14  C   UNL     1      -2.608  10.663  16.123  0.00  0.00    +0.000 A 
ATOM     15  C   UNL     1      -3.915  10.856  15.736  0.00  0.00    +0.000 A 
ATOM     16  S   UNL     1      -4.864  11.508  16.998  0.00  0.00    +0.000 S 
ATOM     17  C   UNL     1      -3.521  11.546  18.060  0.00  0.00    +0.000 A 
ENDBRANCH   3  13
BRANCH   5  18
ATOM     18  C   UNL     1       1.071  13.137  20.398  0.00  0.00    +0.000 A 
ATOM     19  C   UNL     1       2.436  13.513  20.643  0.00  0.00    +0.000 A 
ATOM     20  C   UNL     1       2.547  14.608  21.473  0.00  0.00    +0.000 A 
ATOM     21  S   UNL     1       1.020  15.192  21.964  0.00  0.00    +0.000 S 
ATOM     22  C   UNL     1       0.205  13.986  21.059  0.00  0.00    +0.000 A 
ENDBRANCH   5  18
TORSDOF 3
ENDMDL
MODEL 8
REMARK VINA RESULT:      -6.1      4.232      7.862
REMARK  Name = 
REMARK  3 active torsions:
REMARK  status: ('A' for Active; 'I' for Inactive)
REMARK    1  A    between atoms: C_3  and  C_4
REMARK    2  A    between atoms: C_6  and  C_7
REMARK    3  A    between atoms: C_13  and  C_14
REMARK                            x       y       z     vdW  Elec       q    Type
REMARK                         _______ _______ _______ _____ _____    ______ ____
ROOT
ATOM      1  C   UNL     1       0.689  10.506  18.745  0.00  0.00    +0.000 A 
ATOM      2  C   UNL     1      -0.703  10.546  18.694  0.00  0.00    +0.000 A 
ATOM      3  C   UNL     1      -1.362  11.766  18.544  0.00  0.00    +0.000 A 
ATOM      4  C   UNL     1      -0.597  12.927  18.478  0.00  0.00    +0.000 A 
ATOM      5  C   UNL     1       0.787  12.825  18.566  0.00  0.00    +0.000 A 
ATOM      6  N   UNL     1       1.435  11.638  18.687  0.00  0.00    +0.000 NA
ENDROOT
BRANCH   1   9
ATOM      7  C   UNL     1       2.812   7.467  18.007  0.00  0.00    +0.000 A 
ATOM      8  C   UNL     1       2.179   8.687  17.837  0.00  0.00    +0.000 A 
ATOM      9  C   UNL     1       1.426   9.233  18.892  0.00  0.00    +0.000 A 
ATOM     10  C   UNL     1       1.389   8.505  20.086  0.00  0.00    +0.000 A 
ATOM     11  C   UNL     1       2.058   7.290  20.163  0.00  0.00    +0.000 A 
ATOM     12  N   UNL     1       2.763   6.753  19.146  0.00  0.00    +0.000 NA
ENDBRANCH   1   9
BRANCH   3  13
ATOM     13  C   UNL     1      -2.822  11.802  18.471  0.00  0.00    +0.000 A 
ATOM     14  C   UNL     1      -3.728  12.265  19.482  0.00  0.00    +0.000 A 
ATOM     15  C   UNL     1      -5.049  12.126  19.120  0.00  0.00    +0.000 A 
ATOM     16  S   UNL     1      -5.218  11.452  17.560  0.00  0.00    +0.000 S 
ATOM     17  C   UNL     1      -3.519  11.331  17.372  0.00  0.00    +0.000 A 
ENDBRANCH   3  13
BRANCH   5  18
ATOM     18  C   UNL     1       1.608  14.034  18.567  0.00  0.00    +0.000 A 
ATOM     19  C   UNL     1       3.003  14.136  18.238  0.00  0.00    +0.000 A 
ATOM     20  C   UNL     1       3.484  15.423  18.346  0.00  0.00    +0.000 A 
ATOM     21  S   UNL     1       2.270  16.516  18.844  0.00  0.00    +0.000 S 
ATOM     22  C   UNL     1       1.094  15.271  18.906  0.00  0.00    +0.000 A 
ENDBRANCH   5  18
TORSDOF 3
ENDMDL
MODEL 9
REMARK VINA RESULT:      -6.1      4.149      7.697
REMARK  Name = 
REMARK  3 active torsions:
REMARK  status: ('A' for Active; 'I' for Inactive)
REMARK    1  A    between atoms: C_3  and  C_4
REMARK    2  A    between atoms: C_6  and  C_7
REMARK    3  A    between atoms: C_13  and  C_14
REMARK                            x       y       z     vdW  Elec       q    Type
REMARK                         _______ _______ _______ _____ _____    ______ ____
ROOT
ATOM      1  C   UNL     1       0.736  10.309  18.748  0.00  0.00    +0.000 A 
ATOM      2  C   UNL     1      -0.657  10.325  18.708  0.00  0.00    +0.000 A 
ATOM      3  C   UNL     1      -1.338  11.535  18.568  0.00  0.00    +0.000 A 
ATOM      4  C   UNL     1      -0.593  12.709  18.502  0.00  0.00    +0.000 A 
ATOM      5  C   UNL     1       0.793  12.631  18.579  0.00  0.00    +0.000 A 
ATOM      6  N   UNL     1       1.463  11.455  18.689  0.00  0.00    +0.000 NA
ENDROOT
BRANCH   1   9
ATOM      7  C   UNL     1       2.929   7.325  17.988  0.00  0.00    +0.000 A 
ATOM      8  C   UNL     1       2.274   8.536  17.831  0.00  0.00    +0.000 A 
ATOM      9  C   UNL     1       1.496   9.049  18.884  0.00  0.00    +0.000 A 
ATOM     10  C   UNL     1       1.458   8.300  20.065  0.00  0.00    +0.000 A 
ATOM     11  C   UNL     1       2.150   7.097  20.130  0.00  0.00    +0.000 A 
ATOM     12  N   UNL     1       2.878   6.591  19.114  0.00  0.00    +0.000 NA
ENDBRANCH   1   9
BRANCH   3  13
ATOM     13  C   UNL     1      -2.799  11.545  18.507  0.00  0.00    +0.000 A 
ATOM     14  C   UNL     1      -3.628  10.906  17.528  0.00  0.00    +0.000 A 
ATOM     15  C   UNL     1      -4.970  11.142  17.727  0.00  0.00    +0.000 A 
ATOM     16  S   UNL     1      -5.250  12.121  19.098  0.00  0.00    +0.000 S 
ATOM     17  C   UNL     1      -3.571  12.243  19.419  0.00  0.00    +0.000 A 
ENDBRANCH   3  13
BRANCH   5  18
ATOM     18  C   UNL     1       1.593  13.854  18.580  0.00  0.00    +0.000 A 
ATOM     19  C   UNL     1       1.161  15.173  18.948  0.00  0.00    +0.000 A 
ATOM     20  C   UNL     1       2.162  16.114  18.830  0.00  0.00    +0.000 A 
ATOM     21  S   UNL     1       3.623  15.424  18.277  0.00  0.00    +0.000 S 
ATOM     22  C   UNL     1       2.923  13.862  18.204  0.00  0.00    +0.000 A 
ENDBRANCH   5  18
TORSDOF 3
ENDMDL
