MODEL 1
REMARK VINA RESULT:      -9.0      0.000      0.000
REMARK  Name = 
REMARK  7 active torsions:
REMARK  status: ('A' for Active; 'I' for Inactive)
REMARK    1  A    between atoms: C_1  and  O_2
REMARK    2  A    between atoms: O_2  and  C_3
REMARK    3  A    between atoms: N_6  and  C_7
REMARK    4  A    between atoms: C_10  and  C_11
REMARK    5  A    between atoms: N_16  and  C_17
REMARK    6  A    between atoms: C_22  and  C_23
REMARK    7  A    between atoms: C_29  and  C_30
REMARK                            x       y       z     vdW  Elec       q    Type
REMARK                         _______ _______ _______ _____ _____    ______ ____
ROOT
ATOM      1  C   UNL     1       2.422   5.573  19.800  0.00  0.00    +0.000 A 
ATOM      2  C   UNL     1       2.230   4.925  21.000  0.00  0.00    +0.000 A 
ATOM      3  C   UNL     1       2.681   3.628  21.061  0.00  0.00    +0.000 A 
ATOM      4  N   UNL     1       3.284   2.994  20.038  0.00  0.00    +0.000 NA
ATOM      5  C   UNL     1       3.458   3.702  18.916  0.00  0.00    +0.000 A 
ATOM      6  N   UNL     1       4.172   3.096  17.878  0.00  0.00    +0.000 N 
ATOM      7  N   UNL     1       3.018   4.956  18.763  0.00  0.00    +0.000 NA
ATOM      8  H   UNL     1       4.385   2.142  18.138  0.00  0.00    +0.000 HD
ENDROOT
BRANCH   6   9
ATOM      9  C   UNL     1       5.094   3.709  17.015  0.00  0.00    +0.000 A 
ATOM     10  C   UNL     1       6.062   4.575  17.518  0.00  0.00    +0.000 A 
ATOM     11  C   UNL     1       6.983   5.185  16.655  0.00  0.00    +0.000 A 
ATOM     12  C   UNL     1       6.946   4.890  15.295  0.00  0.00    +0.000 A 
ATOM     13  N   UNL     1       7.861   5.526  14.457  0.00  0.00    +0.000 N 
ATOM     14  C   UNL     1       8.045   5.445  13.117  0.00  0.00    +0.000 C 
ATOM     15  C   UNL     1       7.237   4.563  12.199  0.00  0.00    +0.000 C 
ATOM     16  O   UNL     1       8.954   6.136  12.636  0.00  0.00    +0.000 OA
ATOM     17  N   UNL     1       6.062   4.026  14.793  0.00  0.00    +0.000 NA
ATOM     18  C   UNL     1       5.173   3.459  15.646  0.00  0.00    +0.000 A 
ATOM     19  H   UNL     1       8.508   6.170  14.889  0.00  0.00    +0.000 HD
ENDBRANCH   6   9
BRANCH   1  23
ATOM     20  C   UNL     1       1.250   9.714  19.079  0.00  0.00    +0.000 A 
ATOM     21  C   UNL     1       1.698   8.867  18.049  0.00  0.00    +0.000 A 
ATOM     22  C   UNL     1       2.071   7.534  18.269  0.00  0.00    +0.000 A 
ATOM     23  C   UNL     1       2.028   6.971  19.545  0.00  0.00    +0.000 A 
ATOM     24  C   UNL     1       1.556   7.791  20.583  0.00  0.00    +0.000 A 
ATOM     25  C   UNL     1       1.170   9.132  20.366  0.00  0.00    +0.000 A 
BRANCH  20  29
ATOM     26  C   UNL     1      -0.572  12.921  18.987  0.00  0.00    +0.000 C 
ATOM     27  C   UNL     1       0.671  13.149  19.835  0.00  0.00    +0.000 C 
ATOM     28  C   UNL     1       1.682  12.198  19.214  0.00  0.00    +0.000 C 
ATOM     29  N   UNL     1       0.891  11.028  18.817  0.00  0.00    +0.000 N 
ATOM     30  C   UNL     1      -0.535  11.401  18.738  0.00  0.00    +0.000 C 
BRANCH  26  32
ATOM     31  C   UNL     1      -2.163  12.458  20.680  0.00  0.00    +0.000 C 
ATOM     32  O   UNL     1      -1.721  13.381  19.692  0.00  0.00    +0.000 OA
ENDBRANCH  26  32
ENDBRANCH  20  29
BRANCH  25  33
ATOM     33  C   UNL     1       0.652   9.837  21.505  0.00  0.00    +0.000 C 
ATOM     34  N   UNL     1       0.260  10.429  22.429  0.00  0.00    +0.000 NA
ENDBRANCH  25  33
ENDBRANCH   1  23
TORSDOF 5
ENDMDL
MODEL 2
REMARK VINA RESULT:      -8.5      1.055      1.594
REMARK  Name = 
REMARK  7 active torsions:
REMARK  status: ('A' for Active; 'I' for Inactive)
REMARK    1  A    between atoms: C_1  and  O_2
REMARK    2  A    between atoms: O_2  and  C_3
REMARK    3  A    between atoms: N_6  and  C_7
REMARK    4  A    between atoms: C_10  and  C_11
REMARK    5  A    between atoms: N_16  and  C_17
REMARK    6  A    between atoms: C_22  and  C_23
REMARK    7  A    between atoms: C_29  and  C_30
REMARK                            x       y       z     vdW  Elec       q    Type
REMARK                         _______ _______ _______ _____ _____    ______ ____
ROOT
ATOM      1  C   UNL     1       2.348   5.252  20.086  0.00  0.00    +0.000 A 
ATOM      2  C   UNL     1       2.142   4.495  21.218  0.00  0.00    +0.000 A 
ATOM      3  C   UNL     1       2.549   3.183  21.146  0.00  0.00    +0.000 A 
ATOM      4  N   UNL     1       3.124   2.634  20.060  0.00  0.00    +0.000 NA
ATOM      5  C   UNL     1       3.314   3.443  19.011  0.00  0.00    +0.000 A 
ATOM      6  N   UNL     1       4.000   2.920  17.912  0.00  0.00    +0.000 N 
ATOM      7  N   UNL     1       2.916   4.720  18.988  0.00  0.00    +0.000 NA
ATOM      8  H   UNL     1       4.182   1.938  18.074  0.00  0.00    +0.000 HD
ENDROOT
BRANCH   6   9
ATOM      9  C   UNL     1       4.936   3.583  17.104  0.00  0.00    +0.000 A 
ATOM     10  C   UNL     1       5.832   4.492  17.665  0.00  0.00    +0.000 A 
ATOM     11  C   UNL     1       6.767   5.153  16.857  0.00  0.00    +0.000 A 
ATOM     12  C   UNL     1       6.820   4.867  15.496  0.00  0.00    +0.000 A 
ATOM     13  N   UNL     1       7.747   5.555  14.713  0.00  0.00    +0.000 N 
ATOM     14  C   UNL     1       8.007   5.494  13.384  0.00  0.00    +0.000 C 
ATOM     15  C   UNL     1       7.295   4.582  12.418  0.00  0.00    +0.000 C 
ATOM     16  O   UNL     1       8.906   6.232  12.958  0.00  0.00    +0.000 OA
ATOM     17  N   UNL     1       6.007   3.966  14.941  0.00  0.00    +0.000 NA
ATOM     18  C   UNL     1       5.102   3.350  15.740  0.00  0.00    +0.000 A 
ATOM     19  H   UNL     1       8.337   6.226  15.183  0.00  0.00    +0.000 HD
ENDBRANCH   6   9
BRANCH   1  23
ATOM     20  C   UNL     1       1.312   9.480  19.789  0.00  0.00    +0.000 A 
ATOM     21  C   UNL     1       1.766   8.735  18.684  0.00  0.00    +0.000 A 
ATOM     22  C   UNL     1       2.096   7.375  18.769  0.00  0.00    +0.000 A 
ATOM     23  C   UNL     1       2.001   6.680  19.974  0.00  0.00    +0.000 A 
ATOM     24  C   UNL     1       1.522   7.398  21.083  0.00  0.00    +0.000 A 
ATOM     25  C   UNL     1       1.180   8.766  21.002  0.00  0.00    +0.000 A 
BRANCH  20  29
ATOM     26  C   UNL     1       1.301  13.013  18.728  0.00  0.00    +0.000 C 
ATOM     27  C   UNL     1       0.024  12.389  18.183  0.00  0.00    +0.000 C 
ATOM     28  C   UNL     1      -0.307  11.333  19.226  0.00  0.00    +0.000 C 
ATOM     29  N   UNL     1       0.998  10.825  19.661  0.00  0.00    +0.000 N 
ATOM     30  C   UNL     1       2.050  11.796  19.303  0.00  0.00    +0.000 C 
BRANCH  26  32
ATOM     31  C   UNL     1       3.043  14.514  18.158  0.00  0.00    +0.000 C 
ATOM     32  O   UNL     1       1.984  13.692  17.678  0.00  0.00    +0.000 OA
ENDBRANCH  26  32
ENDBRANCH  20  29
BRANCH  25  33
ATOM     33  C   UNL     1       0.649   9.359  22.197  0.00  0.00    +0.000 C 
ATOM     34  N   UNL     1       0.250   9.856  23.173  0.00  0.00    +0.000 NA
ENDBRANCH  25  33
ENDBRANCH   1  23
TORSDOF 5
ENDMDL
MODEL 3
REMARK VINA RESULT:      -8.4      0.958      1.069
REMARK  Name = 
REMARK  7 active torsions:
REMARK  status: ('A' for Active; 'I' for Inactive)
REMARK    1  A    between atoms: C_1  and  O_2
REMARK    2  A    between atoms: O_2  and  C_3
REMARK    3  A    between atoms: N_6  and  C_7
REMARK    4  A    between atoms: C_10  and  C_11
REMARK    5  A    between atoms: N_16  and  C_17
REMARK    6  A    between atoms: C_22  and  C_23
REMARK    7  A    between atoms: C_29  and  C_30
REMARK                            x       y       z     vdW  Elec       q    Type
REMARK                         _______ _______ _______ _____ _____    ______ ____
ROOT
ATOM      1  C   UNL     1       2.052   6.365  19.741  0.00  0.00    +0.000 A 
ATOM      2  C   UNL     1       1.715   5.771  20.937  0.00  0.00    +0.000 A 
ATOM      3  C   UNL     1       2.003   4.431  21.043  0.00  0.00    +0.000 A 
ATOM      4  N   UNL     1       2.583   3.707  20.067  0.00  0.00    +0.000 NA
ATOM      5  C   UNL     1       2.904   4.366  18.947  0.00  0.00    +0.000 A 
ATOM      6  N   UNL     1       3.598   3.657  17.962  0.00  0.00    +0.000 N 
ATOM      7  N   UNL     1       2.627   5.660  18.750  0.00  0.00    +0.000 NA
ATOM      8  H   UNL     1       3.680   2.691  18.248  0.00  0.00    +0.000 HD
ENDROOT
BRANCH   6   9
ATOM      9  C   UNL     1       4.634   4.137  17.146  0.00  0.00    +0.000 A 
ATOM     10  C   UNL     1       5.651   4.922  17.687  0.00  0.00    +0.000 A 
ATOM     11  C   UNL     1       6.686   5.398  16.870  0.00  0.00    +0.000 A 
ATOM     12  C   UNL     1       6.710   5.052  15.522  0.00  0.00    +0.000 A 
ATOM     13  N   UNL     1       7.740   5.557  14.730  0.00  0.00    +0.000 N 
ATOM     14  C   UNL     1       8.004   5.402  13.410  0.00  0.00    +0.000 C 
ATOM     15  C   UNL     1       7.173   4.569  12.468  0.00  0.00    +0.000 C 
ATOM     16  O   UNL     1       9.011   5.977  12.971  0.00  0.00    +0.000 OA
ATOM     17  N   UNL     1       5.776   4.262  14.989  0.00  0.00    +0.000 NA
ATOM     18  C   UNL     1       4.779   3.824  15.795  0.00  0.00    +0.000 A 
ATOM     19  H   UNL     1       8.420   6.150  15.184  0.00  0.00    +0.000 HD
ENDBRANCH   6   9
BRANCH   1  23
ATOM     20  C   UNL     1       1.424  10.599  18.891  0.00  0.00    +0.000 A 
ATOM     21  C   UNL     1       1.936   9.706  17.932  0.00  0.00    +0.000 A 
ATOM     22  C   UNL     1       2.136   8.342  18.194  0.00  0.00    +0.000 A 
ATOM     23  C   UNL     1       1.843   7.794  19.443  0.00  0.00    +0.000 A 
ATOM     24  C   UNL     1       1.304   8.664  20.405  0.00  0.00    +0.000 A 
ATOM     25  C   UNL     1       1.092  10.036  20.145  0.00  0.00    +0.000 A 
BRANCH  20  29
ATOM     26  C   UNL     1       0.096  14.039  18.775  0.00  0.00    +0.000 C 
ATOM     27  C   UNL     1       1.425  14.109  19.512  0.00  0.00    +0.000 C 
ATOM     28  C   UNL     1       2.229  12.992  18.863  0.00  0.00    +0.000 C 
ATOM     29  N   UNL     1       1.243  11.941  18.590  0.00  0.00    +0.000 N 
ATOM     30  C   UNL     1      -0.114  12.522  18.603  0.00  0.00    +0.000 C 
BRANCH  26  32
ATOM     31  C   UNL     1      -0.364  15.506  20.577  0.00  0.00    +0.000 C 
ATOM     32  O   UNL     1      -0.909  14.696  19.542  0.00  0.00    +0.000 OA
ENDBRANCH  26  32
ENDBRANCH  20  29
BRANCH  25  33
ATOM     33  C   UNL     1       0.480  10.795  21.199  0.00  0.00    +0.000 C 
ATOM     34  N   UNL     1       0.008  11.400  22.076  0.00  0.00    +0.000 NA
ENDBRANCH  25  33
ENDBRANCH   1  23
TORSDOF 5
ENDMDL
MODEL 4
REMARK VINA RESULT:      -8.3      3.470      9.366
REMARK  Name = 
REMARK  7 active torsions:
REMARK  status: ('A' for Active; 'I' for Inactive)
REMARK    1  A    between atoms: C_1  and  O_2
REMARK    2  A    between atoms: O_2  and  C_3
REMARK    3  A    between atoms: N_6  and  C_7
REMARK    4  A    between atoms: C_10  and  C_11
REMARK    5  A    between atoms: N_16  and  C_17
REMARK    6  A    between atoms: C_22  and  C_23
REMARK    7  A    between atoms: C_29  and  C_30
REMARK                            x       y       z     vdW  Elec       q    Type
REMARK                         _______ _______ _______ _____ _____    ______ ____
ROOT
ATOM      1  C   UNL     1       0.163   9.707  20.984  0.00  0.00    +0.000 A 
ATOM      2  C   UNL     1       0.047   9.867  22.347  0.00  0.00    +0.000 A 
ATOM      3  C   UNL     1      -0.783  10.880  22.764  0.00  0.00    +0.000 A 
ATOM      4  N   UNL     1      -1.465  11.685  21.928  0.00  0.00    +0.000 NA
ATOM      5  C   UNL     1      -1.320  11.446  20.619  0.00  0.00    +0.000 A 
ATOM      6  N   UNL     1      -2.097  12.204  19.738  0.00  0.00    +0.000 N 
ATOM      7  N   UNL     1      -0.505  10.504  20.130  0.00  0.00    +0.000 NA
ATOM      8  H   UNL     1      -2.613  12.896  20.265  0.00  0.00    +0.000 HD
ENDROOT
BRANCH   6   9
ATOM      9  C   UNL     1      -2.712  11.761  18.557  0.00  0.00    +0.000 A 
ATOM     10  C   UNL     1      -4.096  11.837  18.411  0.00  0.00    +0.000 A 
ATOM     11  C   UNL     1      -4.708  11.396  17.230  0.00  0.00    +0.000 A 
ATOM     12  C   UNL     1      -3.920  10.915  16.188  0.00  0.00    +0.000 A 
ATOM     13  N   UNL     1      -4.558  10.463  15.034  0.00  0.00    +0.000 N 
ATOM     14  C   UNL     1      -4.056   9.940  13.888  0.00  0.00    +0.000 C 
ATOM     15  C   UNL     1      -2.587   9.743  13.614  0.00  0.00    +0.000 C 
ATOM     16  O   UNL     1      -4.876   9.625  13.014  0.00  0.00    +0.000 OA
ATOM     17  N   UNL     1      -2.590  10.876  16.282  0.00  0.00    +0.000 NA
ATOM     18  C   UNL     1      -2.021  11.296  17.439  0.00  0.00    +0.000 A 
ATOM     19  H   UNL     1      -5.565  10.515  15.016  0.00  0.00    +0.000 HD
ENDBRANCH   6   9
BRANCH   1  23
ATOM     20  C   UNL     1       2.590   6.603  19.111  0.00  0.00    +0.000 A 
ATOM     21  C   UNL     1       2.471   7.895  18.569  0.00  0.00    +0.000 A 
ATOM     22  C   UNL     1       1.698   8.902  19.166  0.00  0.00    +0.000 A 
ATOM     23  C   UNL     1       0.986   8.666  20.342  0.00  0.00    +0.000 A 
ATOM     24  C   UNL     1       1.116   7.390  20.915  0.00  0.00    +0.000 A 
ATOM     25  C   UNL     1       1.899   6.375  20.323  0.00  0.00    +0.000 A 
BRANCH  20  29
ATOM     26  C   UNL     1       4.865   3.765  18.490  0.00  0.00    +0.000 C 
ATOM     27  C   UNL     1       3.478   3.316  18.055  0.00  0.00    +0.000 C 
ATOM     28  C   UNL     1       2.839   4.611  17.578  0.00  0.00    +0.000 C 
ATOM     29  N   UNL     1       3.365   5.636  18.486  0.00  0.00    +0.000 N 
ATOM     30  C   UNL     1       4.586   5.132  19.145  0.00  0.00    +0.000 C 
BRANCH  26  32
ATOM     31  C   UNL     1       4.440   2.082  20.102  0.00  0.00    +0.000 C 
ATOM     32  O   UNL     1       5.429   2.791  19.364  0.00  0.00    +0.000 OA
ENDBRANCH  26  32
ENDBRANCH  20  29
BRANCH  25  33
ATOM     33  C   UNL     1       1.989   5.138  21.047  0.00  0.00    +0.000 C 
ATOM     34  N   UNL     1       2.043   4.119  21.609  0.00  0.00    +0.000 NA
ENDBRANCH  25  33
ENDBRANCH   1  23
TORSDOF 5
ENDMDL
MODEL 5
REMARK VINA RESULT:      -8.3      3.328      9.330
REMARK  Name = 
REMARK  7 active torsions:
REMARK  status: ('A' for Active; 'I' for Inactive)
REMARK    1  A    between atoms: C_1  and  O_2
REMARK    2  A    between atoms: O_2  and  C_3
REMARK    3  A    between atoms: N_6  and  C_7
REMARK    4  A    between atoms: C_10  and  C_11
REMARK    5  A    between atoms: N_16  and  C_17
REMARK    6  A    between atoms: C_22  and  C_23
REMARK    7  A    between atoms: C_29  and  C_30
REMARK                            x       y       z     vdW  Elec       q    Type
REMARK                         _______ _______ _______ _____ _____    ______ ____
ROOT
ATOM      1  C   UNL     1       0.317   9.662  20.710  0.00  0.00    +0.000 A 
ATOM      2  C   UNL     1       0.232   9.765  22.080  0.00  0.00    +0.000 A 
ATOM      3  C   UNL     1      -0.628  10.726  22.559  0.00  0.00    +0.000 A 
ATOM      4  N   UNL     1      -1.366  11.532  21.772  0.00  0.00    +0.000 NA
ATOM      5  C   UNL     1      -1.247  11.349  20.452  0.00  0.00    +0.000 A 
ATOM      6  N   UNL     1      -2.079  12.106  19.622  0.00  0.00    +0.000 N 
ATOM      7  N   UNL     1      -0.407  10.462  19.906  0.00  0.00    +0.000 NA
ATOM      8  H   UNL     1      -2.608  12.754  20.189  0.00  0.00    +0.000 HD
ENDROOT
BRANCH   6   9
ATOM      9  C   UNL     1      -2.707  11.682  18.440  0.00  0.00    +0.000 A 
ATOM     10  C   UNL     1      -4.090  11.782  18.303  0.00  0.00    +0.000 A 
ATOM     11  C   UNL     1      -4.715  11.360  17.122  0.00  0.00    +0.000 A 
ATOM     12  C   UNL     1      -3.941  10.875  16.072  0.00  0.00    +0.000 A 
ATOM     13  N   UNL     1      -4.592  10.443  14.917  0.00  0.00    +0.000 N 
ATOM     14  C   UNL     1      -4.105   9.920  13.765  0.00  0.00    +0.000 C 
ATOM     15  C   UNL     1      -2.640   9.702  13.481  0.00  0.00    +0.000 C 
ATOM     16  O   UNL     1      -4.934   9.626  12.892  0.00  0.00    +0.000 OA
ATOM     17  N   UNL     1      -2.611  10.814  16.158  0.00  0.00    +0.000 NA
ATOM     18  C   UNL     1      -2.030  11.215  17.315  0.00  0.00    +0.000 A 
ATOM     19  H   UNL     1      -5.599  10.511  14.905  0.00  0.00    +0.000 HD
ENDBRANCH   6   9
BRANCH   1  23
ATOM     20  C   UNL     1       2.820   6.738  18.656  0.00  0.00    +0.000 A 
ATOM     21  C   UNL     1       2.584   8.024  18.138  0.00  0.00    +0.000 A 
ATOM     22  C   UNL     1       1.786   8.973  18.793  0.00  0.00    +0.000 A 
ATOM     23  C   UNL     1       1.165   8.682  20.007  0.00  0.00    +0.000 A 
ATOM     24  C   UNL     1       1.410   7.412  20.556  0.00  0.00    +0.000 A 
ATOM     25  C   UNL     1       2.220   6.455  19.905  0.00  0.00    +0.000 A 
BRANCH  20  29
ATOM     26  C   UNL     1       5.610   4.530  17.681  0.00  0.00    +0.000 C 
ATOM     27  C   UNL     1       4.455   3.623  18.081  0.00  0.00    +0.000 C 
ATOM     28  C   UNL     1       3.234   4.441  17.691  0.00  0.00    +0.000 C 
ATOM     29  N   UNL     1       3.615   5.829  17.973  0.00  0.00    +0.000 N 
ATOM     30  C   UNL     1       5.086   5.928  18.059  0.00  0.00    +0.000 C 
BRANCH  26  32
ATOM     31  C   UNL     1       7.749   5.176  18.467  0.00  0.00    +0.000 C 
ATOM     32  O   UNL     1       6.790   4.129  18.371  0.00  0.00    +0.000 OA
ENDBRANCH  26  32
ENDBRANCH  20  29
BRANCH  25  33
ATOM     33  C   UNL     1       2.434   5.221  20.607  0.00  0.00    +0.000 C 
ATOM     34  N   UNL     1       2.609   4.202  21.145  0.00  0.00    +0.000 NA
ENDBRANCH  25  33
ENDBRANCH   1  23
TORSDOF 5
ENDMDL
MODEL 6
REMARK VINA RESULT:      -8.2      3.033      9.135
REMARK  Name = 
REMARK  7 active torsions:
REMARK  status: ('A' for Active; 'I' for Inactive)
REMARK    1  A    between atoms: C_1  and  O_2
REMARK    2  A    between atoms: O_2  and  C_3
REMARK    3  A    between atoms: N_6  and  C_7
REMARK    4  A    between atoms: C_10  and  C_11
REMARK    5  A    between atoms: N_16  and  C_17
REMARK    6  A    between atoms: C_22  and  C_23
REMARK    7  A    between atoms: C_29  and  C_30
REMARK                            x       y       z     vdW  Elec       q    Type
REMARK                         _______ _______ _______ _____ _____    ______ ____
ROOT
ATOM      1  C   UNL     1       0.434   9.171  21.239  0.00  0.00    +0.000 A 
ATOM      2  C   UNL     1       0.337   9.305  22.606  0.00  0.00    +0.000 A 
ATOM      3  C   UNL     1      -0.415  10.366  23.054  0.00  0.00    +0.000 A 
ATOM      4  N   UNL     1      -1.040  11.239  22.241  0.00  0.00    +0.000 NA
ATOM      5  C   UNL     1      -0.918  11.023  20.926  0.00  0.00    +0.000 A 
ATOM      6  N   UNL     1      -1.642  11.857  20.069  0.00  0.00    +0.000 N 
ATOM      7  N   UNL     1      -0.178  10.036  20.409  0.00  0.00    +0.000 NA
ATOM      8  H   UNL     1      -2.102  12.571  20.616  0.00  0.00    +0.000 HD
ENDROOT
BRANCH   6   9
ATOM      9  C   UNL     1      -2.293  11.490  18.881  0.00  0.00    +0.000 A 
ATOM     10  C   UNL     1      -3.669  11.662  18.750  0.00  0.00    +0.000 A 
ATOM     11  C   UNL     1      -4.318  11.296  17.562  0.00  0.00    +0.000 A 
ATOM     12  C   UNL     1      -3.571  10.794  16.501  0.00  0.00    +0.000 A 
ATOM     13  N   UNL     1      -4.245  10.419  15.339  0.00  0.00    +0.000 N 
ATOM     14  C   UNL     1      -3.788   9.896  14.176  0.00  0.00    +0.000 C 
ATOM     15  C   UNL     1      -2.337   9.609  13.883  0.00  0.00    +0.000 C 
ATOM     16  O   UNL     1      -4.633   9.661  13.300  0.00  0.00    +0.000 OA
ATOM     17  N   UNL     1      -2.246  10.663  16.582  0.00  0.00    +0.000 NA
ATOM     18  C   UNL     1      -1.643  11.011  17.745  0.00  0.00    +0.000 A 
ATOM     19  H   UNL     1      -5.248  10.538  15.332  0.00  0.00    +0.000 HD
ENDBRANCH   6   9
BRANCH   1  23
ATOM     20  C   UNL     1       2.619   5.944  19.276  0.00  0.00    +0.000 A 
ATOM     21  C   UNL     1       2.528   7.236  18.727  0.00  0.00    +0.000 A 
ATOM     22  C   UNL     1       1.834   8.281  19.352  0.00  0.00    +0.000 A 
ATOM     23  C   UNL     1       1.176   8.088  20.567  0.00  0.00    +0.000 A 
ATOM     24  C   UNL     1       1.278   6.812  21.147  0.00  0.00    +0.000 A 
ATOM     25  C   UNL     1       1.984   5.758  20.526  0.00  0.00    +0.000 A 
BRANCH  20  29
ATOM     26  C   UNL     1       4.422   3.994  16.715  0.00  0.00    +0.000 C 
ATOM     27  C   UNL     1       5.449   4.389  17.767  0.00  0.00    +0.000 C 
ATOM     28  C   UNL     1       4.625   4.427  19.044  0.00  0.00    +0.000 C 
ATOM     29  N   UNL     1       3.316   4.938  18.622  0.00  0.00    +0.000 N 
ATOM     30  C   UNL     1       3.168   4.768  17.163  0.00  0.00    +0.000 C 
BRANCH  26  32
ATOM     31  C   UNL     1       5.922   5.340  15.469  0.00  0.00    +0.000 C 
ATOM     32  O   UNL     1       4.907   4.343  15.422  0.00  0.00    +0.000 OA
ENDBRANCH  26  32
ENDBRANCH  20  29
BRANCH  25  33
ATOM     33  C   UNL     1       2.058   4.525  21.258  0.00  0.00    +0.000 C 
ATOM     34  N   UNL     1       2.132   3.509  21.824  0.00  0.00    +0.000 NA
ENDBRANCH  25  33
ENDBRANCH   1  23
TORSDOF 5
ENDMDL
MODEL 7
REMARK VINA RESULT:      -7.7      3.341      4.048
REMARK  Name = 
REMARK  7 active torsions:
REMARK  status: ('A' for Active; 'I' for Inactive)
REMARK    1  A    between atoms: C_1  and  O_2
REMARK    2  A    between atoms: O_2  and  C_3
REMARK    3  A    between atoms: N_6  and  C_7
REMARK    4  A    between atoms: C_10  and  C_11
REMARK    5  A    between atoms: N_16  and  C_17
REMARK    6  A    between atoms: C_22  and  C_23
REMARK    7  A    between atoms: C_29  and  C_30
REMARK                            x       y       z     vdW  Elec       q    Type
REMARK                         _______ _______ _______ _____ _____    ______ ____
ROOT
ATOM      1  C   UNL     1       2.561   6.773  18.257  0.00  0.00    +0.000 A 
ATOM      2  C   UNL     1       2.008   5.513  18.296  0.00  0.00    +0.000 A 
ATOM      3  C   UNL     1       2.803   4.493  17.830  0.00  0.00    +0.000 A 
ATOM      4  N   UNL     1       4.053   4.670  17.361  0.00  0.00    +0.000 NA
ATOM      5  C   UNL     1       4.527   5.921  17.382  0.00  0.00    +0.000 A 
ATOM      6  N   UNL     1       5.856   6.110  16.996  0.00  0.00    +0.000 N 
ATOM      7  N   UNL     1       3.806   6.973  17.787  0.00  0.00    +0.000 NA
ATOM      8  H   UNL     1       6.235   5.229  16.675  0.00  0.00    +0.000 HD
ENDROOT
BRANCH   6   9
ATOM      9  C   UNL     1       6.784   6.998  17.562  0.00  0.00    +0.000 A 
ATOM     10  C   UNL     1       7.680   6.555  18.534  0.00  0.00    +0.000 A 
ATOM     11  C   UNL     1       8.607   7.443  19.097  0.00  0.00    +0.000 A 
ATOM     12  C   UNL     1       8.651   8.761  18.653  0.00  0.00    +0.000 A 
ATOM     13  N   UNL     1       9.570   9.626  19.246  0.00  0.00    +0.000 N 
ATOM     14  C   UNL     1       9.821  10.940  19.028  0.00  0.00    +0.000 C 
ATOM     15  C   UNL     1       9.107  11.786  18.006  0.00  0.00    +0.000 C 
ATOM     16  O   UNL     1      10.715  11.458  19.714  0.00  0.00    +0.000 OA
ATOM     17  N   UNL     1       7.839   9.199  17.689  0.00  0.00    +0.000 NA
ATOM     18  C   UNL     1       6.942   8.326  17.169  0.00  0.00    +0.000 A 
ATOM     19  H   UNL     1      10.160   9.243  19.970  0.00  0.00    +0.000 HD
ENDBRANCH   6   9
BRANCH   1  23
ATOM     20  C   UNL     1       0.539  10.363  19.694  0.00  0.00    +0.000 A 
ATOM     21  C   UNL     1       0.742  10.109  18.325  0.00  0.00    +0.000 A 
ATOM     22  C   UNL     1       1.385   8.956  17.853  0.00  0.00    +0.000 A 
ATOM     23  C   UNL     1       1.876   7.990  18.731  0.00  0.00    +0.000 A 
ATOM     24  C   UNL     1       1.658   8.211  20.101  0.00  0.00    +0.000 A 
ATOM     25  C   UNL     1       1.003   9.366  20.582  0.00  0.00    +0.000 A 
BRANCH  20  29
ATOM     26  C   UNL     1      -1.899  12.702  21.176  0.00  0.00    +0.000 C 
ATOM     27  C   UNL     1      -0.659  12.749  22.055  0.00  0.00    +0.000 C 
ATOM     28  C   UNL     1       0.466  12.481  21.067  0.00  0.00    +0.000 C 
ATOM     29  N   UNL     1      -0.102  11.518  20.117  0.00  0.00    +0.000 N 
ATOM     30  C   UNL     1      -1.576  11.555  20.199  0.00  0.00    +0.000 C 
BRANCH  26  32
ATOM     31  C   UNL     1      -2.718  12.119  23.321  0.00  0.00    +0.000 C 
ATOM     32  O   UNL     1      -3.050  12.487  21.987  0.00  0.00    +0.000 OA
ENDBRANCH  26  32
ENDBRANCH  20  29
BRANCH  25  33
ATOM     33  C   UNL     1       0.795   9.434  22.002  0.00  0.00    +0.000 C 
ATOM     34  N   UNL     1       0.628   9.525  23.152  0.00  0.00    +0.000 NA
ENDBRANCH  25  33
ENDBRANCH   1  23
TORSDOF 5
ENDMDL
MODEL 8
REMARK VINA RESULT:      -7.7      3.804      9.015
REMARK  Name = 
REMARK  7 active torsions:
REMARK  status: ('A' for Active; 'I' for Inactive)
REMARK    1  A    between atoms: C_1  and  O_2
REMARK    2  A    between atoms: O_2  and  C_3
REMARK    3  A    between atoms: N_6  and  C_7
REMARK    4  A    between atoms: C_10  and  C_11
REMARK    5  A    between atoms: N_16  and  C_17
REMARK    6  A    between atoms: C_22  and  C_23
REMARK    7  A    between atoms: C_29  and  C_30
REMARK                            x       y       z     vdW  Elec       q    Type
REMARK                         _______ _______ _______ _____ _____    ______ ____
ROOT
ATOM      1  C   UNL     1       0.543  10.418  19.389  0.00  0.00    +0.000 A 
ATOM      2  C   UNL     1      -0.830  10.461  19.299  0.00  0.00    +0.000 A 
ATOM      3  C   UNL     1      -1.416  11.659  19.634  0.00  0.00    +0.000 A 
ATOM      4  N   UNL     1      -0.728  12.749  20.024  0.00  0.00    +0.000 NA
ATOM      5  C   UNL     1       0.605  12.632  20.058  0.00  0.00    +0.000 A 
ATOM      6  N   UNL     1       1.342  13.780  20.362  0.00  0.00    +0.000 N 
ATOM      7  N   UNL     1       1.250  11.493  19.782  0.00  0.00    +0.000 NA
ATOM      8  H   UNL     1       0.704  14.530  20.591  0.00  0.00    +0.000 HD
ENDROOT
BRANCH   6   9
ATOM      9  C   UNL     1       2.564  14.176  19.795  0.00  0.00    +0.000 A 
ATOM     10  C   UNL     1       2.668  14.386  18.422  0.00  0.00    +0.000 A 
ATOM     11  C   UNL     1       3.889  14.782  17.858  0.00  0.00    +0.000 A 
ATOM     12  C   UNL     1       4.987  15.001  18.685  0.00  0.00    +0.000 A 
ATOM     13  N   UNL     1       6.193  15.375  18.094  0.00  0.00    +0.000 N 
ATOM     14  C   UNL     1       7.406  15.635  18.640  0.00  0.00    +0.000 C 
ATOM     15  C   UNL     1       7.706  15.581  20.116  0.00  0.00    +0.000 C 
ATOM     16  O   UNL     1       8.312  15.954  17.856  0.00  0.00    +0.000 OA
ATOM     17  N   UNL     1       4.902  14.854  20.008  0.00  0.00    +0.000 NA
ATOM     18  C   UNL     1       3.715  14.458  20.529  0.00  0.00    +0.000 A 
ATOM     19  H   UNL     1       6.202  15.471  17.090  0.00  0.00    +0.000 HD
ENDBRANCH   6   9
BRANCH   1  23
ATOM     20  C   UNL     1       2.930   6.896  18.420  0.00  0.00    +0.000 A 
ATOM     21  C   UNL     1       2.967   8.068  17.644  0.00  0.00    +0.000 A 
ATOM     22  C   UNL     1       2.208   9.207  17.950  0.00  0.00    +0.000 A 
ATOM     23  C   UNL     1       1.355   9.233  19.053  0.00  0.00    +0.000 A 
ATOM     24  C   UNL     1       1.325   8.082  19.858  0.00  0.00    +0.000 A 
ATOM     25  C   UNL     1       2.093   6.936  19.560  0.00  0.00    +0.000 A 
BRANCH  20  29
ATOM     26  C   UNL     1       5.001   3.848  18.607  0.00  0.00    +0.000 C 
ATOM     27  C   UNL     1       3.659   3.429  18.026  0.00  0.00    +0.000 C 
ATOM     28  C   UNL     1       3.219   4.670  17.264  0.00  0.00    +0.000 C 
ATOM     29  N   UNL     1       3.697   5.791  18.080  0.00  0.00    +0.000 N 
ATOM     30  C   UNL     1       4.755   5.319  18.996  0.00  0.00    +0.000 C 
BRANCH  26  32
ATOM     31  C   UNL     1       4.230   2.220  20.146  0.00  0.00    +0.000 C 
ATOM     32  O   UNL     1       5.337   2.993  19.696  0.00  0.00    +0.000 OA
ENDBRANCH  26  32
ENDBRANCH  20  29
BRANCH  25  33
ATOM     33  C   UNL     1       2.011   5.853  20.500  0.00  0.00    +0.000 C 
ATOM     34  N   UNL     1       1.911   4.969  21.252  0.00  0.00    +0.000 NA
ENDBRANCH  25  33
ENDBRANCH   1  23
TORSDOF 5
ENDMDL
MODEL 9
REMARK VINA RESULT:      -7.7      3.303      4.101
REMARK  Name = 
REMARK  7 active torsions:
REMARK  status: ('A' for Active; 'I' for Inactive)
REMARK    1  A    between atoms: C_1  and  O_2
REMARK    2  A    between atoms: O_2  and  C_3
REMARK    3  A    between atoms: N_6  and  C_7
REMARK    4  A    between atoms: C_10  and  C_11
REMARK    5  A    between atoms: N_16  and  C_17
REMARK    6  A    between atoms: C_22  and  C_23
REMARK    7  A    between atoms: C_29  and  C_30
REMARK                            x       y       z     vdW  Elec       q    Type
REMARK                         _______ _______ _______ _____ _____    ______ ____
ROOT
ATOM      1  C   UNL     1       2.597   6.678  18.148  0.00  0.00    +0.000 A 
ATOM      2  C   UNL     1       2.058   5.410  18.154  0.00  0.00    +0.000 A 
ATOM      3  C   UNL     1       2.874   4.409  17.682  0.00  0.00    +0.000 A 
ATOM      4  N   UNL     1       4.129   4.609  17.237  0.00  0.00    +0.000 NA
ATOM      5  C   UNL     1       4.587   5.865  17.290  0.00  0.00    +0.000 A 
ATOM      6  N   UNL     1       5.920   6.078  16.929  0.00  0.00    +0.000 N 
ATOM      7  N   UNL     1       3.847   6.901  17.702  0.00  0.00    +0.000 NA
ATOM      8  H   UNL     1       6.315   5.208  16.599  0.00  0.00    +0.000 HD
ENDROOT
BRANCH   6   9
ATOM      9  C   UNL     1       6.828   6.966  17.527  0.00  0.00    +0.000 A 
ATOM     10  C   UNL     1       7.700   6.520  18.519  0.00  0.00    +0.000 A 
ATOM     11  C   UNL     1       8.606   7.407  19.114  0.00  0.00    +0.000 A 
ATOM     12  C   UNL     1       8.656   8.729  18.682  0.00  0.00    +0.000 A 
ATOM     13  N   UNL     1       9.553   9.594  19.306  0.00  0.00    +0.000 N 
ATOM     14  C   UNL     1       9.803  10.912  19.106  0.00  0.00    +0.000 C 
ATOM     15  C   UNL     1       9.112  11.762  18.071  0.00  0.00    +0.000 C 
ATOM     16  O   UNL     1      10.675  11.428  19.820  0.00  0.00    +0.000 OA
ATOM     17  N   UNL     1       7.867   9.171  17.701  0.00  0.00    +0.000 NA
ATOM     18  C   UNL     1       6.989   8.298  17.149  0.00  0.00    +0.000 A 
ATOM     19  H   UNL     1      10.126   9.209  20.042  0.00  0.00    +0.000 HD
ENDBRANCH   6   9
BRANCH   1  23
ATOM     20  C   UNL     1       0.510  10.217  19.617  0.00  0.00    +0.000 A 
ATOM     21  C   UNL     1       0.665   9.949  18.245  0.00  0.00    +0.000 A 
ATOM     22  C   UNL     1       1.329   8.811  17.763  0.00  0.00    +0.000 A 
ATOM     23  C   UNL     1       1.889   7.877  18.633  0.00  0.00    +0.000 A 
ATOM     24  C   UNL     1       1.720   8.111  20.008  0.00  0.00    +0.000 A 
ATOM     25  C   UNL     1       1.045   9.250  20.500  0.00  0.00    +0.000 A 
BRANCH  20  29
ATOM     26  C   UNL     1      -0.686  13.691  19.945  0.00  0.00    +0.000 C 
ATOM     27  C   UNL     1      -1.866  12.868  19.451  0.00  0.00    +0.000 C 
ATOM     28  C   UNL     1      -1.612  11.506  20.077  0.00  0.00    +0.000 C 
ATOM     29  N   UNL     1      -0.153  11.355  20.051  0.00  0.00    +0.000 N 
ATOM     30  C   UNL     1       0.476  12.681  19.889  0.00  0.00    +0.000 C 
BRANCH  26  32
ATOM     31  C   UNL     1       0.634  15.595  19.448  0.00  0.00    +0.000 C 
ATOM     32  O   UNL     1      -0.521  14.836  19.112  0.00  0.00    +0.000 OA
ENDBRANCH  26  32
ENDBRANCH  20  29
BRANCH  25  33
ATOM     33  C   UNL     1       0.895   9.333  21.925  0.00  0.00    +0.000 C 
ATOM     34  N   UNL     1       0.750   9.427  23.078  0.00  0.00    +0.000 NA
ENDBRANCH  25  33
ENDBRANCH   1  23
TORSDOF 5
ENDMDL
