MODEL 1
REMARK VINA RESULT:      -8.4      0.000      0.000
REMARK  Name = 
REMARK  12 active torsions:
REMARK  status: ('A' for Active; 'I' for Inactive)
REMARK    1  A    between atoms: C_1  and  O_2
REMARK    2  A    between atoms: O_2  and  C_3
REMARK    3  A    between atoms: C_6  and  C_7
REMARK    4  A    between atoms: N_9  and  C_10
REMARK    5  A    between atoms: C_10  and  C_11
REMARK    6  A    between atoms: C_11  and  C_12
REMARK    7  A    between atoms: N_20  and  C_21
REMARK    8  A    between atoms: C_21  and  C_22
REMARK    9  A    between atoms: C_24  and  C_25
REMARK   10  A    between atoms: C_28  and  C_29
REMARK   11  A    between atoms: C_31  and  O_32
REMARK   12  A    between atoms: O_32  and  C_33
REMARK                            x       y       z     vdW  Elec       q    Type
REMARK                         _______ _______ _______ _____ _____    ______ ____
ROOT
ATOM      1  C   UNL     1       0.679   9.813  19.190  0.00  0.00    +0.000 A 
ATOM      2  N   UNL     1       1.171   9.137  20.209  0.00  0.00    +0.000 NA
ATOM      3  C   UNL     1       0.514   9.592  21.321  0.00  0.00    +0.000 A 
ATOM      4  C   UNL     1       0.661   9.207  22.663  0.00  0.00    +0.000 A 
ATOM      5  C   UNL     1      -0.197   9.758  23.620  0.00  0.00    +0.000 A 
ATOM      6  C   UNL     1      -1.188  10.666  23.247  0.00  0.00    +0.000 A 
ATOM      7  C   UNL     1      -1.316  11.100  21.919  0.00  0.00    +0.000 A 
ATOM      8  C   UNL     1      -0.426  10.560  20.980  0.00  0.00    +0.000 A 
ATOM      9  N   UNL     1      -0.188  10.794  19.640  0.00  0.00    +0.000 N 
ENDROOT
BRANCH   1  10
ATOM     10  C   UNL     1       1.042   9.574  17.761  0.00  0.00    +0.000 C 
BRANCH  10  11
ATOM     11  C   UNL     1       2.478   9.054  17.600  0.00  0.00    +0.000 C 
BRANCH  11  14
ATOM     12  C   UNL     1       3.716   6.921  17.463  0.00  0.00    +0.000 C 
ATOM     13  O   UNL     1       4.529   7.370  16.664  0.00  0.00    +0.000 OA
ATOM     14  N   UNL     1       2.649   7.649  17.941  0.00  0.00    +0.000 N 
ATOM     15  H   UNL     1       1.936   7.211  18.511  0.00  0.00    +0.000 HD
BRANCH  12  19
ATOM     16  C   UNL     1       4.068   2.905  18.955  0.00  0.00    +0.000 A 
ATOM     17  C   UNL     1       5.084   3.852  19.149  0.00  0.00    +0.000 A 
ATOM     18  C   UNL     1       4.951   5.151  18.656  0.00  0.00    +0.000 A 
ATOM     19  C   UNL     1       3.829   5.511  17.915  0.00  0.00    +0.000 A 
ATOM     20  C   UNL     1       2.837   4.555  17.667  0.00  0.00    +0.000 A 
ATOM     21  C   UNL     1       2.949   3.247  18.174  0.00  0.00    +0.000 A 
BRANCH  16  23
ATOM     22  C   UNL     1       4.792   1.564  20.772  0.00  0.00    +0.000 C 
ATOM     23  O   UNL     1       4.162   1.651  19.494  0.00  0.00    +0.000 OA
ENDBRANCH  16  23
BRANCH  21  24
ATOM     24  O   UNL     1       1.873   2.471  17.831  0.00  0.00    +0.000 OA
ATOM     25  C   UNL     1       0.826   2.277  18.768  0.00  0.00    +0.000 C 
ENDBRANCH  21  24
ENDBRANCH  12  19
ENDBRANCH  11  14
ENDBRANCH  10  11
ENDBRANCH   1  10
BRANCH   9  26
ATOM     26  C   UNL     1      -0.778  11.866  18.840  0.00  0.00    +0.000 C 
BRANCH  26  27
ATOM     27  C   UNL     1      -2.076  11.514  18.117  0.00  0.00    +0.000 A 
ATOM     28  C   UNL     1      -2.080  10.908  16.841  0.00  0.00    +0.000 A 
ATOM     29  C   UNL     1      -3.274  10.710  16.122  0.00  0.00    +0.000 A 
ATOM     30  C   UNL     1      -3.261  10.167  14.724  0.00  0.00    +0.000 C 
ATOM     31  C   UNL     1      -4.491  11.070  16.702  0.00  0.00    +0.000 A 
ATOM     32  C   UNL     1      -4.514  11.661  17.960  0.00  0.00    +0.000 A 
ATOM     33  C   UNL     1      -3.321  11.911  18.662  0.00  0.00    +0.000 A 
ATOM     34  C   UNL     1      -3.418  12.657  19.968  0.00  0.00    +0.000 C 
ENDBRANCH  26  27
ENDBRANCH   9  26
TORSDOF 8
ENDMDL
MODEL 2
REMARK VINA RESULT:      -8.3      3.125      9.518
REMARK  Name = 
REMARK  12 active torsions:
REMARK  status: ('A' for Active; 'I' for Inactive)
REMARK    1  A    between atoms: C_1  and  O_2
REMARK    2  A    between atoms: O_2  and  C_3
REMARK    3  A    between atoms: C_6  and  C_7
REMARK    4  A    between atoms: N_9  and  C_10
REMARK    5  A    between atoms: C_10  and  C_11
REMARK    6  A    between atoms: C_11  and  C_12
REMARK    7  A    between atoms: N_20  and  C_21
REMARK    8  A    between atoms: C_21  and  C_22
REMARK    9  A    between atoms: C_24  and  C_25
REMARK   10  A    between atoms: C_28  and  C_29
REMARK   11  A    between atoms: C_31  and  O_32
REMARK   12  A    between atoms: O_32  and  C_33
REMARK                            x       y       z     vdW  Elec       q    Type
REMARK                         _______ _______ _______ _____ _____    ______ ____
ROOT
ATOM      1  C   UNL     1       3.704   6.708  17.782  0.00  0.00    +0.000 A 
ATOM      2  N   UNL     1       4.878   7.146  17.373  0.00  0.00    +0.000 NA
ATOM      3  C   UNL     1       5.456   6.109  16.693  0.00  0.00    +0.000 A 
ATOM      4  C   UNL     1       6.707   6.046  16.059  0.00  0.00    +0.000 A 
ATOM      5  C   UNL     1       7.043   4.891  15.344  0.00  0.00    +0.000 A 
ATOM      6  C   UNL     1       6.146   3.826  15.253  0.00  0.00    +0.000 A 
ATOM      7  C   UNL     1       4.914   3.852  15.921  0.00  0.00    +0.000 A 
ATOM      8  C   UNL     1       4.609   5.005  16.659  0.00  0.00    +0.000 A 
ATOM      9  N   UNL     1       3.569   5.361  17.495  0.00  0.00    +0.000 N 
ENDROOT
BRANCH   1  10
ATOM     10  C   UNL     1       2.688   7.544  18.488  0.00  0.00    +0.000 C 
BRANCH  10  11
ATOM     11  C   UNL     1       2.535   8.937  17.860  0.00  0.00    +0.000 C 
BRANCH  11  14
ATOM     12  C   UNL     1       0.431   9.990  18.612  0.00  0.00    +0.000 C 
ATOM     13  O   UNL     1       0.855  10.181  19.746  0.00  0.00    +0.000 OA
ATOM     14  N   UNL     1       1.156   9.346  17.634  0.00  0.00    +0.000 N 
ATOM     15  H   UNL     1       0.732   9.108  16.747  0.00  0.00    +0.000 HD
BRANCH  12  19
ATOM     16  C   UNL     1      -3.495  11.405  17.579  0.00  0.00    +0.000 A 
ATOM     17  C   UNL     1      -2.793  11.923  18.678  0.00  0.00    +0.000 A 
ATOM     18  C   UNL     1      -1.520  11.450  18.997  0.00  0.00    +0.000 A 
ATOM     19  C   UNL     1      -0.949  10.415  18.262  0.00  0.00    +0.000 A 
ATOM     20  C   UNL     1      -1.667   9.853  17.199  0.00  0.00    +0.000 A 
ATOM     21  C   UNL     1      -2.943  10.333  16.855  0.00  0.00    +0.000 A 
BRANCH  16  23
ATOM     22  C   UNL     1      -5.853  11.278  17.805  0.00  0.00    +0.000 C 
ATOM     23  O   UNL     1      -4.714  11.911  17.220  0.00  0.00    +0.000 OA
ENDBRANCH  16  23
BRANCH  21  24
ATOM     24  O   UNL     1      -3.472   9.660  15.784  0.00  0.00    +0.000 OA
ATOM     25  C   UNL     1      -3.366  10.221  14.486  0.00  0.00    +0.000 C 
ENDBRANCH  21  24
ENDBRANCH  12  19
ENDBRANCH  11  14
ENDBRANCH  10  11
ENDBRANCH   1  10
BRANCH   9  26
ATOM     26  C   UNL     1       2.502   4.476  17.959  0.00  0.00    +0.000 C 
BRANCH  26  27
ATOM     27  C   UNL     1       2.771   3.750  19.275  0.00  0.00    +0.000 A 
ATOM     28  C   UNL     1       3.881   2.893  19.443  0.00  0.00    +0.000 A 
ATOM     29  C   UNL     1       4.050   2.123  20.609  0.00  0.00    +0.000 A 
ATOM     30  C   UNL     1       5.171   1.134  20.735  0.00  0.00    +0.000 C 
ATOM     31  C   UNL     1       3.129   2.246  21.651  0.00  0.00    +0.000 A 
ATOM     32  C   UNL     1       2.032   3.088  21.513  0.00  0.00    +0.000 A 
ATOM     33  C   UNL     1       1.828   3.820  20.329  0.00  0.00    +0.000 A 
ATOM     34  C   UNL     1       0.558   4.623  20.209  0.00  0.00    +0.000 C 
ENDBRANCH  26  27
ENDBRANCH   9  26
TORSDOF 8
ENDMDL
MODEL 3
REMARK VINA RESULT:      -8.3      3.187      9.288
REMARK  Name = 
REMARK  12 active torsions:
REMARK  status: ('A' for Active; 'I' for Inactive)
REMARK    1  A    between atoms: C_1  and  O_2
REMARK    2  A    between atoms: O_2  and  C_3
REMARK    3  A    between atoms: C_6  and  C_7
REMARK    4  A    between atoms: N_9  and  C_10
REMARK    5  A    between atoms: C_10  and  C_11
REMARK    6  A    between atoms: C_11  and  C_12
REMARK    7  A    between atoms: N_20  and  C_21
REMARK    8  A    between atoms: C_21  and  C_22
REMARK    9  A    between atoms: C_24  and  C_25
REMARK   10  A    between atoms: C_28  and  C_29
REMARK   11  A    between atoms: C_31  and  O_32
REMARK   12  A    between atoms: O_32  and  C_33
REMARK                            x       y       z     vdW  Elec       q    Type
REMARK                         _______ _______ _______ _____ _____    ______ ____
ROOT
ATOM      1  C   UNL     1       2.531   6.060  18.558  0.00  0.00    +0.000 A 
ATOM      2  N   UNL     1       1.577   5.877  19.449  0.00  0.00    +0.000 NA
ATOM      3  C   UNL     1       1.777   4.628  19.971  0.00  0.00    +0.000 A 
ATOM      4  C   UNL     1       1.044   3.943  20.953  0.00  0.00    +0.000 A 
ATOM      5  C   UNL     1       1.502   2.696  21.390  0.00  0.00    +0.000 A 
ATOM      6  C   UNL     1       2.674   2.147  20.869  0.00  0.00    +0.000 A 
ATOM      7  C   UNL     1       3.392   2.794  19.852  0.00  0.00    +0.000 A 
ATOM      8  C   UNL     1       2.899   4.028  19.405  0.00  0.00    +0.000 A 
ATOM      9  N   UNL     1       3.264   4.897  18.396  0.00  0.00    +0.000 N 
ENDROOT
BRANCH   1  10
ATOM     10  C   UNL     1       2.754   7.331  17.806  0.00  0.00    +0.000 C 
BRANCH  10  11
ATOM     11  C   UNL     1       2.265   8.564  18.580  0.00  0.00    +0.000 C 
BRANCH  11  14
ATOM     12  C   UNL     1       0.316  10.051  18.882  0.00  0.00    +0.000 C 
ATOM     13  O   UNL     1       0.840  10.658  19.809  0.00  0.00    +0.000 OA
ATOM     14  N   UNL     1       0.910   8.981  18.249  0.00  0.00    +0.000 N 
ATOM     15  H   UNL     1       0.401   8.436  17.565  0.00  0.00    +0.000 HD
BRANCH  12  19
ATOM     16  C   UNL     1      -3.571  11.337  17.571  0.00  0.00    +0.000 A 
ATOM     17  C   UNL     1      -2.985  11.845  18.740  0.00  0.00    +0.000 A 
ATOM     18  C   UNL     1      -1.722  11.414  19.149  0.00  0.00    +0.000 A 
ATOM     19  C   UNL     1      -1.048  10.431  18.431  0.00  0.00    +0.000 A 
ATOM     20  C   UNL     1      -1.651   9.877  17.296  0.00  0.00    +0.000 A 
ATOM     21  C   UNL     1      -2.915  10.316  16.862  0.00  0.00    +0.000 A 
BRANCH  16  23
ATOM     22  C   UNL     1      -5.924  11.379  17.866  0.00  0.00    +0.000 C 
ATOM     23  O   UNL     1      -4.778  11.806  17.128  0.00  0.00    +0.000 OA
ENDBRANCH  16  23
BRANCH  21  24
ATOM     24  O   UNL     1      -3.324   9.659  15.730  0.00  0.00    +0.000 OA
ATOM     25  C   UNL     1      -3.131  10.267  14.463  0.00  0.00    +0.000 C 
ENDBRANCH  21  24
ENDBRANCH  12  19
ENDBRANCH  11  14
ENDBRANCH  10  11
ENDBRANCH   1  10
BRANCH   9  26
ATOM     26  C   UNL     1       4.271   4.641  17.368  0.00  0.00    +0.000 C 
BRANCH  26  27
ATOM     27  C   UNL     1       5.626   5.308  17.588  0.00  0.00    +0.000 A 
ATOM     28  C   UNL     1       6.409   5.049  18.734  0.00  0.00    +0.000 A 
ATOM     29  C   UNL     1       7.591   5.766  18.998  0.00  0.00    +0.000 A 
ATOM     30  C   UNL     1       8.359   5.563  20.271  0.00  0.00    +0.000 C 
ATOM     31  C   UNL     1       8.034   6.721  18.081  0.00  0.00    +0.000 A 
ATOM     32  C   UNL     1       7.284   6.988  16.941  0.00  0.00    +0.000 A 
ATOM     33  C   UNL     1       6.074   6.314  16.697  0.00  0.00    +0.000 A 
ATOM     34  C   UNL     1       5.261   6.738  15.501  0.00  0.00    +0.000 C 
ENDBRANCH  26  27
ENDBRANCH   9  26
TORSDOF 8
ENDMDL
MODEL 4
REMARK VINA RESULT:      -8.1      4.433      8.607
REMARK  Name = 
REMARK  12 active torsions:
REMARK  status: ('A' for Active; 'I' for Inactive)
REMARK    1  A    between atoms: C_1  and  O_2
REMARK    2  A    between atoms: O_2  and  C_3
REMARK    3  A    between atoms: C_6  and  C_7
REMARK    4  A    between atoms: N_9  and  C_10
REMARK    5  A    between atoms: C_10  and  C_11
REMARK    6  A    between atoms: C_11  and  C_12
REMARK    7  A    between atoms: N_20  and  C_21
REMARK    8  A    between atoms: C_21  and  C_22
REMARK    9  A    between atoms: C_24  and  C_25
REMARK   10  A    between atoms: C_28  and  C_29
REMARK   11  A    between atoms: C_31  and  O_32
REMARK   12  A    between atoms: O_32  and  C_33
REMARK                            x       y       z     vdW  Elec       q    Type
REMARK                         _______ _______ _______ _____ _____    ______ ____
ROOT
ATOM      1  C   UNL     1       4.134   7.138  17.166  0.00  0.00    +0.000 A 
ATOM      2  N   UNL     1       3.347   8.150  16.861  0.00  0.00    +0.000 NA
ATOM      3  C   UNL     1       2.528   8.336  17.943  0.00  0.00    +0.000 A 
ATOM      4  C   UNL     1       1.507   9.280  18.136  0.00  0.00    +0.000 A 
ATOM      5  C   UNL     1       0.862   9.331  19.377  0.00  0.00    +0.000 A 
ATOM      6  C   UNL     1       1.235   8.467  20.407  0.00  0.00    +0.000 A 
ATOM      7  C   UNL     1       2.218   7.485  20.215  0.00  0.00    +0.000 A 
ATOM      8  C   UNL     1       2.830   7.429  18.954  0.00  0.00    +0.000 A 
ATOM      9  N   UNL     1       3.748   6.577  18.371  0.00  0.00    +0.000 N 
ENDROOT
BRANCH   1  10
ATOM     10  C   UNL     1       5.253   6.648  16.308  0.00  0.00    +0.000 C 
BRANCH  10  11
ATOM     11  C   UNL     1       6.610   6.708  17.023  0.00  0.00    +0.000 C 
BRANCH  11  14
ATOM     12  C   UNL     1       8.096   8.297  18.194  0.00  0.00    +0.000 C 
ATOM     13  O   UNL     1       8.577   7.423  18.906  0.00  0.00    +0.000 OA
ATOM     14  N   UNL     1       7.095   8.057  17.279  0.00  0.00    +0.000 N 
ATOM     15  H   UNL     1       6.646   8.821  16.790  0.00  0.00    +0.000 HD
BRANCH  12  19
ATOM     16  C   UNL     1       9.612  12.302  18.566  0.00  0.00    +0.000 A 
ATOM     17  C   UNL     1      10.141  11.243  19.320  0.00  0.00    +0.000 A 
ATOM     18  C   UNL     1       9.635   9.950  19.185  0.00  0.00    +0.000 A 
ATOM     19  C   UNL     1       8.557   9.701  18.340  0.00  0.00    +0.000 A 
ATOM     20  C   UNL     1       7.986  10.762  17.627  0.00  0.00    +0.000 A 
ATOM     21  C   UNL     1       8.500  12.068  17.739  0.00  0.00    +0.000 A 
BRANCH  16  23
ATOM     22  C   UNL     1       9.858  14.292  19.833  0.00  0.00    +0.000 C 
ATOM     23  O   UNL     1      10.149  13.558  18.643  0.00  0.00    +0.000 OA
ENDBRANCH  16  23
BRANCH  21  24
ATOM     24  O   UNL     1       7.810  12.957  16.957  0.00  0.00    +0.000 OA
ATOM     25  C   UNL     1       6.915  13.873  17.567  0.00  0.00    +0.000 C 
ENDBRANCH  21  24
ENDBRANCH  12  19
ENDBRANCH  11  14
ENDBRANCH  10  11
ENDBRANCH   1  10
BRANCH   9  26
ATOM     26  C   UNL     1       4.243   5.328  18.948  0.00  0.00    +0.000 C 
BRANCH  26  27
ATOM     27  C   UNL     1       3.203   4.225  19.125  0.00  0.00    +0.000 A 
ATOM     28  C   UNL     1       2.607   3.952  20.377  0.00  0.00    +0.000 A 
ATOM     29  C   UNL     1       1.753   2.850  20.563  0.00  0.00    +0.000 A 
ATOM     30  C   UNL     1       1.212   2.503  21.919  0.00  0.00    +0.000 C 
ATOM     31  C   UNL     1       1.441   2.032  19.476  0.00  0.00    +0.000 A 
ATOM     32  C   UNL     1       2.008   2.284  18.233  0.00  0.00    +0.000 A 
ATOM     33  C   UNL     1       2.905   3.352  18.050  0.00  0.00    +0.000 A 
ATOM     34  C   UNL     1       3.566   3.493  16.703  0.00  0.00    +0.000 C 
ENDBRANCH  26  27
ENDBRANCH   9  26
TORSDOF 8
ENDMDL
MODEL 5
REMARK VINA RESULT:      -8.1      2.077      3.293
REMARK  Name = 
REMARK  12 active torsions:
REMARK  status: ('A' for Active; 'I' for Inactive)
REMARK    1  A    between atoms: C_1  and  O_2
REMARK    2  A    between atoms: O_2  and  C_3
REMARK    3  A    between atoms: C_6  and  C_7
REMARK    4  A    between atoms: N_9  and  C_10
REMARK    5  A    between atoms: C_10  and  C_11
REMARK    6  A    between atoms: C_11  and  C_12
REMARK    7  A    between atoms: N_20  and  C_21
REMARK    8  A    between atoms: C_21  and  C_22
REMARK    9  A    between atoms: C_24  and  C_25
REMARK   10  A    between atoms: C_28  and  C_29
REMARK   11  A    between atoms: C_31  and  O_32
REMARK   12  A    between atoms: O_32  and  C_33
REMARK                            x       y       z     vdW  Elec       q    Type
REMARK                         _______ _______ _______ _____ _____    ______ ____
ROOT
ATOM      1  C   UNL     1       0.386  10.681  19.863  0.00  0.00    +0.000 A 
ATOM      2  N   UNL     1       1.555  10.890  19.290  0.00  0.00    +0.000 NA
ATOM      3  C   UNL     1       1.591  12.222  18.974  0.00  0.00    +0.000 A 
ATOM      4  C   UNL     1       2.606  12.962  18.347  0.00  0.00    +0.000 A 
ATOM      5  C   UNL     1       2.447  14.345  18.211  0.00  0.00    +0.000 A 
ATOM      6  C   UNL     1       1.304  14.979  18.699  0.00  0.00    +0.000 A 
ATOM      7  C   UNL     1       0.258  14.249  19.283  0.00  0.00    +0.000 A 
ATOM      8  C   UNL     1       0.423  12.860  19.381  0.00  0.00    +0.000 A 
ATOM      9  N   UNL     1      -0.390  11.826  19.800  0.00  0.00    +0.000 N 
ENDROOT
BRANCH   1  10
ATOM     10  C   UNL     1      -0.044   9.380  20.456  0.00  0.00    +0.000 C 
BRANCH  10  11
ATOM     11  C   UNL     1       1.098   8.663  21.190  0.00  0.00    +0.000 C 
BRANCH  11  14
ATOM     12  C   UNL     1       1.919   6.535  20.241  0.00  0.00    +0.000 C 
ATOM     13  O   UNL     1       1.178   5.860  20.946  0.00  0.00    +0.000 OA
ATOM     14  N   UNL     1       1.989   7.909  20.321  0.00  0.00    +0.000 N 
ATOM     15  H   UNL     1       2.691   8.422  19.803  0.00  0.00    +0.000 HD
BRANCH  12  19
ATOM     16  C   UNL     1       4.702   4.736  17.503  0.00  0.00    +0.000 A 
ATOM     17  C   UNL     1       4.272   6.063  17.348  0.00  0.00    +0.000 A 
ATOM     18  C   UNL     1       3.367   6.628  18.247  0.00  0.00    +0.000 A 
ATOM     19  C   UNL     1       2.834   5.866  19.282  0.00  0.00    +0.000 A 
ATOM     20  C   UNL     1       3.214   4.524  19.410  0.00  0.00    +0.000 A 
ATOM     21  C   UNL     1       4.140   3.947  18.522  0.00  0.00    +0.000 A 
BRANCH  16  23
ATOM     22  C   UNL     1       6.987   4.622  16.878  0.00  0.00    +0.000 C 
ATOM     23  O   UNL     1       5.640   4.198  16.665  0.00  0.00    +0.000 OA
ENDBRANCH  16  23
BRANCH  21  24
ATOM     24  O   UNL     1       4.386   2.632  18.822  0.00  0.00    +0.000 OA
ATOM     25  C   UNL     1       3.484   1.634  18.371  0.00  0.00    +0.000 C 
ENDBRANCH  21  24
ENDBRANCH  12  19
ENDBRANCH  11  14
ENDBRANCH  10  11
ENDBRANCH   1  10
BRANCH   9  26
ATOM     26  C   UNL     1      -1.806  11.936  20.146  0.00  0.00    +0.000 C 
BRANCH  26  27
ATOM     27  C   UNL     1      -2.787  11.674  19.007  0.00  0.00    +0.000 A 
ATOM     28  C   UNL     1      -2.368  11.152  17.764  0.00  0.00    +0.000 A 
ATOM     29  C   UNL     1      -3.252  11.040  16.674  0.00  0.00    +0.000 A 
ATOM     30  C   UNL     1      -2.774  10.588  15.326  0.00  0.00    +0.000 C 
ATOM     31  C   UNL     1      -4.590  11.402  16.836  0.00  0.00    +0.000 A 
ATOM     32  C   UNL     1      -5.029  11.912  18.052  0.00  0.00    +0.000 A 
ATOM     33  C   UNL     1      -4.140  12.077  19.130  0.00  0.00    +0.000 A 
ATOM     34  C   UNL     1      -4.663  12.741  20.378  0.00  0.00    +0.000 C 
ENDBRANCH  26  27
ENDBRANCH   9  26
TORSDOF 8
ENDMDL
MODEL 6
REMARK VINA RESULT:      -8.1      3.340      9.267
REMARK  Name = 
REMARK  12 active torsions:
REMARK  status: ('A' for Active; 'I' for Inactive)
REMARK    1  A    between atoms: C_1  and  O_2
REMARK    2  A    between atoms: O_2  and  C_3
REMARK    3  A    between atoms: C_6  and  C_7
REMARK    4  A    between atoms: N_9  and  C_10
REMARK    5  A    between atoms: C_10  and  C_11
REMARK    6  A    between atoms: C_11  and  C_12
REMARK    7  A    between atoms: N_20  and  C_21
REMARK    8  A    between atoms: C_21  and  C_22
REMARK    9  A    between atoms: C_24  and  C_25
REMARK   10  A    between atoms: C_28  and  C_29
REMARK   11  A    between atoms: C_31  and  O_32
REMARK   12  A    between atoms: O_32  and  C_33
REMARK                            x       y       z     vdW  Elec       q    Type
REMARK                         _______ _______ _______ _____ _____    ______ ____
ROOT
ATOM      1  C   UNL     1       2.658   6.422  18.349  0.00  0.00    +0.000 A 
ATOM      2  N   UNL     1       2.006   6.441  19.495  0.00  0.00    +0.000 NA
ATOM      3  C   UNL     1       2.169   5.199  20.046  0.00  0.00    +0.000 A 
ATOM      4  C   UNL     1       1.676   4.691  21.259  0.00  0.00    +0.000 A 
ATOM      5  C   UNL     1       2.056   3.404  21.654  0.00  0.00    +0.000 A 
ATOM      6  C   UNL     1       2.917   2.643  20.863  0.00  0.00    +0.000 A 
ATOM      7  C   UNL     1       3.378   3.115  19.626  0.00  0.00    +0.000 A 
ATOM      8  C   UNL     1       2.961   4.394  19.232  0.00  0.00    +0.000 A 
ATOM      9  N   UNL     1       3.126   5.146  18.086  0.00  0.00    +0.000 N 
ENDROOT
BRANCH   1  10
ATOM     10  C   UNL     1       2.827   7.604  17.452  0.00  0.00    +0.000 C 
BRANCH  10  11
ATOM     11  C   UNL     1       2.387   8.914  18.119  0.00  0.00    +0.000 C 
BRANCH  11  14
ATOM     12  C   UNL     1       0.253   9.989  18.748  0.00  0.00    +0.000 C 
ATOM     13  O   UNL     1       0.637  10.233  19.886  0.00  0.00    +0.000 OA
ATOM     14  N   UNL     1       1.015   9.305  17.827  0.00  0.00    +0.000 N 
ATOM     15  H   UNL     1       0.624   9.025  16.937  0.00  0.00    +0.000 HD
BRANCH  12  19
ATOM     16  C   UNL     1      -3.643  11.339  17.535  0.00  0.00    +0.000 A 
ATOM     17  C   UNL     1      -3.030  11.819  18.701  0.00  0.00    +0.000 A 
ATOM     18  C   UNL     1      -1.765  11.368  19.079  0.00  0.00    +0.000 A 
ATOM     19  C   UNL     1      -1.114  10.391  18.331  0.00  0.00    +0.000 A 
ATOM     20  C   UNL     1      -1.744   9.864  17.197  0.00  0.00    +0.000 A 
ATOM     21  C   UNL     1      -3.012  10.324  16.795  0.00  0.00    +0.000 A 
BRANCH  16  23
ATOM     22  C   UNL     1      -5.984  11.440  17.905  0.00  0.00    +0.000 C 
ATOM     23  O   UNL     1      -4.854  11.827  17.123  0.00  0.00    +0.000 OA
ENDBRANCH  16  23
BRANCH  21  24
ATOM     24  O   UNL     1      -3.449   9.692  15.659  0.00  0.00    +0.000 OA
ATOM     25  C   UNL     1      -3.042  10.178  14.391  0.00  0.00    +0.000 C 
ENDBRANCH  21  24
ENDBRANCH  12  19
ENDBRANCH  11  14
ENDBRANCH  10  11
ENDBRANCH   1  10
BRANCH   9  26
ATOM     26  C   UNL     1       3.720   4.679  16.834  0.00  0.00    +0.000 C 
BRANCH  26  27
ATOM     27  C   UNL     1       5.197   5.013  16.639  0.00  0.00    +0.000 A 
ATOM     28  C   UNL     1       5.926   5.765  17.587  0.00  0.00    +0.000 A 
ATOM     29  C   UNL     1       7.246   6.184  17.340  0.00  0.00    +0.000 A 
ATOM     30  C   UNL     1       7.975   7.074  18.303  0.00  0.00    +0.000 C 
ATOM     31  C   UNL     1       7.875   5.804  16.153  0.00  0.00    +0.000 A 
ATOM     32  C   UNL     1       7.182   5.058  15.208  0.00  0.00    +0.000 A 
ATOM     33  C   UNL     1       5.844   4.681  15.424  0.00  0.00    +0.000 A 
ATOM     34  C   UNL     1       5.124   3.971  14.306  0.00  0.00    +0.000 C 
ENDBRANCH  26  27
ENDBRANCH   9  26
TORSDOF 8
ENDMDL
MODEL 7
REMARK VINA RESULT:      -8.0      3.561      9.746
REMARK  Name = 
REMARK  12 active torsions:
REMARK  status: ('A' for Active; 'I' for Inactive)
REMARK    1  A    between atoms: C_1  and  O_2
REMARK    2  A    between atoms: O_2  and  C_3
REMARK    3  A    between atoms: C_6  and  C_7
REMARK    4  A    between atoms: N_9  and  C_10
REMARK    5  A    between atoms: C_10  and  C_11
REMARK    6  A    between atoms: C_11  and  C_12
REMARK    7  A    between atoms: N_20  and  C_21
REMARK    8  A    between atoms: C_21  and  C_22
REMARK    9  A    between atoms: C_24  and  C_25
REMARK   10  A    between atoms: C_28  and  C_29
REMARK   11  A    between atoms: C_31  and  O_32
REMARK   12  A    between atoms: O_32  and  C_33
REMARK                            x       y       z     vdW  Elec       q    Type
REMARK                         _______ _______ _______ _____ _____    ______ ____
ROOT
ATOM      1  C   UNL     1       2.241   6.180  19.508  0.00  0.00    +0.000 A 
ATOM      2  N   UNL     1       1.456   5.245  20.007  0.00  0.00    +0.000 NA
ATOM      3  C   UNL     1       1.760   4.093  19.333  0.00  0.00    +0.000 A 
ATOM      4  C   UNL     1       1.215   2.807  19.474  0.00  0.00    +0.000 A 
ATOM      5  C   UNL     1       1.758   1.758  18.726  0.00  0.00    +0.000 A 
ATOM      6  C   UNL     1       2.832   1.983  17.863  0.00  0.00    +0.000 A 
ATOM      7  C   UNL     1       3.356   3.270  17.672  0.00  0.00    +0.000 A 
ATOM      8  C   UNL     1       2.776   4.314  18.407  0.00  0.00    +0.000 A 
ATOM      9  N   UNL     1       2.952   5.683  18.429  0.00  0.00    +0.000 N 
ENDROOT
BRANCH   1  10
ATOM     10  C   UNL     1       2.315   7.582  20.016  0.00  0.00    +0.000 C 
BRANCH  10  11
ATOM     11  C   UNL     1       1.495   7.786  21.298  0.00  0.00    +0.000 C 
BRANCH  11  14
ATOM     12  C   UNL     1       0.275   9.707  22.258  0.00  0.00    +0.000 C 
ATOM     13  O   UNL     1       0.827   9.597  23.346  0.00  0.00    +0.000 OA
ATOM     14  N   UNL     1       0.496   8.841  21.210  0.00  0.00    +0.000 N 
ATOM     15  H   UNL     1      -0.060   8.897  20.366  0.00  0.00    +0.000 HD
BRANCH  12  19
ATOM     16  C   UNL     1      -2.534  12.927  21.788  0.00  0.00    +0.000 A 
ATOM     17  C   UNL     1      -2.368  12.271  23.017  0.00  0.00    +0.000 A 
ATOM     18  C   UNL     1      -1.451  11.228  23.149  0.00  0.00    +0.000 A 
ATOM     19  C   UNL     1      -0.726  10.784  22.047  0.00  0.00    +0.000 A 
ATOM     20  C   UNL     1      -0.928  11.395  20.803  0.00  0.00    +0.000 A 
ATOM     21  C   UNL     1      -1.835  12.461  20.660  0.00  0.00    +0.000 A 
BRANCH  16  23
ATOM     22  C   UNL     1      -4.740  13.762  22.042  0.00  0.00    +0.000 C 
ATOM     23  O   UNL     1      -3.381  13.995  21.669  0.00  0.00    +0.000 OA
ENDBRANCH  16  23
BRANCH  21  24
ATOM     24  O   UNL     1      -1.880  12.925  19.371  0.00  0.00    +0.000 OA
ATOM     25  C   UNL     1      -0.668  13.159  18.673  0.00  0.00    +0.000 C 
ENDBRANCH  21  24
ENDBRANCH  12  19
ENDBRANCH  11  14
ENDBRANCH  10  11
ENDBRANCH   1  10
BRANCH   9  26
ATOM     26  C   UNL     1       3.772   6.456  17.498  0.00  0.00    +0.000 C 
BRANCH  26  27
ATOM     27  C   UNL     1       5.000   5.738  16.945  0.00  0.00    +0.000 A 
ATOM     28  C   UNL     1       5.068   5.295  15.605  0.00  0.00    +0.000 A 
ATOM     29  C   UNL     1       6.143   4.517  15.138  0.00  0.00    +0.000 A 
ATOM     30  C   UNL     1       6.155   3.959  13.746  0.00  0.00    +0.000 C 
ATOM     31  C   UNL     1       7.197   4.216  16.002  0.00  0.00    +0.000 A 
ATOM     32  C   UNL     1       7.158   4.646  17.323  0.00  0.00    +0.000 A 
ATOM     33  C   UNL     1       6.061   5.379  17.812  0.00  0.00    +0.000 A 
ATOM     34  C   UNL     1       6.036   5.712  19.281  0.00  0.00    +0.000 C 
ENDBRANCH  26  27
ENDBRANCH   9  26
TORSDOF 8
ENDMDL
MODEL 8
REMARK VINA RESULT:      -8.0      2.241      3.642
REMARK  Name = 
REMARK  12 active torsions:
REMARK  status: ('A' for Active; 'I' for Inactive)
REMARK    1  A    between atoms: C_1  and  O_2
REMARK    2  A    between atoms: O_2  and  C_3
REMARK    3  A    between atoms: C_6  and  C_7
REMARK    4  A    between atoms: N_9  and  C_10
REMARK    5  A    between atoms: C_10  and  C_11
REMARK    6  A    between atoms: C_11  and  C_12
REMARK    7  A    between atoms: N_20  and  C_21
REMARK    8  A    between atoms: C_21  and  C_22
REMARK    9  A    between atoms: C_24  and  C_25
REMARK   10  A    between atoms: C_28  and  C_29
REMARK   11  A    between atoms: C_31  and  O_32
REMARK   12  A    between atoms: O_32  and  C_33
REMARK                            x       y       z     vdW  Elec       q    Type
REMARK                         _______ _______ _______ _____ _____    ______ ____
ROOT
ATOM      1  C   UNL     1       0.545  11.333  20.800  0.00  0.00    +0.000 A 
ATOM      2  N   UNL     1       1.360  12.187  21.387  0.00  0.00    +0.000 NA
ATOM      3  C   UNL     1       1.333  13.325  20.626  0.00  0.00    +0.000 A 
ATOM      4  C   UNL     1       2.021  14.535  20.806  0.00  0.00    +0.000 A 
ATOM      5  C   UNL     1       1.758  15.596  19.934  0.00  0.00    +0.000 A 
ATOM      6  C   UNL     1       0.820  15.459  18.910  0.00  0.00    +0.000 A 
ATOM      7  C   UNL     1       0.161  14.242  18.685  0.00  0.00    +0.000 A 
ATOM      8  C   UNL     1       0.462  13.180  19.549  0.00  0.00    +0.000 A 
ATOM      9  N   UNL     1       0.097  11.849  19.596  0.00  0.00    +0.000 N 
ENDROOT
BRANCH   1  10
ATOM     10  C   UNL     1       0.195   9.987  21.343  0.00  0.00    +0.000 C 
BRANCH  10  11
ATOM     11  C   UNL     1       1.437   9.163  21.713  0.00  0.00    +0.000 C 
BRANCH  11  14
ATOM     12  C   UNL     1       1.892   7.521  19.924  0.00  0.00    +0.000 C 
ATOM     13  O   UNL     1       2.247   8.385  19.131  0.00  0.00    +0.000 OA
ATOM     14  N   UNL     1       1.432   7.803  21.191  0.00  0.00    +0.000 N 
ATOM     15  H   UNL     1       1.043   7.075  21.775  0.00  0.00    +0.000 HD
BRANCH  12  19
ATOM     16  C   UNL     1       2.099   3.409  18.688  0.00  0.00    +0.000 A 
ATOM     17  C   UNL     1       2.501   4.452  17.840  0.00  0.00    +0.000 A 
ATOM     18  C   UNL     1       2.425   5.780  18.260  0.00  0.00    +0.000 A 
ATOM     19  C   UNL     1       1.897   6.095  19.508  0.00  0.00    +0.000 A 
ATOM     20  C   UNL     1       1.440   5.064  20.338  0.00  0.00    +0.000 A 
ATOM     21  C   UNL     1       1.528   3.719  19.935  0.00  0.00    +0.000 A 
BRANCH  16  23
ATOM     22  C   UNL     1       3.565   1.662  18.035  0.00  0.00    +0.000 C 
ATOM     23  O   UNL     1       2.234   2.101  18.309  0.00  0.00    +0.000 OA
ENDBRANCH  16  23
BRANCH  21  24
ATOM     24  O   UNL     1       1.039   2.865  20.890  0.00  0.00    +0.000 OA
ATOM     25  C   UNL     1       1.902   2.397  21.914  0.00  0.00    +0.000 C 
ENDBRANCH  21  24
ENDBRANCH  12  19
ENDBRANCH  11  14
ENDBRANCH  10  11
ENDBRANCH   1  10
BRANCH   9  26
ATOM     26  C   UNL     1      -0.658  11.132  18.570  0.00  0.00    +0.000 C 
BRANCH  26  27
ATOM     27  C   UNL     1      -2.157  11.423  18.528  0.00  0.00    +0.000 A 
ATOM     28  C   UNL     1      -2.803  12.167  19.538  0.00  0.00    +0.000 A 
ATOM     29  C   UNL     1      -4.202  12.317  19.565  0.00  0.00    +0.000 A 
ATOM     30  C   UNL     1      -4.891  13.015  20.700  0.00  0.00    +0.000 C 
ATOM     31  C   UNL     1      -4.971  11.763  18.540  0.00  0.00    +0.000 A 
ATOM     32  C   UNL     1      -4.357  11.032  17.530  0.00  0.00    +0.000 A 
ATOM     33  C   UNL     1      -2.965  10.832  17.525  0.00  0.00    +0.000 A 
ATOM     34  C   UNL     1      -2.386   9.935  16.462  0.00  0.00    +0.000 C 
ENDBRANCH  26  27
ENDBRANCH   9  26
TORSDOF 8
ENDMDL
MODEL 9
REMARK VINA RESULT:      -7.9      3.313      9.596
REMARK  Name = 
REMARK  12 active torsions:
REMARK  status: ('A' for Active; 'I' for Inactive)
REMARK    1  A    between atoms: C_1  and  O_2
REMARK    2  A    between atoms: O_2  and  C_3
REMARK    3  A    between atoms: C_6  and  C_7
REMARK    4  A    between atoms: N_9  and  C_10
REMARK    5  A    between atoms: C_10  and  C_11
REMARK    6  A    between atoms: C_11  and  C_12
REMARK    7  A    between atoms: N_20  and  C_21
REMARK    8  A    between atoms: C_21  and  C_22
REMARK    9  A    between atoms: C_24  and  C_25
REMARK   10  A    between atoms: C_28  and  C_29
REMARK   11  A    between atoms: C_31  and  O_32
REMARK   12  A    between atoms: O_32  and  C_33
REMARK                            x       y       z     vdW  Elec       q    Type
REMARK                         _______ _______ _______ _____ _____    ______ ____
ROOT
ATOM      1  C   UNL     1       2.259   6.425  19.306  0.00  0.00    +0.000 A 
ATOM      2  N   UNL     1       1.370   5.761  20.018  0.00  0.00    +0.000 NA
ATOM      3  C   UNL     1       1.538   4.440  19.702  0.00  0.00    +0.000 A 
ATOM      4  C   UNL     1       0.846   3.315  20.176  0.00  0.00    +0.000 A 
ATOM      5  C   UNL     1       1.264   2.044  19.767  0.00  0.00    +0.000 A 
ATOM      6  C   UNL     1       2.356   1.897  18.911  0.00  0.00    +0.000 A 
ATOM      7  C   UNL     1       3.027   3.012  18.388  0.00  0.00    +0.000 A 
ATOM      8  C   UNL     1       2.573   4.278  18.785  0.00  0.00    +0.000 A 
ATOM      9  N   UNL     1       2.907   5.570  18.432  0.00  0.00    +0.000 N 
ENDROOT
BRANCH   1  10
ATOM     10  C   UNL     1       2.495   7.896  19.406  0.00  0.00    +0.000 C 
BRANCH  10  11
ATOM     11  C   UNL     1       2.136   8.638  18.111  0.00  0.00    +0.000 C 
BRANCH  11  14
ATOM     12  C   UNL     1       0.297  10.253  18.449  0.00  0.00    +0.000 C 
ATOM     13  O   UNL     1       1.021  11.056  19.025  0.00  0.00    +0.000 OA
ATOM     14  N   UNL     1       0.735   9.023  18.010  0.00  0.00    +0.000 N 
ATOM     15  H   UNL     1       0.083   8.343  17.639  0.00  0.00    +0.000 HD
BRANCH  12  19
ATOM     16  C   UNL     1      -3.902  10.980  17.886  0.00  0.00    +0.000 A 
ATOM     17  C   UNL     1      -3.187  10.116  17.043  0.00  0.00    +0.000 A 
ATOM     18  C   UNL     1      -1.824   9.894  17.242  0.00  0.00    +0.000 A 
ATOM     19  C   UNL     1      -1.140  10.570  18.248  0.00  0.00    +0.000 A 
ATOM     20  C   UNL     1      -1.835  11.478  19.057  0.00  0.00    +0.000 A 
ATOM     21  C   UNL     1      -3.213  11.697  18.879  0.00  0.00    +0.000 A 
BRANCH  16  23
ATOM     22  C   UNL     1      -5.664  12.342  17.069  0.00  0.00    +0.000 C 
ATOM     23  O   UNL     1      -5.252  11.150  17.738  0.00  0.00    +0.000 OA
ENDBRANCH  16  23
BRANCH  21  24
ATOM     24  O   UNL     1      -3.705  12.611  19.775  0.00  0.00    +0.000 OA
ATOM     25  C   UNL     1      -3.078  12.756  21.039  0.00  0.00    +0.000 C 
ENDBRANCH  21  24
ENDBRANCH  12  19
ENDBRANCH  11  14
ENDBRANCH  10  11
ENDBRANCH   1  10
BRANCH   9  26
ATOM     26  C   UNL     1       3.811   5.955  17.349  0.00  0.00    +0.000 C 
BRANCH  26  27
ATOM     27  C   UNL     1       5.240   5.427  17.462  0.00  0.00    +0.000 A 
ATOM     28  C   UNL     1       6.038   5.667  18.602  0.00  0.00    +0.000 A 
ATOM     29  C   UNL     1       7.395   5.296  18.644  0.00  0.00    +0.000 A 
ATOM     30  C   UNL     1       8.265   5.652  19.814  0.00  0.00    +0.000 C 
ATOM     31  C   UNL     1       7.957   4.625  17.557  0.00  0.00    +0.000 A 
ATOM     32  C   UNL     1       7.189   4.370  16.426  0.00  0.00    +0.000 A 
ATOM     33  C   UNL     1       5.847   4.786  16.355  0.00  0.00    +0.000 A 
ATOM     34  C   UNL     1       5.114   4.576  15.055  0.00  0.00    +0.000 C 
ENDBRANCH  26  27
ENDBRANCH   9  26
TORSDOF 8
ENDMDL
