MODEL 1
REMARK VINA RESULT:      -7.7      0.000      0.000
REMARK  Name = 
REMARK  8 active torsions:
REMARK  status: ('A' for Active; 'I' for Inactive)
REMARK    1  A    between atoms: C_1  and  O_2
REMARK    2  A    between atoms: O_2  and  C_3
REMARK    3  A    between atoms: C_8  and  C_9
REMARK    4  A    between atoms: C_10  and  C_11
REMARK    5  A    between atoms: C_11  and  C_13
REMARK    6  A    between atoms: C_13  and  N_14
REMARK    7  A    between atoms: C_16  and  C_17
REMARK    8  A    between atoms: C_19  and  C_20
REMARK                            x       y       z     vdW  Elec       q    Type
REMARK                         _______ _______ _______ _____ _____    ______ ____
ROOT
ATOM      1  C   UNL     1       1.749   8.458  18.879  0.00  0.00    +0.000 A 
ATOM      2  C   UNL     1       1.491   8.538  20.243  0.00  0.00    +0.000 A 
ATOM      3  C   UNL     1       1.621   7.409  21.065  0.00  0.00    +0.000 A 
ATOM      4  C   UNL     1       2.021   6.206  20.477  0.00  0.00    +0.000 A 
ATOM      5  N   UNL     1       2.205   4.966  21.040  0.00  0.00    +0.000 N 
ATOM      6  C   UNL     1       2.605   4.059  20.091  0.00  0.00    +0.000 A 
ATOM      7  C   UNL     1       2.884   2.641  20.452  0.00  0.00    +0.000 C 
ATOM      8  C   UNL     1       2.711   4.731  18.876  0.00  0.00    +0.000 A 
ATOM      9  C   UNL     1       2.314   6.090  19.119  0.00  0.00    +0.000 A 
ATOM     10  C   UNL     1       2.160   7.244  18.324  0.00  0.00    +0.000 A 
ATOM     11  H   UNL     1       2.064   4.758  22.020  0.00  0.00    +0.000 HD
ENDROOT
BRANCH   1  13
ATOM     12  C   UNL     1       0.596  10.410  18.167  0.00  0.00    +0.000 C 
ATOM     13  O   UNL     1       1.640   9.470  17.966  0.00  0.00    +0.000 OA
ENDBRANCH   1  13
BRANCH   8  14
ATOM     14  C   UNL     1       3.171   4.116  17.623  0.00  0.00    +0.000 C 
ATOM     15  O   UNL     1       2.432   3.376  16.963  0.00  0.00    +0.000 OA
BRANCH  14  16
ATOM     16  C   UNL     1       4.614   4.338  17.157  0.00  0.00    +0.000 C 
BRANCH  16  17
ATOM     17  N   UNL     1       4.736   5.589  16.370  0.00  0.00    +0.000 NA
ATOM     18  C   UNL     1       5.553   6.602  17.081  0.00  0.00    +0.000 C 
ATOM     19  C   UNL     1       7.039   6.197  17.185  0.00  0.00    +0.000 C 
ATOM     20  C   UNL     1       7.837   7.260  17.920  0.00  0.00    +0.000 C 
ATOM     21  O   UNL     1       7.596   6.009  15.871  0.00  0.00    +0.000 OA
ATOM     22  C   UNL     1       6.867   5.004  15.139  0.00  0.00    +0.000 C 
ATOM     23  C   UNL     1       7.483   4.889  13.751  0.00  0.00    +0.000 C 
ATOM     24  C   UNL     1       5.364   5.356  15.052  0.00  0.00    +0.000 C 
ENDBRANCH  16  17
ENDBRANCH  14  16
ENDBRANCH   8  14
TORSDOF 4
ENDMDL
MODEL 2
REMARK VINA RESULT:      -7.6      2.306      7.115
REMARK  Name = 
REMARK  8 active torsions:
REMARK  status: ('A' for Active; 'I' for Inactive)
REMARK    1  A    between atoms: C_1  and  O_2
REMARK    2  A    between atoms: O_2  and  C_3
REMARK    3  A    between atoms: C_8  and  C_9
REMARK    4  A    between atoms: C_10  and  C_11
REMARK    5  A    between atoms: C_11  and  C_13
REMARK    6  A    between atoms: C_13  and  N_14
REMARK    7  A    between atoms: C_16  and  C_17
REMARK    8  A    between atoms: C_19  and  C_20
REMARK                            x       y       z     vdW  Elec       q    Type
REMARK                         _______ _______ _______ _____ _____    ______ ____
ROOT
ATOM      1  C   UNL     1       5.956   3.480  12.500  0.00  0.00    +0.000 A 
ATOM      2  C   UNL     1       7.075   4.224  12.143  0.00  0.00    +0.000 A 
ATOM      3  C   UNL     1       7.717   5.048  13.079  0.00  0.00    +0.000 A 
ATOM      4  C   UNL     1       7.203   5.097  14.378  0.00  0.00    +0.000 A 
ATOM      5  N   UNL     1       7.622   5.824  15.467  0.00  0.00    +0.000 N 
ATOM      6  C   UNL     1       6.824   5.568  16.555  0.00  0.00    +0.000 A 
ATOM      7  C   UNL     1       7.079   6.227  17.866  0.00  0.00    +0.000 C 
ATOM      8  C   UNL     1       5.873   4.626  16.174  0.00  0.00    +0.000 A 
ATOM      9  C   UNL     1       6.099   4.347  14.782  0.00  0.00    +0.000 A 
ATOM     10  C   UNL     1       5.476   3.540  13.810  0.00  0.00    +0.000 A 
ATOM     11  H   UNL     1       8.409   6.459  15.460  0.00  0.00    +0.000 HD
ENDROOT
BRANCH   1  13
ATOM     12  C   UNL     1       4.008   3.176  11.173  0.00  0.00    +0.000 C 
ATOM     13  O   UNL     1       5.227   2.659  11.685  0.00  0.00    +0.000 OA
ENDBRANCH   1  13
BRANCH   8  14
ATOM     14  C   UNL     1       4.868   4.047  17.076  0.00  0.00    +0.000 C 
ATOM     15  O   UNL     1       4.476   2.883  16.938  0.00  0.00    +0.000 OA
BRANCH  14  16
ATOM     16  C   UNL     1       4.242   4.921  18.169  0.00  0.00    +0.000 C 
BRANCH  16  17
ATOM     17  N   UNL     1       2.789   5.108  17.938  0.00  0.00    +0.000 NA
ATOM     18  C   UNL     1       1.985   4.120  18.697  0.00  0.00    +0.000 C 
ATOM     19  C   UNL     1       2.052   4.348  20.222  0.00  0.00    +0.000 C 
ATOM     20  C   UNL     1       1.217   3.314  20.958  0.00  0.00    +0.000 C 
ATOM     21  O   UNL     1       1.573   5.665  20.549  0.00  0.00    +0.000 OA
ATOM     22  C   UNL     1       2.342   6.678  19.871  0.00  0.00    +0.000 C 
ATOM     23  C   UNL     1       1.755   8.037  20.229  0.00  0.00    +0.000 C 
ATOM     24  C   UNL     1       2.333   6.456  18.340  0.00  0.00    +0.000 C 
ENDBRANCH  16  17
ENDBRANCH  14  16
ENDBRANCH   8  14
TORSDOF 4
ENDMDL
MODEL 3
REMARK VINA RESULT:      -7.6      0.743      1.920
REMARK  Name = 
REMARK  8 active torsions:
REMARK  status: ('A' for Active; 'I' for Inactive)
REMARK    1  A    between atoms: C_1  and  O_2
REMARK    2  A    between atoms: O_2  and  C_3
REMARK    3  A    between atoms: C_8  and  C_9
REMARK    4  A    between atoms: C_10  and  C_11
REMARK    5  A    between atoms: C_11  and  C_13
REMARK    6  A    between atoms: C_13  and  N_14
REMARK    7  A    between atoms: C_16  and  C_17
REMARK    8  A    between atoms: C_19  and  C_20
REMARK                            x       y       z     vdW  Elec       q    Type
REMARK                         _______ _______ _______ _____ _____    ______ ____
ROOT
ATOM      1  C   UNL     1       1.876   8.548  18.591  0.00  0.00    +0.000 A 
ATOM      2  C   UNL     1       1.539   8.768  19.922  0.00  0.00    +0.000 A 
ATOM      3  C   UNL     1       1.582   7.722  20.855  0.00  0.00    +0.000 A 
ATOM      4  C   UNL     1       1.977   6.457  20.412  0.00  0.00    +0.000 A 
ATOM      5  N   UNL     1       2.086   5.274  21.103  0.00  0.00    +0.000 N 
ATOM      6  C   UNL     1       2.512   4.267  20.272  0.00  0.00    +0.000 A 
ATOM      7  C   UNL     1       2.721   2.885  20.785  0.00  0.00    +0.000 C 
ATOM      8  C   UNL     1       2.714   4.814  19.008  0.00  0.00    +0.000 A 
ATOM      9  C   UNL     1       2.347   6.201  19.093  0.00  0.00    +0.000 A 
ATOM     10  C   UNL     1       2.280   7.275  18.183  0.00  0.00    +0.000 A 
ATOM     11  H   UNL     1       1.879   5.166  22.086  0.00  0.00    +0.000 HD
ENDROOT
BRANCH   1  13
ATOM     12  C   UNL     1       2.183  10.806  17.920  0.00  0.00    +0.000 C 
ATOM     13  O   UNL     1       1.856   9.468  17.580  0.00  0.00    +0.000 OA
ENDBRANCH   1  13
BRANCH   8  14
ATOM     14  C   UNL     1       3.227   4.067  17.851  0.00  0.00    +0.000 C 
ATOM     15  O   UNL     1       2.903   2.892  17.651  0.00  0.00    +0.000 OA
BRANCH  14  16
ATOM     16  C   UNL     1       4.238   4.733  16.910  0.00  0.00    +0.000 C 
BRANCH  16  17
ATOM     17  N   UNL     1       5.604   4.203  17.130  0.00  0.00    +0.000 NA
ATOM     18  C   UNL     1       6.292   3.918  15.848  0.00  0.00    +0.000 C 
ATOM     19  C   UNL     1       6.619   5.201  15.054  0.00  0.00    +0.000 C 
ATOM     20  C   UNL     1       7.320   4.863  13.749  0.00  0.00    +0.000 C 
ATOM     21  O   UNL     1       7.463   6.066  15.835  0.00  0.00    +0.000 OA
ATOM     22  C   UNL     1       6.833   6.414  17.083  0.00  0.00    +0.000 C 
ATOM     23  C   UNL     1       7.796   7.292  17.872  0.00  0.00    +0.000 C 
ATOM     24  C   UNL     1       6.451   5.149  17.888  0.00  0.00    +0.000 C 
ENDBRANCH  16  17
ENDBRANCH  14  16
ENDBRANCH   8  14
TORSDOF 4
ENDMDL
MODEL 4
REMARK VINA RESULT:      -7.4      2.417      7.083
REMARK  Name = 
REMARK  8 active torsions:
REMARK  status: ('A' for Active; 'I' for Inactive)
REMARK    1  A    between atoms: C_1  and  O_2
REMARK    2  A    between atoms: O_2  and  C_3
REMARK    3  A    between atoms: C_8  and  C_9
REMARK    4  A    between atoms: C_10  and  C_11
REMARK    5  A    between atoms: C_11  and  C_13
REMARK    6  A    between atoms: C_13  and  N_14
REMARK    7  A    between atoms: C_16  and  C_17
REMARK    8  A    between atoms: C_19  and  C_20
REMARK                            x       y       z     vdW  Elec       q    Type
REMARK                         _______ _______ _______ _____ _____    ______ ____
ROOT
ATOM      1  C   UNL     1       5.658   3.404  12.247  0.00  0.00    +0.000 A 
ATOM      2  C   UNL     1       6.827   4.067  11.888  0.00  0.00    +0.000 A 
ATOM      3  C   UNL     1       7.563   4.788  12.839  0.00  0.00    +0.000 A 
ATOM      4  C   UNL     1       7.093   4.818  14.155  0.00  0.00    +0.000 A 
ATOM      5  N   UNL     1       7.603   5.454  15.261  0.00  0.00    +0.000 N 
ATOM      6  C   UNL     1       6.818   5.214  16.362  0.00  0.00    +0.000 A 
ATOM      7  C   UNL     1       7.166   5.785  17.692  0.00  0.00    +0.000 C 
ATOM      8  C   UNL     1       5.779   4.375  15.970  0.00  0.00    +0.000 A 
ATOM      9  C   UNL     1       5.941   4.145  14.560  0.00  0.00    +0.000 A 
ATOM     10  C   UNL     1       5.223   3.441  13.573  0.00  0.00    +0.000 A 
ATOM     11  H   UNL     1       8.442   6.019  15.257  0.00  0.00    +0.000 HD
ENDROOT
BRANCH   1  13
ATOM     12  C   UNL     1       3.764   3.388  10.812  0.00  0.00    +0.000 C 
ATOM     13  O   UNL     1       4.839   2.687  11.420  0.00  0.00    +0.000 OA
ENDBRANCH   1  13
BRANCH   8  14
ATOM     14  C   UNL     1       4.754   3.840  16.877  0.00  0.00    +0.000 C 
ATOM     15  O   UNL     1       4.606   2.623  17.031  0.00  0.00    +0.000 OA
BRANCH  14  16
ATOM     16  C   UNL     1       3.805   4.805  17.597  0.00  0.00    +0.000 C 
BRANCH  16  17
ATOM     17  N   UNL     1       4.096   4.858  19.050  0.00  0.00    +0.000 NA
ATOM     18  C   UNL     1       3.695   6.159  19.638  0.00  0.00    +0.000 C 
ATOM     19  C   UNL     1       2.165   6.355  19.656  0.00  0.00    +0.000 C 
ATOM     20  C   UNL     1       1.800   7.698  20.265  0.00  0.00    +0.000 C 
ATOM     21  O   UNL     1       1.539   5.305  20.417  0.00  0.00    +0.000 OA
ATOM     22  C   UNL     1       1.858   4.010  19.870  0.00  0.00    +0.000 C 
ATOM     23  C   UNL     1       1.200   2.951  20.745  0.00  0.00    +0.000 C 
ATOM     24  C   UNL     1       3.387   3.796  19.796  0.00  0.00    +0.000 C 
ENDBRANCH  16  17
ENDBRANCH  14  16
ENDBRANCH   8  14
TORSDOF 4
ENDMDL
MODEL 5
REMARK VINA RESULT:      -6.7      1.488      3.984
REMARK  Name = 
REMARK  8 active torsions:
REMARK  status: ('A' for Active; 'I' for Inactive)
REMARK    1  A    between atoms: C_1  and  O_2
REMARK    2  A    between atoms: O_2  and  C_3
REMARK    3  A    between atoms: C_8  and  C_9
REMARK    4  A    between atoms: C_10  and  C_11
REMARK    5  A    between atoms: C_11  and  C_13
REMARK    6  A    between atoms: C_13  and  N_14
REMARK    7  A    between atoms: C_16  and  C_17
REMARK    8  A    between atoms: C_19  and  C_20
REMARK                            x       y       z     vdW  Elec       q    Type
REMARK                         _______ _______ _______ _____ _____    ______ ____
ROOT
ATOM      1  C   UNL     1       3.418   2.706  20.024  0.00  0.00    +0.000 A 
ATOM      2  C   UNL     1       2.680   2.654  21.202  0.00  0.00    +0.000 A 
ATOM      3  C   UNL     1       2.019   3.793  21.685  0.00  0.00    +0.000 A 
ATOM      4  C   UNL     1       2.117   4.976  20.947  0.00  0.00    +0.000 A 
ATOM      5  N   UNL     1       1.591   6.221  21.200  0.00  0.00    +0.000 N 
ATOM      6  C   UNL     1       1.937   7.102  20.206  0.00  0.00    +0.000 A 
ATOM      7  C   UNL     1       1.478   8.518  20.242  0.00  0.00    +0.000 C 
ATOM      8  C   UNL     1       2.688   6.408  19.262  0.00  0.00    +0.000 A 
ATOM      9  C   UNL     1       2.825   5.062  19.749  0.00  0.00    +0.000 A 
ATOM     10  C   UNL     1       3.485   3.900  19.303  0.00  0.00    +0.000 A 
ATOM     11  H   UNL     1       1.028   6.448  22.009  0.00  0.00    +0.000 HD
ENDROOT
BRANCH   1  13
ATOM     12  C   UNL     1       3.830   1.368  18.105  0.00  0.00    +0.000 C 
ATOM     13  O   UNL     1       4.124   1.682  19.457  0.00  0.00    +0.000 OA
ENDBRANCH   1  13
BRANCH   8  14
ATOM     14  C   UNL     1       3.199   6.991  18.014  0.00  0.00    +0.000 C 
ATOM     15  O   UNL     1       3.004   8.178  17.733  0.00  0.00    +0.000 OA
BRANCH  14  16
ATOM     16  C   UNL     1       3.929   6.096  17.005  0.00  0.00    +0.000 C 
BRANCH  16  17
ATOM     17  N   UNL     1       5.126   6.775  16.454  0.00  0.00    +0.000 NA
ATOM     18  C   UNL     1       6.250   6.766  17.420  0.00  0.00    +0.000 C 
ATOM     19  C   UNL     1       6.820   5.350  17.652  0.00  0.00    +0.000 C 
ATOM     20  C   UNL     1       7.967   5.387  18.648  0.00  0.00    +0.000 C 
ATOM     21  O   UNL     1       7.289   4.794  16.411  0.00  0.00    +0.000 OA
ATOM     22  C   UNL     1       6.228   4.738  15.436  0.00  0.00    +0.000 C 
ATOM     23  C   UNL     1       6.804   4.181  14.140  0.00  0.00    +0.000 C 
ATOM     24  C   UNL     1       5.603   6.135  15.210  0.00  0.00    +0.000 C 
ENDBRANCH  16  17
ENDBRANCH  14  16
ENDBRANCH   8  14
TORSDOF 4
ENDMDL
MODEL 6
REMARK VINA RESULT:      -6.6      2.818      7.115
REMARK  Name = 
REMARK  8 active torsions:
REMARK  status: ('A' for Active; 'I' for Inactive)
REMARK    1  A    between atoms: C_1  and  O_2
REMARK    2  A    between atoms: O_2  and  C_3
REMARK    3  A    between atoms: C_8  and  C_9
REMARK    4  A    between atoms: C_10  and  C_11
REMARK    5  A    between atoms: C_11  and  C_13
REMARK    6  A    between atoms: C_13  and  N_14
REMARK    7  A    between atoms: C_16  and  C_17
REMARK    8  A    between atoms: C_19  and  C_20
REMARK                            x       y       z     vdW  Elec       q    Type
REMARK                         _______ _______ _______ _____ _____    ______ ____
ROOT
ATOM      1  C   UNL     1       5.205   3.595  12.551  0.00  0.00    +0.000 A 
ATOM      2  C   UNL     1       6.537   3.667  12.159  0.00  0.00    +0.000 A 
ATOM      3  C   UNL     1       7.481   4.340  12.948  0.00  0.00    +0.000 A 
ATOM      4  C   UNL     1       7.047   4.929  14.139  0.00  0.00    +0.000 A 
ATOM      5  N   UNL     1       7.749   5.652  15.074  0.00  0.00    +0.000 N 
ATOM      6  C   UNL     1       6.925   6.046  16.098  0.00  0.00    +0.000 A 
ATOM      7  C   UNL     1       7.450   6.836  17.246  0.00  0.00    +0.000 C 
ATOM      8  C   UNL     1       5.653   5.544  15.840  0.00  0.00    +0.000 A 
ATOM      9  C   UNL     1       5.727   4.857  14.580  0.00  0.00    +0.000 A 
ATOM     10  C   UNL     1       4.806   4.182  13.754  0.00  0.00    +0.000 A 
ATOM     11  H   UNL     1       8.737   5.861  15.009  0.00  0.00    +0.000 HD
ENDROOT
BRANCH   1  13
ATOM     12  C   UNL     1       3.803   3.577  10.632  0.00  0.00    +0.000 C 
ATOM     13  O   UNL     1       4.184   2.993  11.868  0.00  0.00    +0.000 OA
ENDBRANCH   1  13
BRANCH   8  14
ATOM     14  C   UNL     1       4.498   5.702  16.735  0.00  0.00    +0.000 C 
ATOM     15  O   UNL     1       4.152   6.816  17.145  0.00  0.00    +0.000 OA
BRANCH  14  16
ATOM     16  C   UNL     1       3.749   4.459  17.228  0.00  0.00    +0.000 C 
BRANCH  16  17
ATOM     17  N   UNL     1       3.267   4.641  18.618  0.00  0.00    +0.000 NA
ATOM     18  C   UNL     1       1.890   4.118  18.790  0.00  0.00    +0.000 C 
ATOM     19  C   UNL     1       1.821   2.581  18.674  0.00  0.00    +0.000 C 
ATOM     20  C   UNL     1       0.395   2.090  18.854  0.00  0.00    +0.000 C 
ATOM     21  O   UNL     1       2.662   1.970  19.670  0.00  0.00    +0.000 OA
ATOM     22  C   UNL     1       4.028   2.408  19.532  0.00  0.00    +0.000 C 
ATOM     23  C   UNL     1       4.848   1.757  20.639  0.00  0.00    +0.000 C 
ATOM     24  C   UNL     1       4.130   3.950  19.600  0.00  0.00    +0.000 C 
ENDBRANCH  16  17
ENDBRANCH  14  16
ENDBRANCH   8  14
TORSDOF 4
ENDMDL
MODEL 7
REMARK VINA RESULT:      -6.6      1.455      2.543
REMARK  Name = 
REMARK  8 active torsions:
REMARK  status: ('A' for Active; 'I' for Inactive)
REMARK    1  A    between atoms: C_1  and  O_2
REMARK    2  A    between atoms: O_2  and  C_3
REMARK    3  A    between atoms: C_8  and  C_9
REMARK    4  A    between atoms: C_10  and  C_11
REMARK    5  A    between atoms: C_11  and  C_13
REMARK    6  A    between atoms: C_13  and  N_14
REMARK    7  A    between atoms: C_16  and  C_17
REMARK    8  A    between atoms: C_19  and  C_20
REMARK                            x       y       z     vdW  Elec       q    Type
REMARK                         _______ _______ _______ _____ _____    ______ ____
ROOT
ATOM      1  C   UNL     1       1.096  10.329  19.272  0.00  0.00    +0.000 A 
ATOM      2  C   UNL     1       0.881  10.456  20.640  0.00  0.00    +0.000 A 
ATOM      3  C   UNL     1       1.038   9.356  21.495  0.00  0.00    +0.000 A 
ATOM      4  C   UNL     1       1.422   8.133  20.936  0.00  0.00    +0.000 A 
ATOM      5  N   UNL     1       1.626   6.914  21.536  0.00  0.00    +0.000 N 
ATOM      6  C   UNL     1       1.998   5.975  20.606  0.00  0.00    +0.000 A 
ATOM      7  C   UNL     1       2.290   4.571  21.006  0.00  0.00    +0.000 C 
ATOM      8  C   UNL     1       2.065   6.605  19.366  0.00  0.00    +0.000 A 
ATOM      9  C   UNL     1       1.672   7.972  19.575  0.00  0.00    +0.000 A 
ATOM     10  C   UNL     1       1.493   9.097  18.746  0.00  0.00    +0.000 A 
ATOM     11  H   UNL     1       1.515   6.739  22.526  0.00  0.00    +0.000 HD
ENDROOT
BRANCH   1  13
ATOM     12  C   UNL     1       0.132  12.415  18.664  0.00  0.00    +0.000 C 
ATOM     13  O   UNL     1       0.957  11.309  18.329  0.00  0.00    +0.000 OA
ENDBRANCH   1  13
BRANCH   8  14
ATOM     14  C   UNL     1       2.486   5.948  18.121  0.00  0.00    +0.000 C 
ATOM     15  O   UNL     1       1.712   5.225  17.484  0.00  0.00    +0.000 OA
BRANCH  14  16
ATOM     16  C   UNL     1       3.932   6.105  17.636  0.00  0.00    +0.000 C 
BRANCH  16  17
ATOM     17  N   UNL     1       4.699   4.850  17.826  0.00  0.00    +0.000 NA
ATOM     18  C   UNL     1       5.286   4.372  16.551  0.00  0.00    +0.000 C 
ATOM     19  C   UNL     1       6.402   5.301  16.028  0.00  0.00    +0.000 C 
ATOM     20  C   UNL     1       6.973   4.775  14.722  0.00  0.00    +0.000 C 
ATOM     21  O   UNL     1       7.459   5.403  17.000  0.00  0.00    +0.000 OA
ATOM     22  C   UNL     1       6.959   5.902  18.256  0.00  0.00    +0.000 C 
ATOM     23  C   UNL     1       8.118   5.944  19.244  0.00  0.00    +0.000 C 
ATOM     24  C   UNL     1       5.808   5.019  18.790  0.00  0.00    +0.000 C 
ENDBRANCH  16  17
ENDBRANCH  14  16
ENDBRANCH   8  14
TORSDOF 4
ENDMDL
MODEL 8
REMARK VINA RESULT:      -6.6      2.409      7.003
REMARK  Name = 
REMARK  8 active torsions:
REMARK  status: ('A' for Active; 'I' for Inactive)
REMARK    1  A    between atoms: C_1  and  O_2
REMARK    2  A    between atoms: O_2  and  C_3
REMARK    3  A    between atoms: C_8  and  C_9
REMARK    4  A    between atoms: C_10  and  C_11
REMARK    5  A    between atoms: C_11  and  C_13
REMARK    6  A    between atoms: C_13  and  N_14
REMARK    7  A    between atoms: C_16  and  C_17
REMARK    8  A    between atoms: C_19  and  C_20
REMARK                            x       y       z     vdW  Elec       q    Type
REMARK                         _______ _______ _______ _____ _____    ______ ____
ROOT
ATOM      1  C   UNL     1       5.161   3.529  12.513  0.00  0.00    +0.000 A 
ATOM      2  C   UNL     1       6.507   3.578  12.166  0.00  0.00    +0.000 A 
ATOM      3  C   UNL     1       7.447   4.171  13.020  0.00  0.00    +0.000 A 
ATOM      4  C   UNL     1       6.995   4.706  14.230  0.00  0.00    +0.000 A 
ATOM      5  N   UNL     1       7.691   5.349  15.226  0.00  0.00    +0.000 N 
ATOM      6  C   UNL     1       6.849   5.712  16.247  0.00  0.00    +0.000 A 
ATOM      7  C   UNL     1       7.363   6.415  17.454  0.00  0.00    +0.000 C 
ATOM      8  C   UNL     1       5.569   5.269  15.922  0.00  0.00    +0.000 A 
ATOM      9  C   UNL     1       5.660   4.653  14.627  0.00  0.00    +0.000 A 
ATOM     10  C   UNL     1       4.744   4.059  13.736  0.00  0.00    +0.000 A 
ATOM     11  H   UNL     1       8.686   5.527  15.203  0.00  0.00    +0.000 HD
ENDROOT
BRANCH   1  13
ATOM     12  C   UNL     1       3.763   3.717  10.601  0.00  0.00    +0.000 C 
ATOM     13  O   UNL     1       4.143   3.003  11.767  0.00  0.00    +0.000 OA
ENDBRANCH   1  13
BRANCH   8  14
ATOM     14  C   UNL     1       4.393   5.415  16.791  0.00  0.00    +0.000 C 
ATOM     15  O   UNL     1       3.818   6.502  16.915  0.00  0.00    +0.000 OA
BRANCH  14  16
ATOM     16  C   UNL     1       3.908   4.216  17.614  0.00  0.00    +0.000 C 
BRANCH  16  17
ATOM     17  N   UNL     1       4.310   4.345  19.035  0.00  0.00    +0.000 NA
ATOM     18  C   UNL     1       3.927   5.665  19.592  0.00  0.00    +0.000 C 
ATOM     19  C   UNL     1       2.398   5.832  19.722  0.00  0.00    +0.000 C 
ATOM     20  C   UNL     1       2.052   7.197  20.293  0.00  0.00    +0.000 C 
ATOM     21  O   UNL     1       1.857   4.809  20.577  0.00  0.00    +0.000 OA
ATOM     22  C   UNL     1       2.162   3.495  20.068  0.00  0.00    +0.000 C 
ATOM     23  C   UNL     1       1.598   2.467  21.041  0.00  0.00    +0.000 C 
ATOM     24  C   UNL     1       3.686   3.307  19.884  0.00  0.00    +0.000 C 
ENDBRANCH  16  17
ENDBRANCH  14  16
ENDBRANCH   8  14
TORSDOF 4
ENDMDL
MODEL 9
REMARK VINA RESULT:      -6.5      1.436      4.274
REMARK  Name = 
REMARK  8 active torsions:
REMARK  status: ('A' for Active; 'I' for Inactive)
REMARK    1  A    between atoms: C_1  and  O_2
REMARK    2  A    between atoms: O_2  and  C_3
REMARK    3  A    between atoms: C_8  and  C_9
REMARK    4  A    between atoms: C_10  and  C_11
REMARK    5  A    between atoms: C_11  and  C_13
REMARK    6  A    between atoms: C_13  and  N_14
REMARK    7  A    between atoms: C_16  and  C_17
REMARK    8  A    between atoms: C_19  and  C_20
REMARK                            x       y       z     vdW  Elec       q    Type
REMARK                         _______ _______ _______ _____ _____    ______ ____
ROOT
ATOM      1  C   UNL     1       2.027   2.822  18.896  0.00  0.00    +0.000 A 
ATOM      2  C   UNL     1       1.395   2.672  20.125  0.00  0.00    +0.000 A 
ATOM      3  C   UNL     1       1.128   3.786  20.935  0.00  0.00    +0.000 A 
ATOM      4  C   UNL     1       1.511   5.047  20.470  0.00  0.00    +0.000 A 
ATOM      5  N   UNL     1       1.387   6.281  21.063  0.00  0.00    +0.000 N 
ATOM      6  C   UNL     1       1.898   7.261  20.249  0.00  0.00    +0.000 A 
ATOM      7  C   UNL     1       1.873   8.692  20.660  0.00  0.00    +0.000 C 
ATOM      8  C   UNL     1       2.346   6.654  19.079  0.00  0.00    +0.000 A 
ATOM      9  C   UNL     1       2.122   5.242  19.233  0.00  0.00    +0.000 A 
ATOM     10  C   UNL     1       2.383   4.098  18.453  0.00  0.00    +0.000 A 
ATOM     11  H   UNL     1       0.974   6.438  21.973  0.00  0.00    +0.000 HD
ENDROOT
BRANCH   1  13
ATOM     12  C   UNL     1       3.725   1.424  17.997  0.00  0.00    +0.000 C 
ATOM     13  O   UNL     1       2.364   1.825  18.023  0.00  0.00    +0.000 OA
ENDBRANCH   1  13
BRANCH   8  14
ATOM     14  C   UNL     1       2.910   7.376  17.930  0.00  0.00    +0.000 C 
ATOM     15  O   UNL     1       2.230   8.176  17.278  0.00  0.00    +0.000 OA
BRANCH  14  16
ATOM     16  C   UNL     1       4.348   7.084  17.487  0.00  0.00    +0.000 C 
BRANCH  16  17
ATOM     17  N   UNL     1       4.705   5.666  17.728  0.00  0.00    +0.000 NA
ATOM     18  C   UNL     1       5.186   5.007  16.490  0.00  0.00    +0.000 C 
ATOM     19  C   UNL     1       6.548   5.557  16.017  0.00  0.00    +0.000 C 
ATOM     20  C   UNL     1       7.001   4.856  14.747  0.00  0.00    +0.000 C 
ATOM     21  O   UNL     1       7.542   5.370  17.041  0.00  0.00    +0.000 OA
ATOM     22  C   UNL     1       7.152   6.023  18.265  0.00  0.00    +0.000 C 
ATOM     23  C   UNL     1       8.224   5.749  19.311  0.00  0.00    +0.000 C 
ATOM     24  C   UNL     1       5.768   5.527  18.747  0.00  0.00    +0.000 C 
ENDBRANCH  16  17
ENDBRANCH  14  16
ENDBRANCH   8  14
TORSDOF 4
ENDMDL
