MODEL 1
REMARK VINA RESULT:      -6.5      0.000      0.000
REMARK  Name = 
REMARK  8 active torsions:
REMARK  status: ('A' for Active; 'I' for Inactive)
REMARK    1  A    between atoms: C_2  and  C_3
REMARK    2  A    between atoms: N_7  and  C_8
REMARK    3  A    between atoms: C_8  and  C_9
REMARK    4  A    between atoms: C_9  and  C_10
REMARK    5  A    between atoms: C_10  and  N_11
REMARK    6  A    between atoms: N_14  and  C_15
REMARK    7  A    between atoms: C_18  and  C_19
REMARK    8  A    between atoms: C_24  and  C_25
REMARK                            x       y       z     vdW  Elec       q    Type
REMARK                         _______ _______ _______ _____ _____    ______ ____
ROOT
ATOM      1  N   UNL     1       2.387   4.067  19.727  0.00  0.00    +0.000 NA
ATOM      2  C   UNL     1       2.115   4.663  18.397  0.00  0.00    +0.000 C 
ATOM      3  C   UNL     1       3.215   5.621  17.898  0.00  0.00    +0.000 C 
ATOM      4  N   UNL     1       4.527   4.955  17.901  0.00  0.00    +0.000 N 
ATOM      5  C   UNL     1       4.887   4.215  19.121  0.00  0.00    +0.000 C 
ATOM      6  C   UNL     1       3.689   3.352  19.604  0.00  0.00    +0.000 C 
ENDROOT
BRANCH   4   7
ATOM      7  C   UNL     1       5.288   4.861  16.754  0.00  0.00    +0.000 A 
ATOM      8  C   UNL     1       6.643   5.213  16.732  0.00  0.00    +0.000 A 
ATOM      9  C   UNL     1       7.397   5.152  15.555  0.00  0.00    +0.000 A 
ATOM     10  C   UNL     1       6.809   4.729  14.360  0.00  0.00    +0.000 A 
ATOM     11  C   UNL     1       7.582   4.681  13.080  0.00  0.00    +0.000 C 
ATOM     12  C   UNL     1       5.468   4.358  14.365  0.00  0.00    +0.000 A 
ATOM     13  C   UNL     1       4.726   4.418  15.544  0.00  0.00    +0.000 A 
ENDBRANCH   4   7
BRANCH   1  14
ATOM     14  C   UNL     1       2.423   5.088  20.792  0.00  0.00    +0.000 C 
BRANCH  14  15
ATOM     15  C   UNL     1       1.482   6.283  20.545  0.00  0.00    +0.000 C 
BRANCH  15  16
ATOM     16  C   UNL     1       2.167   7.652  20.583  0.00  0.00    +0.000 C 
BRANCH  16  21
ATOM     17  C   UNL     1      -0.101  10.320  19.383  0.00  0.00    +0.000 A 
ATOM     18  S   UNL     1      -0.532  10.510  21.064  0.00  0.00    +0.000 S 
ATOM     19  C   UNL     1       0.580   9.244  21.558  0.00  0.00    +0.000 A 
ATOM     20  O   UNL     1       0.749   8.908  22.713  0.00  0.00    +0.000 OA
ATOM     21  N   UNL     1       1.205   8.740  20.417  0.00  0.00    +0.000 N 
ATOM     22  C   UNL     1       0.843   9.369  19.223  0.00  0.00    +0.000 A 
ATOM     23  C   UNL     1       1.445   9.022  17.893  0.00  0.00    +0.000 C 
BRANCH  17  25
ATOM     24  C   UNL     1      -1.874  10.787  17.688  0.00  0.00    +0.000 C 
ATOM     25  C   UNL     1      -0.740  11.091  18.332  0.00  0.00    +0.000 C 
ENDBRANCH  17  25
ENDBRANCH  16  21
ENDBRANCH  15  16
ENDBRANCH  14  15
ENDBRANCH   1  14
TORSDOF 6
ENDMDL
MODEL 2
REMARK VINA RESULT:      -6.3      3.427      9.392
REMARK  Name = 
REMARK  8 active torsions:
REMARK  status: ('A' for Active; 'I' for Inactive)
REMARK    1  A    between atoms: C_2  and  C_3
REMARK    2  A    between atoms: N_7  and  C_8
REMARK    3  A    between atoms: C_8  and  C_9
REMARK    4  A    between atoms: C_9  and  C_10
REMARK    5  A    between atoms: C_10  and  N_11
REMARK    6  A    between atoms: N_14  and  C_15
REMARK    7  A    between atoms: C_18  and  C_19
REMARK    8  A    between atoms: C_24  and  C_25
REMARK                            x       y       z     vdW  Elec       q    Type
REMARK                         _______ _______ _______ _____ _____    ______ ____
ROOT
ATOM      1  N   UNL     1       1.328  10.431  18.011  0.00  0.00    +0.000 NA
ATOM      2  C   UNL     1      -0.035   9.911  18.274  0.00  0.00    +0.000 C 
ATOM      3  C   UNL     1      -0.361   9.722  19.769  0.00  0.00    +0.000 C 
ATOM      4  N   UNL     1      -0.138  10.972  20.513  0.00  0.00    +0.000 N 
ATOM      5  C   UNL     1       1.133  11.670  20.262  0.00  0.00    +0.000 C 
ATOM      6  C   UNL     1       1.426  11.729  18.737  0.00  0.00    +0.000 C 
ENDROOT
BRANCH   4   7
ATOM      7  C   UNL     1      -1.145  11.558  21.251  0.00  0.00    +0.000 A 
ATOM      8  C   UNL     1      -2.125  12.365  20.660  0.00  0.00    +0.000 A 
ATOM      9  C   UNL     1      -3.119  12.988  21.423  0.00  0.00    +0.000 A 
ATOM     10  C   UNL     1      -3.161  12.812  22.809  0.00  0.00    +0.000 A 
ATOM     11  C   UNL     1      -4.194  13.488  23.654  0.00  0.00    +0.000 C 
ATOM     12  C   UNL     1      -2.206  12.000  23.413  0.00  0.00    +0.000 A 
ATOM     13  C   UNL     1      -1.222  11.380  22.644  0.00  0.00    +0.000 A 
ENDBRANCH   4   7
BRANCH   1  14
ATOM     14  C   UNL     1       2.373   9.482  18.444  0.00  0.00    +0.000 C 
BRANCH  14  15
ATOM     15  C   UNL     1       2.177   8.050  17.912  0.00  0.00    +0.000 C 
BRANCH  15  16
ATOM     16  C   UNL     1       2.663   6.947  18.856  0.00  0.00    +0.000 C 
BRANCH  16  21
ATOM     17  C   UNL     1       4.567   4.508  16.826  0.00  0.00    +0.000 A 
ATOM     18  S   UNL     1       3.270   3.401  17.202  0.00  0.00    +0.000 S 
ATOM     19  C   UNL     1       2.417   4.618  18.135  0.00  0.00    +0.000 A 
ATOM     20  O   UNL     1       1.346   4.426  18.676  0.00  0.00    +0.000 OA
ATOM     21  N   UNL     1       3.172   5.792  18.119  0.00  0.00    +0.000 N 
ATOM     22  C   UNL     1       4.343   5.726  17.362  0.00  0.00    +0.000 A 
ATOM     23  C   UNL     1       5.263   6.894  17.163  0.00  0.00    +0.000 C 
BRANCH  17  25
ATOM     24  C   UNL     1       5.864   4.122  14.728  0.00  0.00    +0.000 C 
ATOM     25  C   UNL     1       5.730   4.098  16.060  0.00  0.00    +0.000 C 
ENDBRANCH  17  25
ENDBRANCH  16  21
ENDBRANCH  15  16
ENDBRANCH  14  15
ENDBRANCH   1  14
TORSDOF 6
ENDMDL
MODEL 3
REMARK VINA RESULT:      -6.2      3.528      6.015
REMARK  Name = 
REMARK  8 active torsions:
REMARK  status: ('A' for Active; 'I' for Inactive)
REMARK    1  A    between atoms: C_2  and  C_3
REMARK    2  A    between atoms: N_7  and  C_8
REMARK    3  A    between atoms: C_8  and  C_9
REMARK    4  A    between atoms: C_9  and  C_10
REMARK    5  A    between atoms: C_10  and  N_11
REMARK    6  A    between atoms: N_14  and  C_15
REMARK    7  A    between atoms: C_18  and  C_19
REMARK    8  A    between atoms: C_24  and  C_25
REMARK                            x       y       z     vdW  Elec       q    Type
REMARK                         _______ _______ _______ _____ _____    ______ ____
ROOT
ATOM      1  N   UNL     1       0.125  10.373  19.443  0.00  0.00    +0.000 NA
ATOM      2  C   UNL     1       0.588   9.641  18.241  0.00  0.00    +0.000 C 
ATOM      3  C   UNL     1       1.957   8.952  18.409  0.00  0.00    +0.000 C 
ATOM      4  N   UNL     1       1.952   8.062  19.581  0.00  0.00    +0.000 N 
ATOM      5  C   UNL     1       1.404   8.618  20.829  0.00  0.00    +0.000 C 
ATOM      6  C   UNL     1       0.076   9.374  20.548  0.00  0.00    +0.000 C 
ENDROOT
BRANCH   4   7
ATOM      7  C   UNL     1       2.257   6.722  19.466  0.00  0.00    +0.000 A 
ATOM      8  C   UNL     1       2.962   6.212  18.369  0.00  0.00    +0.000 A 
ATOM      9  C   UNL     1       3.233   4.845  18.243  0.00  0.00    +0.000 A 
ATOM     10  C   UNL     1       2.804   3.945  19.224  0.00  0.00    +0.000 A 
ATOM     11  C   UNL     1       3.053   2.475  19.102  0.00  0.00    +0.000 C 
ATOM     12  C   UNL     1       2.116   4.436  20.330  0.00  0.00    +0.000 A 
ATOM     13  C   UNL     1       1.856   5.800  20.450  0.00  0.00    +0.000 A 
ENDBRANCH   4   7
BRANCH   1  14
ATOM     14  C   UNL     1       1.009  11.509  19.771  0.00  0.00    +0.000 C 
BRANCH  14  15
ATOM     15  C   UNL     1       0.574  12.303  21.017  0.00  0.00    +0.000 C 
BRANCH  15  16
ATOM     16  C   UNL     1      -0.347  13.491  20.727  0.00  0.00    +0.000 C 
BRANCH  16  21
ATOM     17  C   UNL     1      -3.465  13.201  22.701  0.00  0.00    +0.000 A 
ATOM     18  S   UNL     1      -4.178  12.615  21.219  0.00  0.00    +0.000 S 
ATOM     19  C   UNL     1      -2.657  12.764  20.354  0.00  0.00    +0.000 A 
ATOM     20  O   UNL     1      -2.512  12.460  19.187  0.00  0.00    +0.000 OA
ATOM     21  N   UNL     1      -1.698  13.262  21.237  0.00  0.00    +0.000 N 
ATOM     22  C   UNL     1      -2.151  13.468  22.542  0.00  0.00    +0.000 A 
ATOM     23  C   UNL     1      -1.266  13.937  23.658  0.00  0.00    +0.000 C 
BRANCH  17  25
ATOM     24  C   UNL     1      -4.556  12.460  24.821  0.00  0.00    +0.000 C 
ATOM     25  C   UNL     1      -4.247  13.390  23.909  0.00  0.00    +0.000 C 
ENDBRANCH  17  25
ENDBRANCH  16  21
ENDBRANCH  15  16
ENDBRANCH  14  15
ENDBRANCH   1  14
TORSDOF 6
ENDMDL
MODEL 4
REMARK VINA RESULT:      -6.2      1.377      1.877
REMARK  Name = 
REMARK  8 active torsions:
REMARK  status: ('A' for Active; 'I' for Inactive)
REMARK    1  A    between atoms: C_2  and  C_3
REMARK    2  A    between atoms: N_7  and  C_8
REMARK    3  A    between atoms: C_8  and  C_9
REMARK    4  A    between atoms: C_9  and  C_10
REMARK    5  A    between atoms: C_10  and  N_11
REMARK    6  A    between atoms: N_14  and  C_15
REMARK    7  A    between atoms: C_18  and  C_19
REMARK    8  A    between atoms: C_24  and  C_25
REMARK                            x       y       z     vdW  Elec       q    Type
REMARK                         _______ _______ _______ _____ _____    ______ ____
ROOT
ATOM      1  N   UNL     1       2.428   4.255  19.421  0.00  0.00    +0.000 NA
ATOM      2  C   UNL     1       2.224   4.947  18.126  0.00  0.00    +0.000 C 
ATOM      3  C   UNL     1       3.419   5.809  17.675  0.00  0.00    +0.000 C 
ATOM      4  N   UNL     1       4.654   5.010  17.639  0.00  0.00    +0.000 N 
ATOM      5  C   UNL     1       4.932   4.172  18.817  0.00  0.00    +0.000 C 
ATOM      6  C   UNL     1       3.648   3.415  19.257  0.00  0.00    +0.000 C 
ENDROOT
BRANCH   4   7
ATOM      7  C   UNL     1       5.404   4.898  16.487  0.00  0.00    +0.000 A 
ATOM      8  C   UNL     1       6.726   5.356  16.414  0.00  0.00    +0.000 A 
ATOM      9  C   UNL     1       7.466   5.274  15.229  0.00  0.00    +0.000 A 
ATOM     10  C   UNL     1       6.898   4.721  14.078  0.00  0.00    +0.000 A 
ATOM     11  C   UNL     1       7.655   4.647  12.789  0.00  0.00    +0.000 C 
ATOM     12  C   UNL     1       5.592   4.245  14.135  0.00  0.00    +0.000 A 
ATOM     13  C   UNL     1       4.864   4.326  15.321  0.00  0.00    +0.000 A 
ENDBRANCH   4   7
BRANCH   1  14
ATOM     14  C   UNL     1       2.568   5.209  20.539  0.00  0.00    +0.000 C 
BRANCH  14  15
ATOM     15  C   UNL     1       1.490   6.309  20.562  0.00  0.00    +0.000 C 
BRANCH  15  16
ATOM     16  C   UNL     1       1.997   7.692  20.982  0.00  0.00    +0.000 C 
BRANCH  16  21
ATOM     17  C   UNL     1      -0.386  10.443  20.311  0.00  0.00    +0.000 A 
ATOM     18  S   UNL     1       0.263  10.417  18.691  0.00  0.00    +0.000 S 
ATOM     19  C   UNL     1       1.354   9.098  19.081  0.00  0.00    +0.000 A 
ATOM     20  O   UNL     1       2.113   8.590  18.280  0.00  0.00    +0.000 OA
ATOM     21  N   UNL     1       1.172   8.761  20.423  0.00  0.00    +0.000 N 
ATOM     22  C   UNL     1       0.181   9.492  21.083  0.00  0.00    +0.000 A 
ATOM     23  C   UNL     1      -0.215   9.243  22.508  0.00  0.00    +0.000 C 
BRANCH  17  25
ATOM     24  C   UNL     1      -1.156  12.630  21.237  0.00  0.00    +0.000 C 
ATOM     25  C   UNL     1      -1.383  11.414  20.726  0.00  0.00    +0.000 C 
ENDBRANCH  17  25
ENDBRANCH  16  21
ENDBRANCH  15  16
ENDBRANCH  14  15
ENDBRANCH   1  14
TORSDOF 6
ENDMDL
MODEL 5
REMARK VINA RESULT:      -6.2      3.538      6.017
REMARK  Name = 
REMARK  8 active torsions:
REMARK  status: ('A' for Active; 'I' for Inactive)
REMARK    1  A    between atoms: C_2  and  C_3
REMARK    2  A    between atoms: N_7  and  C_8
REMARK    3  A    between atoms: C_8  and  C_9
REMARK    4  A    between atoms: C_9  and  C_10
REMARK    5  A    between atoms: C_10  and  N_11
REMARK    6  A    between atoms: N_14  and  C_15
REMARK    7  A    between atoms: C_18  and  C_19
REMARK    8  A    between atoms: C_24  and  C_25
REMARK                            x       y       z     vdW  Elec       q    Type
REMARK                         _______ _______ _______ _____ _____    ______ ____
ROOT
ATOM      1  N   UNL     1       0.365  10.463  19.175  0.00  0.00    +0.000 NA
ATOM      2  C   UNL     1       0.754   9.622  18.017  0.00  0.00    +0.000 C 
ATOM      3  C   UNL     1       2.033   8.791  18.242  0.00  0.00    +0.000 C 
ATOM      4  N   UNL     1       1.913   7.968  19.456  0.00  0.00    +0.000 N 
ATOM      5  C   UNL     1       1.420   8.646  20.666  0.00  0.00    +0.000 C 
ATOM      6  C   UNL     1       0.190   9.533  20.326  0.00  0.00    +0.000 C 
ENDROOT
BRANCH   4   7
ATOM      7  C   UNL     1       2.064   6.598  19.413  0.00  0.00    +0.000 A 
ATOM      8  C   UNL     1       2.425   5.927  18.238  0.00  0.00    +0.000 A 
ATOM      9  C   UNL     1       2.537   4.533  18.195  0.00  0.00    +0.000 A 
ATOM     10  C   UNL     1       2.293   3.768  19.339  0.00  0.00    +0.000 A 
ATOM     11  C   UNL     1       2.376   2.275  19.316  0.00  0.00    +0.000 C 
ATOM     12  C   UNL     1       1.950   4.418  20.521  0.00  0.00    +0.000 A 
ATOM     13  C   UNL     1       1.845   5.808  20.556  0.00  0.00    +0.000 A 
ENDBRANCH   4   7
BRANCH   1  14
ATOM     14  C   UNL     1       1.370  11.505  19.460  0.00  0.00    +0.000 C 
BRANCH  14  15
ATOM     15  C   UNL     1       1.074  12.331  20.727  0.00  0.00    +0.000 C 
BRANCH  15  16
ATOM     16  C   UNL     1       0.207  13.570  20.492  0.00  0.00    +0.000 C 
BRANCH  16  21
ATOM     17  C   UNL     1      -2.516  13.784  22.989  0.00  0.00    +0.000 A 
ATOM     18  S   UNL     1      -1.408  14.779  23.900  0.00  0.00    +0.000 S 
ATOM     19  C   UNL     1      -0.171  14.645  22.661  0.00  0.00    +0.000 A 
ATOM     20  O   UNL     1       0.913  15.189  22.728  0.00  0.00    +0.000 OA
ATOM     21  N   UNL     1      -0.666  13.842  21.633  0.00  0.00    +0.000 N 
ATOM     22  C   UNL     1      -1.978  13.400  21.813  0.00  0.00    +0.000 A 
ATOM     23  C   UNL     1      -2.718  12.579  20.798  0.00  0.00    +0.000 C 
BRANCH  17  25
ATOM     24  C   UNL     1      -4.098  12.464  24.400  0.00  0.00    +0.000 C 
ATOM     25  C   UNL     1      -3.825  13.420  23.504  0.00  0.00    +0.000 C 
ENDBRANCH  17  25
ENDBRANCH  16  21
ENDBRANCH  15  16
ENDBRANCH  14  15
ENDBRANCH   1  14
TORSDOF 6
ENDMDL
MODEL 6
REMARK VINA RESULT:      -6.2      4.196      6.491
REMARK  Name = 
REMARK  8 active torsions:
REMARK  status: ('A' for Active; 'I' for Inactive)
REMARK    1  A    between atoms: C_2  and  C_3
REMARK    2  A    between atoms: N_7  and  C_8
REMARK    3  A    between atoms: C_8  and  C_9
REMARK    4  A    between atoms: C_9  and  C_10
REMARK    5  A    between atoms: C_10  and  N_11
REMARK    6  A    between atoms: N_14  and  C_15
REMARK    7  A    between atoms: C_18  and  C_19
REMARK    8  A    between atoms: C_24  and  C_25
REMARK                            x       y       z     vdW  Elec       q    Type
REMARK                         _______ _______ _______ _____ _____    ______ ____
ROOT
ATOM      1  N   UNL     1       0.112  10.531  19.692  0.00  0.00    +0.000 NA
ATOM      2  C   UNL     1       0.541   9.861  18.442  0.00  0.00    +0.000 C 
ATOM      3  C   UNL     1       1.873   9.094  18.561  0.00  0.00    +0.000 C 
ATOM      4  N   UNL     1       1.820   8.126  19.668  0.00  0.00    +0.000 N 
ATOM      5  C   UNL     1       1.298   8.621  20.952  0.00  0.00    +0.000 C 
ATOM      6  C   UNL     1       0.010   9.460  20.725  0.00  0.00    +0.000 C 
ENDROOT
BRANCH   4   7
ATOM      7  C   UNL     1       2.057   6.783  19.460  0.00  0.00    +0.000 A 
ATOM      8  C   UNL     1       2.537   6.294  18.239  0.00  0.00    +0.000 A 
ATOM      9  C   UNL     1       2.738   4.926  18.025  0.00  0.00    +0.000 A 
ATOM     10  C   UNL     1       2.465   4.004  19.040  0.00  0.00    +0.000 A 
ATOM     11  C   UNL     1       2.642   2.534  18.831  0.00  0.00    +0.000 C 
ATOM     12  C   UNL     1       2.004   4.473  20.267  0.00  0.00    +0.000 A 
ATOM     13  C   UNL     1       1.812   5.838  20.472  0.00  0.00    +0.000 A 
ENDBRANCH   4   7
BRANCH   1  14
ATOM     14  C   UNL     1       1.052  11.594  20.098  0.00  0.00    +0.000 C 
BRANCH  14  15
ATOM     15  C   UNL     1       0.852  12.926  19.349  0.00  0.00    +0.000 C 
BRANCH  15  16
ATOM     16  C   UNL     1       1.194  14.175  20.166  0.00  0.00    +0.000 C 
BRANCH  16  21
ATOM     17  C   UNL     1       0.664  17.265  18.199  0.00  0.00    +0.000 A 
ATOM     18  S   UNL     1      -0.942  17.252  18.883  0.00  0.00    +0.000 S 
ATOM     19  C   UNL     1      -0.609  15.793  19.800  0.00  0.00    +0.000 A 
ATOM     20  O   UNL     1      -1.412  15.266  20.545  0.00  0.00    +0.000 OA
ATOM     21  N   UNL     1       0.698  15.391  19.525  0.00  0.00    +0.000 N 
ATOM     22  C   UNL     1       1.403  16.234  18.663  0.00  0.00    +0.000 A 
ATOM     23  C   UNL     1       2.840  16.018  18.289  0.00  0.00    +0.000 C 
BRANCH  17  25
ATOM     24  C   UNL     1       0.602  18.429  15.992  0.00  0.00    +0.000 C 
ATOM     25  C   UNL     1       1.081  18.263  17.231  0.00  0.00    +0.000 C 
ENDBRANCH  17  25
ENDBRANCH  16  21
ENDBRANCH  15  16
ENDBRANCH  14  15
ENDBRANCH   1  14
TORSDOF 6
ENDMDL
MODEL 7
REMARK VINA RESULT:      -6.2      3.871      9.497
REMARK  Name = 
REMARK  8 active torsions:
REMARK  status: ('A' for Active; 'I' for Inactive)
REMARK    1  A    between atoms: C_2  and  C_3
REMARK    2  A    between atoms: N_7  and  C_8
REMARK    3  A    between atoms: C_8  and  C_9
REMARK    4  A    between atoms: C_9  and  C_10
REMARK    5  A    between atoms: C_10  and  N_11
REMARK    6  A    between atoms: N_14  and  C_15
REMARK    7  A    between atoms: C_18  and  C_19
REMARK    8  A    between atoms: C_24  and  C_25
REMARK                            x       y       z     vdW  Elec       q    Type
REMARK                         _______ _______ _______ _____ _____    ______ ____
ROOT
ATOM      1  N   UNL     1       0.015  10.013  18.699  0.00  0.00    +0.000 NA
ATOM      2  C   UNL     1      -0.090   9.749  20.154  0.00  0.00    +0.000 C 
ATOM      3  C   UNL     1       0.704  10.735  21.034  0.00  0.00    +0.000 C 
ATOM      4  N   UNL     1       0.320  12.124  20.736  0.00  0.00    +0.000 N 
ATOM      5  C   UNL     1       0.264  12.502  19.315  0.00  0.00    +0.000 C 
ATOM      6  C   UNL     1      -0.469  11.407  18.492  0.00  0.00    +0.000 C 
ENDROOT
BRANCH   4   7
ATOM      7  C   UNL     1      -0.153  12.966  21.722  0.00  0.00    +0.000 A 
ATOM      8  C   UNL     1      -1.138  12.564  22.632  0.00  0.00    +0.000 A 
ATOM      9  C   UNL     1      -1.640  13.438  23.603  0.00  0.00    +0.000 A 
ATOM     10  C   UNL     1      -1.159  14.747  23.691  0.00  0.00    +0.000 A 
ATOM     11  C   UNL     1      -1.696  15.713  24.700  0.00  0.00    +0.000 C 
ATOM     12  C   UNL     1      -0.167  15.160  22.806  0.00  0.00    +0.000 A 
ATOM     13  C   UNL     1       0.330  14.281  21.845  0.00  0.00    +0.000 A 
ENDBRANCH   4   7
BRANCH   1  14
ATOM     14  C   UNL     1       1.395   9.834  18.206  0.00  0.00    +0.000 C 
BRANCH  14  15
ATOM     15  C   UNL     1       1.702   8.409  17.707  0.00  0.00    +0.000 C 
BRANCH  15  16
ATOM     16  C   UNL     1       3.088   7.885  18.090  0.00  0.00    +0.000 C 
BRANCH  16  21
ATOM     17  C   UNL     1       2.513   4.765  19.997  0.00  0.00    +0.000 A 
ATOM     18  S   UNL     1       3.362   3.980  18.689  0.00  0.00    +0.000 S 
ATOM     19  C   UNL     1       3.611   5.503  17.852  0.00  0.00    +0.000 A 
ATOM     20  O   UNL     1       4.211   5.604  16.800  0.00  0.00    +0.000 OA
ATOM     21  N   UNL     1       3.024   6.519  18.607  0.00  0.00    +0.000 N 
ATOM     22  C   UNL     1       2.449   6.100  19.809  0.00  0.00    +0.000 A 
ATOM     23  C   UNL     1       1.822   7.041  20.795  0.00  0.00    +0.000 C 
BRANCH  17  25
ATOM     24  C   UNL     1       1.225   2.888  21.021  0.00  0.00    +0.000 C 
ATOM     25  C   UNL     1       1.938   4.017  21.101  0.00  0.00    +0.000 C 
ENDBRANCH  17  25
ENDBRANCH  16  21
ENDBRANCH  15  16
ENDBRANCH  14  15
ENDBRANCH   1  14
TORSDOF 6
ENDMDL
MODEL 8
REMARK VINA RESULT:      -6.2      1.456      2.225
REMARK  Name = 
REMARK  8 active torsions:
REMARK  status: ('A' for Active; 'I' for Inactive)
REMARK    1  A    between atoms: C_2  and  C_3
REMARK    2  A    between atoms: N_7  and  C_8
REMARK    3  A    between atoms: C_8  and  C_9
REMARK    4  A    between atoms: C_9  and  C_10
REMARK    5  A    between atoms: C_10  and  N_11
REMARK    6  A    between atoms: N_14  and  C_15
REMARK    7  A    between atoms: C_18  and  C_19
REMARK    8  A    between atoms: C_24  and  C_25
REMARK                            x       y       z     vdW  Elec       q    Type
REMARK                         _______ _______ _______ _____ _____    ______ ____
ROOT
ATOM      1  N   UNL     1       2.025   4.304  19.703  0.00  0.00    +0.000 NA
ATOM      2  C   UNL     1       1.851   5.032  18.423  0.00  0.00    +0.000 C 
ATOM      3  C   UNL     1       3.047   5.925  18.038  0.00  0.00    +0.000 C 
ATOM      4  N   UNL     1       4.295   5.145  18.017  0.00  0.00    +0.000 N 
ATOM      5  C   UNL     1       4.547   4.275  19.178  0.00  0.00    +0.000 C 
ATOM      6  C   UNL     1       3.262   3.487  19.553  0.00  0.00    +0.000 C 
ENDROOT
BRANCH   4   7
ATOM      7  C   UNL     1       5.084   5.080  16.888  0.00  0.00    +0.000 A 
ATOM      8  C   UNL     1       4.681   4.385  15.740  0.00  0.00    +0.000 A 
ATOM      9  C   UNL     1       5.505   4.292  14.613  0.00  0.00    +0.000 A 
ATOM     10  C   UNL     1       6.763   4.902  14.605  0.00  0.00    +0.000 A 
ATOM     11  C   UNL     1       7.678   4.795  13.426  0.00  0.00    +0.000 C 
ATOM     12  C   UNL     1       7.174   5.612  15.729  0.00  0.00    +0.000 A 
ATOM     13  C   UNL     1       6.344   5.703  16.846  0.00  0.00    +0.000 A 
ENDBRANCH   4   7
BRANCH   1  14
ATOM     14  C   UNL     1       2.114   5.225  20.853  0.00  0.00    +0.000 C 
BRANCH  14  15
ATOM     15  C   UNL     1       1.205   6.463  20.736  0.00  0.00    +0.000 C 
BRANCH  15  16
ATOM     16  C   UNL     1       1.916   7.800  20.963  0.00  0.00    +0.000 C 
BRANCH  16  21
ATOM     17  C   UNL     1      -0.437  10.657  20.945  0.00  0.00    +0.000 A 
ATOM     18  S   UNL     1      -0.086  10.749  19.238  0.00  0.00    +0.000 S 
ATOM     19  C   UNL     1       1.003   9.375  19.323  0.00  0.00    +0.000 A 
ATOM     20  O   UNL     1       1.587   8.916  18.362  0.00  0.00    +0.000 OA
ATOM     21  N   UNL     1       1.048   8.933  20.646  0.00  0.00    +0.000 N 
ATOM     22  C   UNL     1       0.220   9.631  21.527  0.00  0.00    +0.000 A 
ATOM     23  C   UNL     1       0.072   9.276  22.977  0.00  0.00    +0.000 C 
BRANCH  17  25
ATOM     24  C   UNL     1      -1.022  12.892  21.893  0.00  0.00    +0.000 C 
ATOM     25  C   UNL     1      -1.305  11.615  21.605  0.00  0.00    +0.000 C 
ENDBRANCH  17  25
ENDBRANCH  16  21
ENDBRANCH  15  16
ENDBRANCH  14  15
ENDBRANCH   1  14
TORSDOF 6
ENDMDL
MODEL 9
REMARK VINA RESULT:      -6.1      3.620      9.479
REMARK  Name = 
REMARK  8 active torsions:
REMARK  status: ('A' for Active; 'I' for Inactive)
REMARK    1  A    between atoms: C_2  and  C_3
REMARK    2  A    between atoms: N_7  and  C_8
REMARK    3  A    between atoms: C_8  and  C_9
REMARK    4  A    between atoms: C_9  and  C_10
REMARK    5  A    between atoms: C_10  and  N_11
REMARK    6  A    between atoms: N_14  and  C_15
REMARK    7  A    between atoms: C_18  and  C_19
REMARK    8  A    between atoms: C_24  and  C_25
REMARK                            x       y       z     vdW  Elec       q    Type
REMARK                         _______ _______ _______ _____ _____    ______ ____
ROOT
ATOM      1  N   UNL     1       0.990  10.415  18.198  0.00  0.00    +0.000 NA
ATOM      2  C   UNL     1      -0.213   9.998  18.958  0.00  0.00    +0.000 C 
ATOM      3  C   UNL     1      -0.068  10.121  20.487  0.00  0.00    +0.000 C 
ATOM      4  N   UNL     1       0.328  11.487  20.865  0.00  0.00    +0.000 N 
ATOM      5  C   UNL     1       1.441  12.084  20.108  0.00  0.00    +0.000 C 
ATOM      6  C   UNL     1       1.259  11.829  18.587  0.00  0.00    +0.000 C 
ENDROOT
BRANCH   4   7
ATOM      7  C   UNL     1      -0.428  12.239  21.740  0.00  0.00    +0.000 A 
ATOM      8  C   UNL     1      -0.115  13.571  22.037  0.00  0.00    +0.000 A 
ATOM      9  C   UNL     1      -0.866  14.313  22.956  0.00  0.00    +0.000 A 
ATOM     10  C   UNL     1      -1.962  13.736  23.603  0.00  0.00    +0.000 A 
ATOM     11  C   UNL     1      -2.766  14.495  24.611  0.00  0.00    +0.000 C 
ATOM     12  C   UNL     1      -2.300  12.419  23.307  0.00  0.00    +0.000 A 
ATOM     13  C   UNL     1      -1.549  11.689  22.387  0.00  0.00    +0.000 A 
ENDBRANCH   4   7
BRANCH   1  14
ATOM     14  C   UNL     1       2.147   9.542  18.475  0.00  0.00    +0.000 C 
BRANCH  14  15
ATOM     15  C   UNL     1       1.952   8.082  18.024  0.00  0.00    +0.000 C 
BRANCH  15  16
ATOM     16  C   UNL     1       2.601   7.039  18.938  0.00  0.00    +0.000 C 
BRANCH  16  21
ATOM     17  C   UNL     1       4.507   4.698  16.797  0.00  0.00    +0.000 A 
ATOM     18  S   UNL     1       3.316   3.516  17.277  0.00  0.00    +0.000 S 
ATOM     19  C   UNL     1       2.455   4.690  18.259  0.00  0.00    +0.000 A 
ATOM     20  O   UNL     1       1.440   4.437  18.878  0.00  0.00    +0.000 OA
ATOM     21  N   UNL     1       3.129   5.909  18.177  0.00  0.00    +0.000 N 
ATOM     22  C   UNL     1       4.245   5.907  17.337  0.00  0.00    +0.000 A 
ATOM     23  C   UNL     1       5.070   7.129  17.060  0.00  0.00    +0.000 C 
BRANCH  17  25
ATOM     24  C   UNL     1       6.925   4.312  16.311  0.00  0.00    +0.000 C 
ATOM     25  C   UNL     1       5.636   4.354  15.952  0.00  0.00    +0.000 C 
ENDBRANCH  17  25
ENDBRANCH  16  21
ENDBRANCH  15  16
ENDBRANCH  14  15
ENDBRANCH   1  14
TORSDOF 6
ENDMDL
