MODEL 1
REMARK VINA RESULT:      -8.1      0.000      0.000
REMARK  Name = 
REMARK  4 active torsions:
REMARK  status: ('A' for Active; 'I' for Inactive)
REMARK    1  A    between atoms: C_2  and  C_3
REMARK    2  A    between atoms: C_16  and  O_17
REMARK    3  A    between atoms: O_17  and  C_18
REMARK    4  A    between atoms: C_19  and  O_20
REMARK                            x       y       z     vdW  Elec       q    Type
REMARK                         _______ _______ _______ _____ _____    ______ ____
ROOT
ATOM      1  C   UNL     1       5.994   4.637  15.369  0.00  0.00    +0.000 A 
ATOM      2  C   UNL     1       4.789   4.006  15.687  0.00  0.00    +0.000 A 
ATOM      3  C   UNL     1       4.259   4.104  16.971  0.00  0.00    +0.000 A 
ATOM      4  C   UNL     1       2.984   3.443  17.279  0.00  0.00    +0.000 A 
ATOM      5  O   UNL     1       2.383   2.789  16.440  0.00  0.00    +0.000 OA
ATOM      6  C   UNL     1       2.474   3.594  18.642  0.00  0.00    +0.000 A 
ATOM      7  C   UNL     1       1.254   3.019  19.008  0.00  0.00    +0.000 A 
ATOM      8  C   UNL     1       0.787   3.175  20.313  0.00  0.00    +0.000 A 
ATOM      9  C   UNL     1       1.539   3.899  21.239  0.00  0.00    +0.000 A 
ATOM     10  C   UNL     1       2.760   4.475  20.860  0.00  0.00    +0.000 A 
ATOM     11  C   UNL     1       3.228   4.327  19.555  0.00  0.00    +0.000 A 
ATOM     12  O   UNL     1       4.427   4.927  19.254  0.00  0.00    +0.000 OA
ATOM     13  C   UNL     1       4.914   4.830  17.965  0.00  0.00    +0.000 A 
ATOM     14  C   UNL     1       6.117   5.506  17.669  0.00  0.00    +0.000 A 
ATOM     15  C   UNL     1       6.629   5.423  16.359  0.00  0.00    +0.000 A 
ENDROOT
BRANCH   1  17
ATOM     16  C   UNL     1       6.055   3.681  13.070  0.00  0.00    +0.000 C 
ATOM     17  C   UNL     1       6.557   4.494  14.014  0.00  0.00    +0.000 C 
ENDBRANCH   1  17
BRANCH  14  18
ATOM     18  O   UNL     1       6.643   6.183  18.739  0.00  0.00    +0.000 OA
ATOM     19  C   UNL     1       7.813   5.719  19.390  0.00  0.00    +0.000 C 
ENDBRANCH  14  18
BRANCH  15  20
ATOM     20  O   UNL     1       7.752   6.112  15.980  0.00  0.00    +0.000 OA
ATOM     21  H   UNL     1       8.423   5.942  16.661  0.00  0.00    +0.000 HD
ENDBRANCH  15  20
TORSDOF 3
ENDMDL
MODEL 2
REMARK VINA RESULT:      -7.6      1.549      3.415
REMARK  Name = 
REMARK  4 active torsions:
REMARK  status: ('A' for Active; 'I' for Inactive)
REMARK    1  A    between atoms: C_2  and  C_3
REMARK    2  A    between atoms: C_16  and  O_17
REMARK    3  A    between atoms: O_17  and  C_18
REMARK    4  A    between atoms: C_19  and  O_20
REMARK                            x       y       z     vdW  Elec       q    Type
REMARK                         _______ _______ _______ _____ _____    ______ ____
ROOT
ATOM      1  C   UNL     1       6.539   6.745  17.156  0.00  0.00    +0.000 A 
ATOM      2  C   UNL     1       5.499   6.650  18.084  0.00  0.00    +0.000 A 
ATOM      3  C   UNL     1       4.616   5.575  18.046  0.00  0.00    +0.000 A 
ATOM      4  C   UNL     1       3.537   5.489  19.039  0.00  0.00    +0.000 A 
ATOM      5  O   UNL     1       3.381   6.353  19.890  0.00  0.00    +0.000 OA
ATOM      6  C   UNL     1       2.650   4.329  18.954  0.00  0.00    +0.000 A 
ATOM      7  C   UNL     1       1.616   4.160  19.879  0.00  0.00    +0.000 A 
ATOM      8  C   UNL     1       0.782   3.047  19.778  0.00  0.00    +0.000 A 
ATOM      9  C   UNL     1       0.985   2.116  18.758  0.00  0.00    +0.000 A 
ATOM     10  C   UNL     1       2.027   2.294  17.837  0.00  0.00    +0.000 A 
ATOM     11  C   UNL     1       2.867   3.402  17.938  0.00  0.00    +0.000 A 
ATOM     12  O   UNL     1       3.872   3.504  17.007  0.00  0.00    +0.000 OA
ATOM     13  C   UNL     1       4.747   4.571  17.087  0.00  0.00    +0.000 A 
ATOM     14  C   UNL     1       5.805   4.620  16.155  0.00  0.00    +0.000 A 
ATOM     15  C   UNL     1       6.709   5.698  16.221  0.00  0.00    +0.000 A 
ENDROOT
BRANCH   1  17
ATOM     16  C   UNL     1       8.220   8.229  18.239  0.00  0.00    +0.000 C 
ATOM     17  C   UNL     1       7.444   7.908  17.191  0.00  0.00    +0.000 C 
ENDBRANCH   1  17
BRANCH  14  18
ATOM     18  O   UNL     1       5.812   3.564  15.278  0.00  0.00    +0.000 OA
ATOM     19  C   UNL     1       5.745   3.781  13.880  0.00  0.00    +0.000 C 
ENDBRANCH  14  18
BRANCH  15  20
ATOM     20  O   UNL     1       7.802   5.773  15.396  0.00  0.00    +0.000 OA
ATOM     21  H   UNL     1       8.320   6.539  15.693  0.00  0.00    +0.000 HD
ENDBRANCH  15  20
TORSDOF 3
ENDMDL
MODEL 3
REMARK VINA RESULT:      -7.2      3.550      4.831
REMARK  Name = 
REMARK  4 active torsions:
REMARK  status: ('A' for Active; 'I' for Inactive)
REMARK    1  A    between atoms: C_2  and  C_3
REMARK    2  A    between atoms: C_16  and  O_17
REMARK    3  A    between atoms: O_17  and  C_18
REMARK    4  A    between atoms: C_19  and  O_20
REMARK                            x       y       z     vdW  Elec       q    Type
REMARK                         _______ _______ _______ _____ _____    ______ ____
ROOT
ATOM      1  C   UNL     1       4.108   4.868  17.662  0.00  0.00    +0.000 A 
ATOM      2  C   UNL     1       3.608   6.160  17.481  0.00  0.00    +0.000 A 
ATOM      3  C   UNL     1       2.845   6.765  18.476  0.00  0.00    +0.000 A 
ATOM      4  C   UNL     1       2.340   8.129  18.270  0.00  0.00    +0.000 A 
ATOM      5  O   UNL     1       2.555   8.742  17.235  0.00  0.00    +0.000 OA
ATOM      6  C   UNL     1       1.555   8.715  19.357  0.00  0.00    +0.000 A 
ATOM      7  C   UNL     1       1.062  10.018  19.251  0.00  0.00    +0.000 A 
ATOM      8  C   UNL     1       0.315  10.556  20.299  0.00  0.00    +0.000 A 
ATOM      9  C   UNL     1       0.067   9.791  21.440  0.00  0.00    +0.000 A 
ATOM     10  C   UNL     1       0.570   8.486  21.537  0.00  0.00    +0.000 A 
ATOM     11  C   UNL     1       1.321   7.947  20.495  0.00  0.00    +0.000 A 
ATOM     12  O   UNL     1       1.789   6.666  20.666  0.00  0.00    +0.000 OA
ATOM     13  C   UNL     1       2.563   6.102  19.670  0.00  0.00    +0.000 A 
ATOM     14  C   UNL     1       3.079   4.809  19.897  0.00  0.00    +0.000 A 
ATOM     15  C   UNL     1       3.874   4.217  18.895  0.00  0.00    +0.000 A 
ENDROOT
BRANCH   1  17
ATOM     16  C   UNL     1       5.438   4.895  15.556  0.00  0.00    +0.000 C 
ATOM     17  C   UNL     1       4.886   4.230  16.584  0.00  0.00    +0.000 C 
ENDBRANCH   1  17
BRANCH  14  18
ATOM     18  O   UNL     1       2.727   4.284  21.115  0.00  0.00    +0.000 OA
ATOM     19  C   UNL     1       1.734   3.279  21.213  0.00  0.00    +0.000 C 
ENDBRANCH  14  18
BRANCH  15  20
ATOM     20  O   UNL     1       4.469   2.995  19.076  0.00  0.00    +0.000 OA
ATOM     21  H   UNL     1       4.754   2.694  18.197  0.00  0.00    +0.000 HD
ENDBRANCH  15  20
TORSDOF 3
ENDMDL
MODEL 4
REMARK VINA RESULT:      -7.0      1.697      1.939
REMARK  Name = 
REMARK  4 active torsions:
REMARK  status: ('A' for Active; 'I' for Inactive)
REMARK    1  A    between atoms: C_2  and  C_3
REMARK    2  A    between atoms: C_16  and  O_17
REMARK    3  A    between atoms: O_17  and  C_18
REMARK    4  A    between atoms: C_19  and  O_20
REMARK                            x       y       z     vdW  Elec       q    Type
REMARK                         _______ _______ _______ _____ _____    ______ ____
ROOT
ATOM      1  C   UNL     1       5.421   4.719  15.503  0.00  0.00    +0.000 A 
ATOM      2  C   UNL     1       4.925   3.646  16.246  0.00  0.00    +0.000 A 
ATOM      3  C   UNL     1       4.214   3.872  17.421  0.00  0.00    +0.000 A 
ATOM      4  C   UNL     1       3.690   2.728  18.180  0.00  0.00    +0.000 A 
ATOM      5  O   UNL     1       3.881   1.577  17.816  0.00  0.00    +0.000 OA
ATOM      6  C   UNL     1       2.941   3.031  19.400  0.00  0.00    +0.000 A 
ATOM      7  C   UNL     1       2.386   2.000  20.164  0.00  0.00    +0.000 A 
ATOM      8  C   UNL     1       1.676   2.313  21.323  0.00  0.00    +0.000 A 
ATOM      9  C   UNL     1       1.527   3.645  21.709  0.00  0.00    +0.000 A 
ATOM     10  C   UNL     1       2.085   4.671  20.934  0.00  0.00    +0.000 A 
ATOM     11  C   UNL     1       2.790   4.365  19.772  0.00  0.00    +0.000 A 
ATOM     12  O   UNL     1       3.299   5.422  19.057  0.00  0.00    +0.000 OA
ATOM     13  C   UNL     1       3.980   5.166  17.883  0.00  0.00    +0.000 A 
ATOM     14  C   UNL     1       4.440   6.274  17.140  0.00  0.00    +0.000 A 
ATOM     15  C   UNL     1       5.134   6.034  15.937  0.00  0.00    +0.000 A 
ENDROOT
BRANCH   1  17
ATOM     16  C   UNL     1       5.764   3.719  13.248  0.00  0.00    +0.000 C 
ATOM     17  C   UNL     1       6.201   4.460  14.278  0.00  0.00    +0.000 C 
ENDBRANCH   1  17
BRANCH  14  18
ATOM     18  O   UNL     1       4.132   7.483  17.710  0.00  0.00    +0.000 OA
ATOM     19  C   UNL     1       2.848   8.058  17.546  0.00  0.00    +0.000 C 
ENDBRANCH  14  18
BRANCH  15  20
ATOM     20  O   UNL     1       5.546   7.061  15.126  0.00  0.00    +0.000 OA
ATOM     21  H   UNL     1       6.402   7.360  15.475  0.00  0.00    +0.000 HD
ENDBRANCH  15  20
TORSDOF 3
ENDMDL
MODEL 5
REMARK VINA RESULT:      -6.7      4.285      5.558
REMARK  Name = 
REMARK  4 active torsions:
REMARK  status: ('A' for Active; 'I' for Inactive)
REMARK    1  A    between atoms: C_2  and  C_3
REMARK    2  A    between atoms: C_16  and  O_17
REMARK    3  A    between atoms: O_17  and  C_18
REMARK    4  A    between atoms: C_19  and  O_20
REMARK                            x       y       z     vdW  Elec       q    Type
REMARK                         _______ _______ _______ _____ _____    ______ ____
ROOT
ATOM      1  C   UNL     1       3.732   6.350  17.754  0.00  0.00    +0.000 A 
ATOM      2  C   UNL     1       3.128   7.609  17.792  0.00  0.00    +0.000 A 
ATOM      3  C   UNL     1       2.320   7.971  18.865  0.00  0.00    +0.000 A 
ATOM      4  C   UNL     1       1.706   9.306  18.891  0.00  0.00    +0.000 A 
ATOM      5  O   UNL     1       1.871  10.103  17.978  0.00  0.00    +0.000 OA
ATOM      6  C   UNL     1       0.878   9.631  20.052  0.00  0.00    +0.000 A 
ATOM      7  C   UNL     1       0.281  10.890  20.164  0.00  0.00    +0.000 A 
ATOM      8  C   UNL     1      -0.506  11.177  21.280  0.00  0.00    +0.000 A 
ATOM      9  C   UNL     1      -0.690  10.210  22.269  0.00  0.00    +0.000 A 
ATOM     10  C   UNL     1      -0.084   8.952  22.147  0.00  0.00    +0.000 A 
ATOM     11  C   UNL     1       0.708   8.662  21.037  0.00  0.00    +0.000 A 
ATOM     12  O   UNL     1       1.278   7.413  20.992  0.00  0.00    +0.000 OA
ATOM     13  C   UNL     1       2.094   7.092  19.924  0.00  0.00    +0.000 A 
ATOM     14  C   UNL     1       2.713   5.825  19.932  0.00  0.00    +0.000 A 
ATOM     15  C   UNL     1       3.552   5.480  18.854  0.00  0.00    +0.000 A 
ENDROOT
BRANCH   1  17
ATOM     16  C   UNL     1       5.851   6.301  16.447  0.00  0.00    +0.000 C 
ATOM     17  C   UNL     1       4.558   5.971  16.593  0.00  0.00    +0.000 C 
ENDBRANCH   1  17
BRANCH  14  18
ATOM     18  O   UNL     1       2.405   5.071  21.037  0.00  0.00    +0.000 OA
ATOM     19  C   UNL     1       1.602   3.911  20.924  0.00  0.00    +0.000 C 
ENDBRANCH  14  18
BRANCH  15  20
ATOM     20  O   UNL     1       4.244   4.296  18.830  0.00  0.00    +0.000 OA
ATOM     21  H   UNL     1       3.768   3.711  18.218  0.00  0.00    +0.000 HD
ENDBRANCH  15  20
TORSDOF 3
ENDMDL
MODEL 6
REMARK VINA RESULT:      -6.7      2.021      5.795
REMARK  Name = 
REMARK  4 active torsions:
REMARK  status: ('A' for Active; 'I' for Inactive)
REMARK    1  A    between atoms: C_2  and  C_3
REMARK    2  A    between atoms: C_16  and  O_17
REMARK    3  A    between atoms: O_17  and  C_18
REMARK    4  A    between atoms: C_19  and  O_20
REMARK                            x       y       z     vdW  Elec       q    Type
REMARK                         _______ _______ _______ _____ _____    ______ ____
ROOT
ATOM      1  C   UNL     1       2.011   4.436  20.127  0.00  0.00    +0.000 A 
ATOM      2  C   UNL     1       2.725   3.647  19.222  0.00  0.00    +0.000 A 
ATOM      3  C   UNL     1       3.470   4.239  18.206  0.00  0.00    +0.000 A 
ATOM      4  C   UNL     1       4.224   3.391  17.273  0.00  0.00    +0.000 A 
ATOM      5  O   UNL     1       4.198   2.171  17.354  0.00  0.00    +0.000 OA
ATOM      6  C   UNL     1       4.997   4.073  16.235  0.00  0.00    +0.000 A 
ATOM      7  C   UNL     1       5.763   3.338  15.326  0.00  0.00    +0.000 A 
ATOM      8  C   UNL     1       6.492   4.010  14.344  0.00  0.00    +0.000 A 
ATOM      9  C   UNL     1       6.449   5.403  14.277  0.00  0.00    +0.000 A 
ATOM     10  C   UNL     1       5.679   6.130  15.197  0.00  0.00    +0.000 A 
ATOM     11  C   UNL     1       4.955   5.464  16.183  0.00  0.00    +0.000 A 
ATOM     12  O   UNL     1       4.233   6.243  17.055  0.00  0.00    +0.000 OA
ATOM     13  C   UNL     1       3.522   5.626  18.067  0.00  0.00    +0.000 A 
ATOM     14  C   UNL     1       2.839   6.452  18.983  0.00  0.00    +0.000 A 
ATOM     15  C   UNL     1       2.111   5.843  20.024  0.00  0.00    +0.000 A 
ENDROOT
BRANCH   1  17
ATOM     16  C   UNL     1       1.530   2.639  21.782  0.00  0.00    +0.000 C 
ATOM     17  C   UNL     1       1.201   3.790  21.176  0.00  0.00    +0.000 C 
ENDBRANCH   1  17
BRANCH  14  18
ATOM     18  O   UNL     1       2.985   7.792  18.727  0.00  0.00    +0.000 OA
ATOM     19  C   UNL     1       1.973   8.518  18.052  0.00  0.00    +0.000 C 
ENDBRANCH  14  18
BRANCH  15  20
ATOM     20  O   UNL     1       1.483   6.583  20.993  0.00  0.00    +0.000 OA
ATOM     21  H   UNL     1       0.650   6.896  20.603  0.00  0.00    +0.000 HD
ENDBRANCH  15  20
TORSDOF 3
ENDMDL
MODEL 7
REMARK VINA RESULT:      -6.6      4.216      6.876
REMARK  Name = 
REMARK  4 active torsions:
REMARK  status: ('A' for Active; 'I' for Inactive)
REMARK    1  A    between atoms: C_2  and  C_3
REMARK    2  A    between atoms: C_16  and  O_17
REMARK    3  A    between atoms: O_17  and  C_18
REMARK    4  A    between atoms: C_19  and  O_20
REMARK                            x       y       z     vdW  Elec       q    Type
REMARK                         _______ _______ _______ _____ _____    ______ ____
ROOT
ATOM      1  C   UNL     1       0.627   8.627  20.868  0.00  0.00    +0.000 A 
ATOM      2  C   UNL     1       1.354   7.437  20.789  0.00  0.00    +0.000 A 
ATOM      3  C   UNL     1       2.198   7.198  19.708  0.00  0.00    +0.000 A 
ATOM      4  C   UNL     1       2.964   5.946  19.652  0.00  0.00    +0.000 A 
ATOM      5  O   UNL     1       2.863   5.094  20.523  0.00  0.00    +0.000 OA
ATOM      6  C   UNL     1       3.842   5.759  18.497  0.00  0.00    +0.000 A 
ATOM      7  C   UNL     1       4.625   4.607  18.383  0.00  0.00    +0.000 A 
ATOM      8  C   UNL     1       5.455   4.449  17.273  0.00  0.00    +0.000 A 
ATOM      9  C   UNL     1       5.496   5.438  16.289  0.00  0.00    +0.000 A 
ATOM     10  C   UNL     1       4.708   6.591  16.415  0.00  0.00    +0.000 A 
ATOM     11  C   UNL     1       3.883   6.756  17.526  0.00  0.00    +0.000 A 
ATOM     12  O   UNL     1       3.149   7.916  17.587  0.00  0.00    +0.000 OA
ATOM     13  C   UNL     1       2.338   8.134  18.684  0.00  0.00    +0.000 A 
ATOM     14  C   UNL     1       1.642   9.359  18.749  0.00  0.00    +0.000 A 
ATOM     15  C   UNL     1       0.813   9.603  19.861  0.00  0.00    +0.000 A 
ENDROOT
BRANCH   1  17
ATOM     16  C   UNL     1       0.068   9.442  23.154  0.00  0.00    +0.000 C 
ATOM     17  C   UNL     1      -0.288   8.849  22.003  0.00  0.00    +0.000 C 
ENDBRANCH   1  17
BRANCH  14  18
ATOM     18  O   UNL     1       1.880  10.183  17.678  0.00  0.00    +0.000 OA
ATOM     19  C   UNL     1       2.463  11.461  17.860  0.00  0.00    +0.000 C 
ENDBRANCH  14  18
BRANCH  15  20
ATOM     20  O   UNL     1       0.163  10.799  20.028  0.00  0.00    +0.000 OA
ATOM     21  H   UNL     1       0.634  11.273  20.733  0.00  0.00    +0.000 HD
ENDBRANCH  15  20
TORSDOF 3
ENDMDL
MODEL 8
REMARK VINA RESULT:      -6.6      3.102      3.821
REMARK  Name = 
REMARK  4 active torsions:
REMARK  status: ('A' for Active; 'I' for Inactive)
REMARK    1  A    between atoms: C_2  and  C_3
REMARK    2  A    between atoms: C_16  and  O_17
REMARK    3  A    between atoms: O_17  and  C_18
REMARK    4  A    between atoms: C_19  and  O_20
REMARK                            x       y       z     vdW  Elec       q    Type
REMARK                         _______ _______ _______ _____ _____    ______ ____
ROOT
ATOM      1  C   UNL     1       5.402   5.786  16.557  0.00  0.00    +0.000 A 
ATOM      2  C   UNL     1       4.533   6.875  16.659  0.00  0.00    +0.000 A 
ATOM      3  C   UNL     1       3.702   7.012  17.767  0.00  0.00    +0.000 A 
ATOM      4  C   UNL     1       2.806   8.172  17.860  0.00  0.00    +0.000 A 
ATOM      5  O   UNL     1       2.755   9.014  16.974  0.00  0.00    +0.000 OA
ATOM      6  C   UNL     1       1.966   8.266  19.054  0.00  0.00    +0.000 A 
ATOM      7  C   UNL     1       1.107   9.354  19.231  0.00  0.00    +0.000 A 
ATOM      8  C   UNL     1       0.315   9.422  20.378  0.00  0.00    +0.000 A 
ATOM      9  C   UNL     1       0.387   8.409  21.334  0.00  0.00    +0.000 A 
ATOM     10  C   UNL     1       1.255   7.324  21.148  0.00  0.00    +0.000 A 
ATOM     11  C   UNL     1       2.052   7.254  20.007  0.00  0.00    +0.000 A 
ATOM     12  O   UNL     1       2.887   6.167  19.898  0.00  0.00    +0.000 OA
ATOM     13  C   UNL     1       3.716   6.072  18.797  0.00  0.00    +0.000 A 
ATOM     14  C   UNL     1       4.603   4.977  18.741  0.00  0.00    +0.000 A 
ATOM     15  C   UNL     1       5.460   4.864  17.628  0.00  0.00    +0.000 A 
ENDROOT
BRANCH   1  17
ATOM     16  C   UNL     1       6.000   4.780  14.359  0.00  0.00    +0.000 C 
ATOM     17  C   UNL     1       6.250   5.639  15.360  0.00  0.00    +0.000 C 
ENDBRANCH   1  17
BRANCH  14  18
ATOM     18  O   UNL     1       4.512   4.140  19.824  0.00  0.00    +0.000 OA
ATOM     19  C   UNL     1       3.786   2.926  19.745  0.00  0.00    +0.000 C 
ENDBRANCH  14  18
BRANCH  15  20
ATOM     20  O   UNL     1       6.399   3.868  17.540  0.00  0.00    +0.000 OA
ATOM     21  H   UNL     1       7.266   4.305  17.549  0.00  0.00    +0.000 HD
ENDBRANCH  15  20
TORSDOF 3
ENDMDL
MODEL 9
REMARK VINA RESULT:      -6.4      2.179      6.034
REMARK  Name = 
REMARK  4 active torsions:
REMARK  status: ('A' for Active; 'I' for Inactive)
REMARK    1  A    between atoms: C_2  and  C_3
REMARK    2  A    between atoms: C_16  and  O_17
REMARK    3  A    between atoms: O_17  and  C_18
REMARK    4  A    between atoms: C_19  and  O_20
REMARK                            x       y       z     vdW  Elec       q    Type
REMARK                         _______ _______ _______ _____ _____    ______ ____
ROOT
ATOM      1  C   UNL     1       2.084   5.903  20.243  0.00  0.00    +0.000 A 
ATOM      2  C   UNL     1       2.707   6.502  19.146  0.00  0.00    +0.000 A 
ATOM      3  C   UNL     1       3.506   5.749  18.291  0.00  0.00    +0.000 A 
ATOM      4  C   UNL     1       4.141   6.397  17.136  0.00  0.00    +0.000 A 
ATOM      5  O   UNL     1       4.001   7.591  16.916  0.00  0.00    +0.000 OA
ATOM      6  C   UNL     1       4.959   5.549  16.268  0.00  0.00    +0.000 A 
ATOM      7  C   UNL     1       5.574   6.084  15.133  0.00  0.00    +0.000 A 
ATOM      8  C   UNL     1       6.350   5.257  14.321  0.00  0.00    +0.000 A 
ATOM      9  C   UNL     1       6.506   3.909  14.647  0.00  0.00    +0.000 A 
ATOM     10  C   UNL     1       5.881   3.383  15.787  0.00  0.00    +0.000 A 
ATOM     11  C   UNL     1       5.100   4.203  16.598  0.00  0.00    +0.000 A 
ATOM     12  O   UNL     1       4.511   3.615  17.691  0.00  0.00    +0.000 OA
ATOM     13  C   UNL     1       3.704   4.385  18.507  0.00  0.00    +0.000 A 
ATOM     14  C   UNL     1       3.065   3.742  19.588  0.00  0.00    +0.000 A 
ATOM     15  C   UNL     1       2.235   4.509  20.429  0.00  0.00    +0.000 A 
ENDROOT
BRANCH   1  17
ATOM     16  C   UNL     1       1.202   8.063  21.112  0.00  0.00    +0.000 C 
ATOM     17  C   UNL     1       1.267   6.723  21.157  0.00  0.00    +0.000 C 
ENDBRANCH   1  17
BRANCH  14  18
ATOM     18  O   UNL     1       3.345   2.402  19.672  0.00  0.00    +0.000 OA
ATOM     19  C   UNL     1       4.410   1.932  20.479  0.00  0.00    +0.000 C 
ENDBRANCH  14  18
BRANCH  15  20
ATOM     20  O   UNL     1       1.524   3.938  21.454  0.00  0.00    +0.000 OA
ATOM     21  H   UNL     1       0.708   4.458  21.547  0.00  0.00    +0.000 HD
ENDBRANCH  15  20
TORSDOF 3
ENDMDL
