MODEL 1
REMARK VINA RESULT:      -8.3      0.000      0.000
REMARK  Name = 
REMARK  7 active torsions:
REMARK  status: ('A' for Active; 'I' for Inactive)
REMARK    1  A    between atoms: C_1  and  C_2
REMARK    2  A    between atoms: N_4  and  C_5
REMARK    3  A    between atoms: C_5  and  C_6
REMARK    4  A    between atoms: N_8  and  C_9
REMARK    5  A    between atoms: C_13  and  N_14
REMARK    6  A    between atoms: C_16  and  O_17
REMARK    7  A    between atoms: C_16  and  C_18
REMARK                            x       y       z     vdW  Elec       q    Type
REMARK                         _______ _______ _______ _____ _____    ______ ____
ROOT
ATOM      1  C   UNL     1       2.999   6.831  18.512  0.00  0.00    +0.000 A 
ATOM      2  C   UNL     1       2.493   6.737  19.812  0.00  0.00    +0.000 A 
ATOM      3  C   UNL     1       1.695   7.750  20.352  0.00  0.00    +0.000 A 
ATOM      4  F   UNL     1       1.264   7.585  21.613  0.00  0.00    +0.000 F 
ATOM      5  C   UNL     1       1.360   8.901  19.631  0.00  0.00    +0.000 A 
ATOM      6  C   UNL     1       1.841   8.960  18.316  0.00  0.00    +0.000 A 
ATOM      7  F   UNL     1       1.518   9.999  17.526  0.00  0.00    +0.000 F 
ATOM      8  C   UNL     1       2.660   7.963  17.767  0.00  0.00    +0.000 A 
ENDROOT
BRANCH   1  11
ATOM      9  C   UNL     1       5.709   4.549  17.536  0.00  0.00    +0.000 C 
ATOM     10  C   UNL     1       5.252   5.977  17.765  0.00  0.00    +0.000 C 
ATOM     11  N   UNL     1       3.841   5.823  17.982  0.00  0.00    +0.000 N 
ATOM     12  C   UNL     1       3.434   4.586  17.505  0.00  0.00    +0.000 C 
ATOM     13  O   UNL     1       2.300   4.153  17.386  0.00  0.00    +0.000 OA
ATOM     14  O   UNL     1       4.524   3.863  17.100  0.00  0.00    +0.000 OA
BRANCH   9  15
ATOM     15  C   UNL     1       6.778   4.419  16.454  0.00  0.00    +0.000 C 
BRANCH  15  19
ATOM     16  C   UNL     1       5.951   3.595  12.847  0.00  0.00    +0.000 C 
ATOM     17  C   UNL     1       6.592   4.336  13.988  0.00  0.00    +0.000 C 
ATOM     18  O   UNL     1       7.347   5.284  13.832  0.00  0.00    +0.000 OA
ATOM     19  N   UNL     1       6.236   3.850  15.229  0.00  0.00    +0.000 N 
ATOM     20  H   UNL     1       5.833   2.922  15.281  0.00  0.00    +0.000 HD
ENDBRANCH  15  19
ENDBRANCH   9  15
ENDBRANCH   1  11
BRANCH   5  21
ATOM     21  N   UNL     1       0.579   9.939  20.191  0.00  0.00    +0.000 N 
ATOM     22  C   UNL     1       1.031  11.037  20.994  0.00  0.00    +0.000 C 
ATOM     23  C   UNL     1      -0.207  10.853  21.898  0.00  0.00    +0.000 C 
ATOM     24  C   UNL     1      -0.687   9.831  20.855  0.00  0.00    +0.000 C 
BRANCH  23  25
ATOM     25  C   UNL     1      -1.111  12.072  21.999  0.00  0.00    +0.000 C 
ATOM     26  F   UNL     1      -0.604  13.037  22.801  0.00  0.00    +0.000 F 
ATOM     27  F   UNL     1      -1.362  12.623  20.789  0.00  0.00    +0.000 F 
ATOM     28  F   UNL     1      -2.307  11.705  22.532  0.00  0.00    +0.000 F 
ENDBRANCH  23  25
BRANCH  23  29
ATOM     29  O   UNL     1       0.085  10.272  23.220  0.00  0.00    +0.000 OA
ATOM     30  H   UNL     1       0.972   9.875  23.133  0.00  0.00    +0.000 HD
ENDBRANCH  23  29
ENDBRANCH   5  21
TORSDOF 6
ENDMDL
MODEL 2
REMARK VINA RESULT:      -8.3      1.456      2.282
REMARK  Name = 
REMARK  7 active torsions:
REMARK  status: ('A' for Active; 'I' for Inactive)
REMARK    1  A    between atoms: C_1  and  C_2
REMARK    2  A    between atoms: N_4  and  C_5
REMARK    3  A    between atoms: C_5  and  C_6
REMARK    4  A    between atoms: N_8  and  C_9
REMARK    5  A    between atoms: C_13  and  N_14
REMARK    6  A    between atoms: C_16  and  O_17
REMARK    7  A    between atoms: C_16  and  C_18
REMARK                            x       y       z     vdW  Elec       q    Type
REMARK                         _______ _______ _______ _____ _____    ______ ____
ROOT
ATOM      1  C   UNL     1       2.964   6.958  18.665  0.00  0.00    +0.000 A 
ATOM      2  C   UNL     1       2.709   8.034  17.809  0.00  0.00    +0.000 A 
ATOM      3  C   UNL     1       1.852   9.071  18.186  0.00  0.00    +0.000 A 
ATOM      4  F   UNL     1       1.653  10.057  17.297  0.00  0.00    +0.000 F 
ATOM      5  C   UNL     1       1.208   9.094  19.428  0.00  0.00    +0.000 A 
ATOM      6  C   UNL     1       1.506   8.030  20.290  0.00  0.00    +0.000 A 
ATOM      7  F   UNL     1       0.983   7.999  21.528  0.00  0.00    +0.000 F 
ATOM      8  C   UNL     1       2.346   6.971  19.919  0.00  0.00    +0.000 A 
ENDROOT
BRANCH   1  11
ATOM      9  C   UNL     1       5.632   4.505  18.064  0.00  0.00    +0.000 C 
ATOM     10  C   UNL     1       5.232   5.962  18.189  0.00  0.00    +0.000 C 
ATOM     11  N   UNL     1       3.800   5.888  18.264  0.00  0.00    +0.000 N 
ATOM     12  C   UNL     1       3.377   4.653  17.795  0.00  0.00    +0.000 C 
ATOM     13  O   UNL     1       2.239   4.272  17.575  0.00  0.00    +0.000 OA
ATOM     14  O   UNL     1       4.462   3.860  17.533  0.00  0.00    +0.000 OA
BRANCH   9  15
ATOM     15  C   UNL     1       6.797   4.274  17.104  0.00  0.00    +0.000 C 
BRANCH  15  19
ATOM     16  C   UNL     1       6.198   3.805  13.391  0.00  0.00    +0.000 C 
ATOM     17  C   UNL     1       6.759   4.435  14.635  0.00  0.00    +0.000 C 
ATOM     18  O   UNL     1       7.506   5.401  14.620  0.00  0.00    +0.000 OA
ATOM     19  N   UNL     1       6.337   3.825  15.799  0.00  0.00    +0.000 N 
ATOM     20  H   UNL     1       5.947   2.892  15.735  0.00  0.00    +0.000 HD
ENDBRANCH  15  19
ENDBRANCH   9  15
ENDBRANCH   1  11
BRANCH   5  21
ATOM     21  N   UNL     1       0.316  10.129  19.795  0.00  0.00    +0.000 N 
ATOM     22  C   UNL     1      -1.002  10.369  19.285  0.00  0.00    +0.000 C 
ATOM     23  C   UNL     1      -0.692  11.881  19.265  0.00  0.00    +0.000 C 
ATOM     24  C   UNL     1       0.611  11.517  19.996  0.00  0.00    +0.000 C 
BRANCH  23  25
ATOM     25  C   UNL     1      -1.629  12.735  20.106  0.00  0.00    +0.000 C 
ATOM     26  F   UNL     1      -1.681  12.340  21.399  0.00  0.00    +0.000 F 
ATOM     27  F   UNL     1      -1.286  14.044  20.082  0.00  0.00    +0.000 F 
ATOM     28  F   UNL     1      -2.893  12.639  19.614  0.00  0.00    +0.000 F 
ENDBRANCH  23  25
BRANCH  23  29
ATOM     29  O   UNL     1      -0.491  12.444  17.919  0.00  0.00    +0.000 OA
ATOM     30  H   UNL     1      -0.601  11.691  17.309  0.00  0.00    +0.000 HD
ENDBRANCH  23  29
ENDBRANCH   5  21
TORSDOF 6
ENDMDL
MODEL 3
REMARK VINA RESULT:      -8.2      1.418      1.768
REMARK  Name = 
REMARK  7 active torsions:
REMARK  status: ('A' for Active; 'I' for Inactive)
REMARK    1  A    between atoms: C_1  and  C_2
REMARK    2  A    between atoms: N_4  and  C_5
REMARK    3  A    between atoms: C_5  and  C_6
REMARK    4  A    between atoms: N_8  and  C_9
REMARK    5  A    between atoms: C_13  and  N_14
REMARK    6  A    between atoms: C_16  and  O_17
REMARK    7  A    between atoms: C_16  and  C_18
REMARK                            x       y       z     vdW  Elec       q    Type
REMARK                         _______ _______ _______ _____ _____    ______ ____
ROOT
ATOM      1  C   UNL     1       2.928   6.917  18.674  0.00  0.00    +0.000 A 
ATOM      2  C   UNL     1       2.330   6.949  19.937  0.00  0.00    +0.000 A 
ATOM      3  C   UNL     1       1.516   8.017  20.325  0.00  0.00    +0.000 A 
ATOM      4  F   UNL     1       0.993   7.973  21.561  0.00  0.00    +0.000 F 
ATOM      5  C   UNL     1       1.255   9.102  19.482  0.00  0.00    +0.000 A 
ATOM      6  C   UNL     1       1.829   9.035  18.205  0.00  0.00    +0.000 A 
ATOM      7  F   UNL     1       1.583  10.002  17.305  0.00  0.00    +0.000 F 
ATOM      8  C   UNL     1       2.665   7.982  17.808  0.00  0.00    +0.000 A 
ENDROOT
BRANCH   1  11
ATOM      9  C   UNL     1       5.647   4.507  18.125  0.00  0.00    +0.000 C 
ATOM     10  C   UNL     1       5.214   5.958  18.212  0.00  0.00    +0.000 C 
ATOM     11  N   UNL     1       3.785   5.854  18.299  0.00  0.00    +0.000 N 
ATOM     12  C   UNL     1       3.388   4.597  17.869  0.00  0.00    +0.000 C 
ATOM     13  O   UNL     1       2.257   4.184  17.669  0.00  0.00    +0.000 OA
ATOM     14  O   UNL     1       4.488   3.821  17.623  0.00  0.00    +0.000 OA
BRANCH   9  15
ATOM     15  C   UNL     1       6.810   4.274  17.165  0.00  0.00    +0.000 C 
BRANCH  15  19
ATOM     16  C   UNL     1       6.206   3.836  13.448  0.00  0.00    +0.000 C 
ATOM     17  C   UNL     1       6.770   4.454  14.697  0.00  0.00    +0.000 C 
ATOM     18  O   UNL     1       7.522   5.417  14.689  0.00  0.00    +0.000 OA
ATOM     19  N   UNL     1       6.347   3.837  15.856  0.00  0.00    +0.000 N 
ATOM     20  H   UNL     1       5.953   2.906  15.786  0.00  0.00    +0.000 HD
ENDBRANCH  15  19
ENDBRANCH   9  15
ENDBRANCH   1  11
BRANCH   5  21
ATOM     21  N   UNL     1       0.457  10.197  19.889  0.00  0.00    +0.000 N 
ATOM     22  C   UNL     1      -0.878  10.508  19.471  0.00  0.00    +0.000 C 
ATOM     23  C   UNL     1      -0.480  11.998  19.391  0.00  0.00    +0.000 C 
ATOM     24  C   UNL     1       0.850  11.568  20.034  0.00  0.00    +0.000 C 
BRANCH  23  25
ATOM     25  C   UNL     1      -1.297  12.925  20.278  0.00  0.00    +0.000 C 
ATOM     26  F   UNL     1      -2.621  12.881  20.004  0.00  0.00    +0.000 F 
ATOM     27  F   UNL     1      -1.133  12.652  21.592  0.00  0.00    +0.000 F 
ATOM     28  F   UNL     1      -0.898  14.210  20.078  0.00  0.00    +0.000 F 
ENDBRANCH  23  25
BRANCH  23  29
ATOM     29  O   UNL     1      -0.345  12.521  18.021  0.00  0.00    +0.000 OA
ATOM     30  H   UNL     1       0.030  13.415  18.127  0.00  0.00    +0.000 HD
ENDBRANCH  23  29
ENDBRANCH   5  21
TORSDOF 6
ENDMDL
MODEL 4
REMARK VINA RESULT:      -8.2      0.205      1.744
REMARK  Name = 
REMARK  7 active torsions:
REMARK  status: ('A' for Active; 'I' for Inactive)
REMARK    1  A    between atoms: C_1  and  C_2
REMARK    2  A    between atoms: N_4  and  C_5
REMARK    3  A    between atoms: C_5  and  C_6
REMARK    4  A    between atoms: N_8  and  C_9
REMARK    5  A    between atoms: C_13  and  N_14
REMARK    6  A    between atoms: C_16  and  O_17
REMARK    7  A    between atoms: C_16  and  C_18
REMARK                            x       y       z     vdW  Elec       q    Type
REMARK                         _______ _______ _______ _____ _____    ______ ____
ROOT
ATOM      1  C   UNL     1       3.095   6.805  18.532  0.00  0.00    +0.000 A 
ATOM      2  C   UNL     1       2.775   7.961  17.813  0.00  0.00    +0.000 A 
ATOM      3  C   UNL     1       1.948   8.946  18.359  0.00  0.00    +0.000 A 
ATOM      4  F   UNL     1       1.680  10.016  17.594  0.00  0.00    +0.000 F 
ATOM      5  C   UNL     1       1.400   8.836  19.642  0.00  0.00    +0.000 A 
ATOM      6  C   UNL     1       1.764   7.691  20.364  0.00  0.00    +0.000 A 
ATOM      7  F   UNL     1       1.337   7.528  21.628  0.00  0.00    +0.000 F 
ATOM      8  C   UNL     1       2.575   6.683  19.823  0.00  0.00    +0.000 A 
ENDROOT
BRANCH   1  11
ATOM      9  C   UNL     1       5.722   4.474  17.452  0.00  0.00    +0.000 C 
ATOM     10  C   UNL     1       5.312   5.907  17.731  0.00  0.00    +0.000 C 
ATOM     11  N   UNL     1       3.899   5.789  17.960  0.00  0.00    +0.000 N 
ATOM     12  C   UNL     1       3.449   4.581  17.451  0.00  0.00    +0.000 C 
ATOM     13  O   UNL     1       2.300   4.186  17.333  0.00  0.00    +0.000 OA
ATOM     14  O   UNL     1       4.511   3.838  17.010  0.00  0.00    +0.000 OA
BRANCH   9  15
ATOM     15  C   UNL     1       6.774   4.344  16.353  0.00  0.00    +0.000 C 
BRANCH  15  19
ATOM     16  C   UNL     1       5.889   3.557  12.752  0.00  0.00    +0.000 C 
ATOM     17  C   UNL     1       6.553   4.283  13.889  0.00  0.00    +0.000 C 
ATOM     18  O   UNL     1       7.315   5.225  13.731  0.00  0.00    +0.000 OA
ATOM     19  N   UNL     1       6.209   3.791  15.131  0.00  0.00    +0.000 N 
ATOM     20  H   UNL     1       5.799   2.866  15.183  0.00  0.00    +0.000 HD
ENDBRANCH  15  19
ENDBRANCH   9  15
ENDBRANCH   1  11
BRANCH   5  21
ATOM     21  N   UNL     1       0.537   9.819  20.180  0.00  0.00    +0.000 N 
ATOM     22  C   UNL     1       0.903  10.993  20.918  0.00  0.00    +0.000 C 
ATOM     23  C   UNL     1      -0.284  10.733  21.871  0.00  0.00    +0.000 C 
ATOM     24  C   UNL     1      -0.691   9.620  20.891  0.00  0.00    +0.000 C 
BRANCH  23  25
ATOM     25  C   UNL     1      -1.300  11.862  21.947  0.00  0.00    +0.000 C 
ATOM     26  F   UNL     1      -1.859  12.146  20.748  0.00  0.00    +0.000 F 
ATOM     27  F   UNL     1      -2.298  11.593  22.820  0.00  0.00    +0.000 F 
ATOM     28  F   UNL     1      -0.685  12.997  22.373  0.00  0.00    +0.000 F 
ENDBRANCH  23  25
BRANCH  23  29
ATOM     29  O   UNL     1       0.103  10.247  23.206  0.00  0.00    +0.000 OA
ATOM     30  H   UNL     1       0.432   9.340  23.061  0.00  0.00    +0.000 HD
ENDBRANCH  23  29
ENDBRANCH   5  21
TORSDOF 6
ENDMDL
MODEL 5
REMARK VINA RESULT:      -8.0      1.095      2.095
REMARK  Name = 
REMARK  7 active torsions:
REMARK  status: ('A' for Active; 'I' for Inactive)
REMARK    1  A    between atoms: C_1  and  C_2
REMARK    2  A    between atoms: N_4  and  C_5
REMARK    3  A    between atoms: C_5  and  C_6
REMARK    4  A    between atoms: N_8  and  C_9
REMARK    5  A    between atoms: C_13  and  N_14
REMARK    6  A    between atoms: C_16  and  O_17
REMARK    7  A    between atoms: C_16  and  C_18
REMARK                            x       y       z     vdW  Elec       q    Type
REMARK                         _______ _______ _______ _____ _____    ______ ____
ROOT
ATOM      1  C   UNL     1       3.539   6.439  17.972  0.00  0.00    +0.000 A 
ATOM      2  C   UNL     1       3.207   7.706  17.484  0.00  0.00    +0.000 A 
ATOM      3  C   UNL     1       2.359   8.557  18.198  0.00  0.00    +0.000 A 
ATOM      4  F   UNL     1       2.081   9.750  17.648  0.00  0.00    +0.000 F 
ATOM      5  C   UNL     1       1.801   8.195  19.429  0.00  0.00    +0.000 A 
ATOM      6  C   UNL     1       2.176   6.939  19.923  0.00  0.00    +0.000 A 
ATOM      7  F   UNL     1       1.739   6.531  21.127  0.00  0.00    +0.000 F 
ATOM      8  C   UNL     1       3.009   6.065  19.210  0.00  0.00    +0.000 A 
ENDROOT
BRANCH   1  11
ATOM      9  C   UNL     1       6.222   4.636  16.227  0.00  0.00    +0.000 C 
ATOM     10  C   UNL     1       5.563   5.964  16.544  0.00  0.00    +0.000 C 
ATOM     11  N   UNL     1       4.365   5.563  17.227  0.00  0.00    +0.000 N 
ATOM     12  C   UNL     1       4.108   4.227  16.961  0.00  0.00    +0.000 C 
ATOM     13  O   UNL     1       3.119   3.571  17.246  0.00  0.00    +0.000 OA
ATOM     14  O   UNL     1       5.140   3.690  16.240  0.00  0.00    +0.000 OA
BRANCH   9  15
ATOM     15  C   UNL     1       6.890   4.599  14.854  0.00  0.00    +0.000 C 
BRANCH  15  19
ATOM     16  C   UNL     1       5.663   2.695  11.814  0.00  0.00    +0.000 C 
ATOM     17  C   UNL     1       6.486   3.685  12.590  0.00  0.00    +0.000 C 
ATOM     18  O   UNL     1       7.339   4.397  12.079  0.00  0.00    +0.000 OA
ATOM     19  N   UNL     1       6.178   3.724  13.934  0.00  0.00    +0.000 N 
ATOM     20  H   UNL     1       5.668   2.944  14.330  0.00  0.00    +0.000 HD
ENDBRANCH  15  19
ENDBRANCH   9  15
ENDBRANCH   1  11
BRANCH   5  21
ATOM     21  N   UNL     1       0.917   9.045  20.134  0.00  0.00    +0.000 N 
ATOM     22  C   UNL     1       1.193  10.349  20.662  0.00  0.00    +0.000 C 
ATOM     23  C   UNL     1       0.399   9.976  21.932  0.00  0.00    +0.000 C 
ATOM     24  C   UNL     1       0.004   8.693  21.182  0.00  0.00    +0.000 C 
BRANCH  23  25
ATOM     25  C   UNL     1      -0.787  10.880  22.233  0.00  0.00    +0.000 C 
ATOM     26  F   UNL     1      -1.566  11.100  21.149  0.00  0.00    +0.000 F 
ATOM     27  F   UNL     1      -1.571  10.385  23.217  0.00  0.00    +0.000 F 
ATOM     28  F   UNL     1      -0.337  12.094  22.646  0.00  0.00    +0.000 F 
ENDBRANCH  23  25
BRANCH  23  29
ATOM     29  O   UNL     1       1.231   9.743  23.125  0.00  0.00    +0.000 OA
ATOM     30  H   UNL     1       1.757  10.558  23.231  0.00  0.00    +0.000 HD
ENDBRANCH  23  29
ENDBRANCH   5  21
TORSDOF 6
ENDMDL
MODEL 6
REMARK VINA RESULT:      -7.8      1.288      2.199
REMARK  Name = 
REMARK  7 active torsions:
REMARK  status: ('A' for Active; 'I' for Inactive)
REMARK    1  A    between atoms: C_1  and  C_2
REMARK    2  A    between atoms: N_4  and  C_5
REMARK    3  A    between atoms: C_5  and  C_6
REMARK    4  A    between atoms: N_8  and  C_9
REMARK    5  A    between atoms: C_13  and  N_14
REMARK    6  A    between atoms: C_16  and  O_17
REMARK    7  A    between atoms: C_16  and  C_18
REMARK                            x       y       z     vdW  Elec       q    Type
REMARK                         _______ _______ _______ _____ _____    ______ ____
ROOT
ATOM      1  C   UNL     1       3.553   6.342  17.990  0.00  0.00    +0.000 A 
ATOM      2  C   UNL     1       3.248   7.639  17.565  0.00  0.00    +0.000 A 
ATOM      3  C   UNL     1       2.412   8.468  18.317  0.00  0.00    +0.000 A 
ATOM      4  F   UNL     1       2.160   9.693  17.827  0.00  0.00    +0.000 F 
ATOM      5  C   UNL     1       1.840   8.055  19.525  0.00  0.00    +0.000 A 
ATOM      6  C   UNL     1       2.188   6.768  19.957  0.00  0.00    +0.000 A 
ATOM      7  F   UNL     1       1.737   6.308  21.137  0.00  0.00    +0.000 F 
ATOM      8  C   UNL     1       3.009   5.916  19.204  0.00  0.00    +0.000 A 
ENDROOT
BRANCH   1  11
ATOM      9  C   UNL     1       6.204   4.602  16.134  0.00  0.00    +0.000 C 
ATOM     10  C   UNL     1       5.539   5.916  16.494  0.00  0.00    +0.000 C 
ATOM     11  N   UNL     1       4.367   5.489  17.205  0.00  0.00    +0.000 N 
ATOM     12  C   UNL     1       4.117   4.155  16.923  0.00  0.00    +0.000 C 
ATOM     13  O   UNL     1       3.145   3.483  17.225  0.00  0.00    +0.000 OA
ATOM     14  O   UNL     1       5.134   3.643  16.162  0.00  0.00    +0.000 OA
BRANCH   9  15
ATOM     15  C   UNL     1       6.831   4.598  14.741  0.00  0.00    +0.000 C 
BRANCH  15  19
ATOM     16  C   UNL     1       5.669   2.563  11.762  0.00  0.00    +0.000 C 
ATOM     17  C   UNL     1       6.450   3.611  12.505  0.00  0.00    +0.000 C 
ATOM     18  O   UNL     1       7.260   4.351  11.967  0.00  0.00    +0.000 OA
ATOM     19  N   UNL     1       6.154   3.667  13.851  0.00  0.00    +0.000 N 
ATOM     20  H   UNL     1       5.688   2.872  14.271  0.00  0.00    +0.000 HD
ENDBRANCH  15  19
ENDBRANCH   9  15
ENDBRANCH   1  11
BRANCH   5  21
ATOM     21  N   UNL     1       0.968   8.885  20.269  0.00  0.00    +0.000 N 
ATOM     22  C   UNL     1       0.017   9.830  19.762  0.00  0.00    +0.000 C 
ATOM     23  C   UNL     1       0.434  10.810  20.880  0.00  0.00    +0.000 C 
ATOM     24  C   UNL     1       1.267   9.648  21.444  0.00  0.00    +0.000 C 
BRANCH  23  25
ATOM     25  C   UNL     1      -0.695  11.240  21.805  0.00  0.00    +0.000 C 
ATOM     26  F   UNL     1      -1.147  10.231  22.584  0.00  0.00    +0.000 F 
ATOM     27  F   UNL     1      -0.331  12.262  22.614  0.00  0.00    +0.000 F 
ATOM     28  F   UNL     1      -1.751  11.667  21.063  0.00  0.00    +0.000 F 
ENDBRANCH  23  25
BRANCH  23  29
ATOM     29  O   UNL     1       1.235  11.957  20.418  0.00  0.00    +0.000 OA
ATOM     30  H   UNL     1       1.175  11.933  19.444  0.00  0.00    +0.000 HD
ENDBRANCH  23  29
ENDBRANCH   5  21
TORSDOF 6
ENDMDL
MODEL 7
REMARK VINA RESULT:      -7.6      1.318      1.667
REMARK  Name = 
REMARK  7 active torsions:
REMARK  status: ('A' for Active; 'I' for Inactive)
REMARK    1  A    between atoms: C_1  and  C_2
REMARK    2  A    between atoms: N_4  and  C_5
REMARK    3  A    between atoms: C_5  and  C_6
REMARK    4  A    between atoms: N_8  and  C_9
REMARK    5  A    between atoms: C_13  and  N_14
REMARK    6  A    between atoms: C_16  and  O_17
REMARK    7  A    between atoms: C_16  and  C_18
REMARK                            x       y       z     vdW  Elec       q    Type
REMARK                         _______ _______ _______ _____ _____    ______ ____
ROOT
ATOM      1  C   UNL     1       3.505   6.379  17.975  0.00  0.00    +0.000 A 
ATOM      2  C   UNL     1       2.962   5.953  19.191  0.00  0.00    +0.000 A 
ATOM      3  C   UNL     1       2.130   6.788  19.943  0.00  0.00    +0.000 A 
ATOM      4  F   UNL     1       1.664   6.304  21.105  0.00  0.00    +0.000 F 
ATOM      5  C   UNL     1       1.796   8.081  19.527  0.00  0.00    +0.000 A 
ATOM      6  C   UNL     1       2.315   8.477  18.287  0.00  0.00    +0.000 A 
ATOM      7  F   UNL     1       1.998   9.679  17.776  0.00  0.00    +0.000 F 
ATOM      8  C   UNL     1       3.168   7.660  17.530  0.00  0.00    +0.000 A 
ENDROOT
BRANCH   1  11
ATOM      9  C   UNL     1       6.245   4.789  16.113  0.00  0.00    +0.000 C 
ATOM     10  C   UNL     1       5.408   6.030  16.357  0.00  0.00    +0.000 C 
ATOM     11  N   UNL     1       4.380   5.547  17.235  0.00  0.00    +0.000 N 
ATOM     12  C   UNL     1       4.326   4.163  17.163  0.00  0.00    +0.000 C 
ATOM     13  O   UNL     1       3.500   3.408  17.651  0.00  0.00    +0.000 OA
ATOM     14  O   UNL     1       5.348   3.698  16.380  0.00  0.00    +0.000 OA
BRANCH   9  15
ATOM     15  C   UNL     1       6.752   4.668  14.678  0.00  0.00    +0.000 C 
BRANCH  15  19
ATOM     16  C   UNL     1       4.900   3.077  11.779  0.00  0.00    +0.000 C 
ATOM     17  C   UNL     1       6.052   3.712  12.506  0.00  0.00    +0.000 C 
ATOM     18  O   UNL     1       7.144   3.907  11.993  0.00  0.00    +0.000 OA
ATOM     19  N   UNL     1       5.754   4.067  13.805  0.00  0.00    +0.000 N 
ATOM     20  H   UNL     1       4.943   3.647  14.242  0.00  0.00    +0.000 HD
ENDBRANCH  15  19
ENDBRANCH   9  15
ENDBRANCH   1  11
BRANCH   5  21
ATOM     21  N   UNL     1       0.980   8.935  20.305  0.00  0.00    +0.000 N 
ATOM     22  C   UNL     1       0.056   9.926  19.837  0.00  0.00    +0.000 C 
ATOM     23  C   UNL     1       0.543  10.873  20.954  0.00  0.00    +0.000 C 
ATOM     24  C   UNL     1       1.342   9.670  21.481  0.00  0.00    +0.000 C 
BRANCH  23  25
ATOM     25  C   UNL     1      -0.540  11.336  21.916  0.00  0.00    +0.000 C 
ATOM     26  F   UNL     1      -1.740  11.503  21.314  0.00  0.00    +0.000 F 
ATOM     27  F   UNL     1      -0.707  10.480  22.949  0.00  0.00    +0.000 F 
ATOM     28  F   UNL     1      -0.194  12.542  22.441  0.00  0.00    +0.000 F 
ENDBRANCH  23  25
BRANCH  23  29
ATOM     29  O   UNL     1       1.379  11.991  20.484  0.00  0.00    +0.000 OA
ATOM     30  H   UNL     1       2.258  11.601  20.324  0.00  0.00    +0.000 HD
ENDBRANCH  23  29
ENDBRANCH   5  21
TORSDOF 6
ENDMDL
MODEL 8
REMARK VINA RESULT:      -7.4      1.811      2.605
REMARK  Name = 
REMARK  7 active torsions:
REMARK  status: ('A' for Active; 'I' for Inactive)
REMARK    1  A    between atoms: C_1  and  C_2
REMARK    2  A    between atoms: N_4  and  C_5
REMARK    3  A    between atoms: C_5  and  C_6
REMARK    4  A    between atoms: N_8  and  C_9
REMARK    5  A    between atoms: C_13  and  N_14
REMARK    6  A    between atoms: C_16  and  O_17
REMARK    7  A    between atoms: C_16  and  C_18
REMARK                            x       y       z     vdW  Elec       q    Type
REMARK                         _______ _______ _______ _____ _____    ______ ____
ROOT
ATOM      1  C   UNL     1       2.435   7.040  19.259  0.00  0.00    +0.000 A 
ATOM      2  C   UNL     1       2.338   8.053  18.301  0.00  0.00    +0.000 A 
ATOM      3  C   UNL     1       1.618   9.224  18.557  0.00  0.00    +0.000 A 
ATOM      4  F   UNL     1       1.565  10.138  17.576  0.00  0.00    +0.000 F 
ATOM      5  C   UNL     1       0.962   9.447  19.772  0.00  0.00    +0.000 A 
ATOM      6  C   UNL     1       1.103   8.439  20.736  0.00  0.00    +0.000 A 
ATOM      7  F   UNL     1       0.560   8.593  21.956  0.00  0.00    +0.000 F 
ATOM      8  C   UNL     1       1.803   7.250  20.489  0.00  0.00    +0.000 A 
ENDROOT
BRANCH   1  11
ATOM      9  C   UNL     1       4.765   4.213  18.970  0.00  0.00    +0.000 C 
ATOM     10  C   UNL     1       4.560   5.716  18.956  0.00  0.00    +0.000 C 
ATOM     11  N   UNL     1       3.130   5.837  18.983  0.00  0.00    +0.000 N 
ATOM     12  C   UNL     1       2.558   4.631  18.605  0.00  0.00    +0.000 C 
ATOM     13  O   UNL     1       1.385   4.385  18.376  0.00  0.00    +0.000 OA
ATOM     14  O   UNL     1       3.533   3.683  18.453  0.00  0.00    +0.000 OA
BRANCH   9  15
ATOM     15  C   UNL     1       5.913   3.747  18.078  0.00  0.00    +0.000 C 
BRANCH  15  19
ATOM     16  C   UNL     1       6.139   4.526  14.375  0.00  0.00    +0.000 C 
ATOM     17  C   UNL     1       6.624   4.358  15.788  0.00  0.00    +0.000 C 
ATOM     18  O   UNL     1       7.784   4.545  16.126  0.00  0.00    +0.000 OA
ATOM     19  N   UNL     1       5.631   3.986  16.670  0.00  0.00    +0.000 N 
ATOM     20  H   UNL     1       4.776   3.597  16.291  0.00  0.00    +0.000 HD
ENDBRANCH  15  19
ENDBRANCH   9  15
ENDBRANCH   1  11
BRANCH   5  21
ATOM     21  N   UNL     1       0.207  10.618  20.017  0.00  0.00    +0.000 N 
ATOM     22  C   UNL     1      -1.077  10.959  19.478  0.00  0.00    +0.000 C 
ATOM     23  C   UNL     1      -0.584  12.410  19.289  0.00  0.00    +0.000 C 
ATOM     24  C   UNL     1       0.672  11.973  20.061  0.00  0.00    +0.000 C 
BRANCH  23  25
ATOM     25  C   UNL     1      -1.400  13.462  20.025  0.00  0.00    +0.000 C 
ATOM     26  F   UNL     1      -1.098  14.723  19.641  0.00  0.00    +0.000 F 
ATOM     27  F   UNL     1      -2.731  13.283  19.862  0.00  0.00    +0.000 F 
ATOM     28  F   UNL     1      -1.142  13.384  21.358  0.00  0.00    +0.000 F 
ENDBRANCH  23  25
BRANCH  23  29
ATOM     29  O   UNL     1      -0.328  12.790  17.889  0.00  0.00    +0.000 OA
ATOM     30  H   UNL     1      -1.206  12.793  17.463  0.00  0.00    +0.000 HD
ENDBRANCH  23  29
ENDBRANCH   5  21
TORSDOF 6
ENDMDL
MODEL 9
REMARK VINA RESULT:      -7.3      4.082      9.143
REMARK  Name = 
REMARK  7 active torsions:
REMARK  status: ('A' for Active; 'I' for Inactive)
REMARK    1  A    between atoms: C_1  and  C_2
REMARK    2  A    between atoms: N_4  and  C_5
REMARK    3  A    between atoms: C_5  and  C_6
REMARK    4  A    between atoms: N_8  and  C_9
REMARK    5  A    between atoms: C_13  and  N_14
REMARK    6  A    between atoms: C_16  and  O_17
REMARK    7  A    between atoms: C_16  and  C_18
REMARK                            x       y       z     vdW  Elec       q    Type
REMARK                         _______ _______ _______ _____ _____    ______ ____
ROOT
ATOM      1  C   UNL     1       1.092  10.066  18.986  0.00  0.00    +0.000 A 
ATOM      2  C   UNL     1       0.945   9.347  20.176  0.00  0.00    +0.000 A 
ATOM      3  C   UNL     1       1.476   8.062  20.314  0.00  0.00    +0.000 A 
ATOM      4  F   UNL     1       1.276   7.438  21.486  0.00  0.00    +0.000 F 
ATOM      5  C   UNL     1       2.176   7.427  19.283  0.00  0.00    +0.000 A 
ATOM      6  C   UNL     1       2.349   8.177  18.111  0.00  0.00    +0.000 A 
ATOM      7  F   UNL     1       3.063   7.675  17.089  0.00  0.00    +0.000 F 
ATOM      8  C   UNL     1       1.806   9.459  17.949  0.00  0.00    +0.000 A 
ENDROOT
BRANCH   1  11
ATOM      9  C   UNL     1       0.302  13.620  18.488  0.00  0.00    +0.000 C 
ATOM     10  C   UNL     1       1.191  12.581  19.144  0.00  0.00    +0.000 C 
ATOM     11  N   UNL     1       0.518  11.352  18.834  0.00  0.00    +0.000 N 
ATOM     12  C   UNL     1      -0.790  11.624  18.463  0.00  0.00    +0.000 C 
ATOM     13  O   UNL     1      -1.703  10.839  18.264  0.00  0.00    +0.000 OA
ATOM     14  O   UNL     1      -0.980  12.977  18.389  0.00  0.00    +0.000 OA
BRANCH   9  15
ATOM     15  C   UNL     1       0.149  14.898  19.310  0.00  0.00    +0.000 C 
BRANCH  15  19
ATOM     16  C   UNL     1      -0.657  18.082  17.417  0.00  0.00    +0.000 C 
ATOM     17  C   UNL     1       0.163  17.131  18.244  0.00  0.00    +0.000 C 
ATOM     18  O   UNL     1       1.298  17.378  18.624  0.00  0.00    +0.000 OA
ATOM     19  N   UNL     1      -0.494  15.955  18.544  0.00  0.00    +0.000 N 
ATOM     20  H   UNL     1      -1.304  15.705  17.990  0.00  0.00    +0.000 HD
ENDBRANCH  15  19
ENDBRANCH   9  15
ENDBRANCH   1  11
BRANCH   5  21
ATOM     21  N   UNL     1       2.684   6.114  19.414  0.00  0.00    +0.000 N 
ATOM     22  C   UNL     1       4.052   5.694  19.332  0.00  0.00    +0.000 C 
ATOM     23  C   UNL     1       3.600   4.462  18.518  0.00  0.00    +0.000 C 
ATOM     24  C   UNL     1       2.164   4.906  18.843  0.00  0.00    +0.000 C 
BRANCH  23  25
ATOM     25  C   UNL     1       3.963   3.120  19.136  0.00  0.00    +0.000 C 
ATOM     26  F   UNL     1       5.240   3.075  19.579  0.00  0.00    +0.000 F 
ATOM     27  F   UNL     1       3.150   2.796  20.168  0.00  0.00    +0.000 F 
ATOM     28  F   UNL     1       3.837   2.143  18.199  0.00  0.00    +0.000 F 
ENDBRANCH  23  25
BRANCH  23  29
ATOM     29  O   UNL     1       3.937   4.520  17.086  0.00  0.00    +0.000 OA
ATOM     30  H   UNL     1       4.908   4.424  17.050  0.00  0.00    +0.000 HD
ENDBRANCH  23  29
ENDBRANCH   5  21
TORSDOF 6
ENDMDL
