MODEL 1
REMARK VINA RESULT:      -7.5      0.000      0.000
REMARK  Name = 
REMARK  6 active torsions:
REMARK  status: ('A' for Active; 'I' for Inactive)
REMARK    1  A    between atoms: C_1  and  C_2
REMARK    2  A    between atoms: C_2  and  C_3
REMARK    3  A    between atoms: C_16  and  C_17
REMARK    4  A    between atoms: N_18  and  C_19
REMARK    5  A    between atoms: C_22  and  O_23
REMARK    6  A    between atoms: C_26  and  O_27
REMARK                            x       y       z     vdW  Elec       q    Type
REMARK                         _______ _______ _______ _____ _____    ______ ____
ROOT
ATOM      1  C   UNL     1       7.308   4.875  15.779  0.00  0.00    +0.000 C 
ATOM      2  C   UNL     1       5.779   4.780  15.689  0.00  0.00    +0.000 C 
ATOM      3  C   UNL     1       5.336   4.803  14.218  0.00  0.00    +0.000 C 
ATOM      4  O   UNL     1       5.447   3.467  16.178  0.00  0.00    +0.000 OA
ATOM      5  C   UNL     1       4.509   3.330  17.157  0.00  0.00    +0.000 A 
ATOM      6  C   UNL     1       4.206   1.997  17.465  0.00  0.00    +0.000 A 
ATOM      7  C   UNL     1       3.273   1.686  18.451  0.00  0.00    +0.000 A 
ATOM      8  C   UNL     1       2.646   2.715  19.146  0.00  0.00    +0.000 A 
ATOM      9  C   UNL     1       1.661   2.425  20.178  0.00  0.00    +0.000 A 
ATOM     10  C   UNL     1       1.062   3.423  20.833  0.00  0.00    +0.000 A 
ATOM     11  C   UNL     1       1.372   4.830  20.557  0.00  0.00    +0.000 A 
ATOM     12  O   UNL     1       0.797   5.736  21.148  0.00  0.00    +0.000 OA
ATOM     13  O   UNL     1       2.339   5.067  19.590  0.00  0.00    +0.000 OA
ATOM     14  C   UNL     1       2.969   4.044  18.838  0.00  0.00    +0.000 A 
ATOM     15  C   UNL     1       3.894   4.393  17.829  0.00  0.00    +0.000 A 
ATOM     16  C   UNL     1       4.270   5.769  17.445  0.00  0.00    +0.000 C 
ATOM     17  C   UNL     1       5.146   5.940  16.435  0.00  0.00    +0.000 C 
ENDROOT
BRANCH  16  18
ATOM     18  C   UNL     1       3.638   6.991  18.016  0.00  0.00    +0.000 C 
ATOM     19  N   UNL     1       2.617   7.598  17.490  0.00  0.00    +0.000 NA
BRANCH  19  20
ATOM     20  C   UNL     1       2.118   8.733  18.162  0.00  0.00    +0.000 A 
ATOM     21  C   UNL     1       1.491   8.555  19.401  0.00  0.00    +0.000 A 
ATOM     22  C   UNL     1       0.983   9.650  20.111  0.00  0.00    +0.000 A 
ATOM     23  C   UNL     1       1.100  10.928  19.573  0.00  0.00    +0.000 A 
ATOM     24  C   UNL     1       1.732  11.127  18.355  0.00  0.00    +0.000 A 
ATOM     25  C   UNL     1       2.255  10.036  17.663  0.00  0.00    +0.000 A 
BRANCH  23  26
ATOM     26  O   UNL     1       0.610  12.025  20.213  0.00  0.00    +0.000 OA
ATOM     27  H   UNL     1      -0.024  12.470  19.626  0.00  0.00    +0.000 HD
ENDBRANCH  23  26
ENDBRANCH  19  20
ENDBRANCH  16  18
BRANCH  17  28
ATOM     28  O   UNL     1       5.534   7.193  15.966  0.00  0.00    +0.000 OA
ATOM     29  H   UNL     1       4.934   7.870  16.356  0.00  0.00    +0.000 HD
ENDBRANCH  17  28
TORSDOF 4
ENDMDL
MODEL 2
REMARK VINA RESULT:      -7.3      6.774     10.168
REMARK  Name = 
REMARK  6 active torsions:
REMARK  status: ('A' for Active; 'I' for Inactive)
REMARK    1  A    between atoms: C_1  and  C_2
REMARK    2  A    between atoms: C_2  and  C_3
REMARK    3  A    between atoms: C_16  and  C_17
REMARK    4  A    between atoms: N_18  and  C_19
REMARK    5  A    between atoms: C_22  and  O_23
REMARK    6  A    between atoms: C_26  and  O_27
REMARK                            x       y       z     vdW  Elec       q    Type
REMARK                         _______ _______ _______ _____ _____    ______ ____
ROOT
ATOM      1  C   UNL     1      -6.585  12.863  17.257  0.00  0.00    +0.000 C 
ATOM      2  C   UNL     1      -5.919  11.853  18.201  0.00  0.00    +0.000 C 
ATOM      3  C   UNL     1      -6.972  10.886  18.764  0.00  0.00    +0.000 C 
ATOM      4  O   UNL     1      -5.061  11.055  17.366  0.00  0.00    +0.000 OA
ATOM      5  C   UNL     1      -3.752  10.891  17.707  0.00  0.00    +0.000 A 
ATOM      6  C   UNL     1      -3.056  10.008  16.869  0.00  0.00    +0.000 A 
ATOM      7  C   UNL     1      -1.706   9.739  17.078  0.00  0.00    +0.000 A 
ATOM      8  C   UNL     1      -1.039  10.367  18.124  0.00  0.00    +0.000 A 
ATOM      9  C   UNL     1       0.371  10.102  18.375  0.00  0.00    +0.000 A 
ATOM     10  C   UNL     1       0.997  10.708  19.388  0.00  0.00    +0.000 A 
ATOM     11  C   UNL     1       0.310  11.658  20.269  0.00  0.00    +0.000 A 
ATOM     12  O   UNL     1       0.890  12.187  21.209  0.00  0.00    +0.000 OA
ATOM     13  O   UNL     1      -1.024  11.909  19.980  0.00  0.00    +0.000 OA
ATOM     14  C   UNL     1      -1.742  11.259  18.946  0.00  0.00    +0.000 A 
ATOM     15  C   UNL     1      -3.117  11.536  18.775  0.00  0.00    +0.000 A 
ATOM     16  C   UNL     1      -3.920  12.453  19.610  0.00  0.00    +0.000 C 
ATOM     17  C   UNL     1      -5.234  12.587  19.339  0.00  0.00    +0.000 C 
ENDROOT
BRANCH  16  18
ATOM     18  C   UNL     1      -3.399  13.141  20.823  0.00  0.00    +0.000 C 
ATOM     19  N   UNL     1      -3.733  12.829  22.039  0.00  0.00    +0.000 NA
BRANCH  19  20
ATOM     20  C   UNL     1      -3.135  13.561  23.086  0.00  0.00    +0.000 A 
ATOM     21  C   UNL     1      -1.783  13.905  22.975  0.00  0.00    +0.000 A 
ATOM     22  C   UNL     1      -1.143  14.635  23.985  0.00  0.00    +0.000 A 
ATOM     23  C   UNL     1      -1.863  15.017  25.113  0.00  0.00    +0.000 A 
ATOM     24  C   UNL     1      -3.207  14.700  25.235  0.00  0.00    +0.000 A 
ATOM     25  C   UNL     1      -3.844  13.993  24.217  0.00  0.00    +0.000 A 
BRANCH  23  26
ATOM     26  O   UNL     1      -1.287  15.713  26.131  0.00  0.00    +0.000 OA
ATOM     27  H   UNL     1      -0.497  16.166  25.790  0.00  0.00    +0.000 HD
ENDBRANCH  23  26
ENDBRANCH  19  20
ENDBRANCH  16  18
BRANCH  17  28
ATOM     28  O   UNL     1      -6.089  13.390  20.091  0.00  0.00    +0.000 OA
ATOM     29  H   UNL     1      -5.983  13.153  21.041  0.00  0.00    +0.000 HD
ENDBRANCH  17  28
TORSDOF 4
ENDMDL
MODEL 3
REMARK VINA RESULT:      -7.0      5.438      8.900
REMARK  Name = 
REMARK  6 active torsions:
REMARK  status: ('A' for Active; 'I' for Inactive)
REMARK    1  A    between atoms: C_1  and  C_2
REMARK    2  A    between atoms: C_2  and  C_3
REMARK    3  A    between atoms: C_16  and  C_17
REMARK    4  A    between atoms: N_18  and  C_19
REMARK    5  A    between atoms: C_22  and  O_23
REMARK    6  A    between atoms: C_26  and  O_27
REMARK                            x       y       z     vdW  Elec       q    Type
REMARK                         _______ _______ _______ _____ _____    ______ ____
ROOT
ATOM      1  C   UNL     1       1.450   8.755  19.446  0.00  0.00    +0.000 C 
ATOM      2  C   UNL     1       0.924  10.072  18.859  0.00  0.00    +0.000 C 
ATOM      3  C   UNL     1       2.075  10.854  18.209  0.00  0.00    +0.000 C 
ATOM      4  O   UNL     1       0.052   9.689  17.779  0.00  0.00    +0.000 OA
ATOM      5  C   UNL     1      -1.213  10.192  17.725  0.00  0.00    +0.000 A 
ATOM      6  C   UNL     1      -1.918   9.824  16.570  0.00  0.00    +0.000 A 
ATOM      7  C   UNL     1      -3.229  10.249  16.367  0.00  0.00    +0.000 A 
ATOM      8  C   UNL     1      -3.847  11.037  17.332  0.00  0.00    +0.000 A 
ATOM      9  C   UNL     1      -5.214  11.505  17.147  0.00  0.00    +0.000 A 
ATOM     10  C   UNL     1      -5.794  12.267  18.079  0.00  0.00    +0.000 A 
ATOM     11  C   UNL     1      -5.098  12.651  19.311  0.00  0.00    +0.000 A 
ATOM     12  O   UNL     1      -5.633  13.371  20.145  0.00  0.00    +0.000 OA
ATOM     13  O   UNL     1      -3.809  12.161  19.467  0.00  0.00    +0.000 OA
ATOM     14  C   UNL     1      -3.137  11.386  18.488  0.00  0.00    +0.000 A 
ATOM     15  C   UNL     1      -1.800  10.991  18.714  0.00  0.00    +0.000 A 
ATOM     16  C   UNL     1      -0.989  11.333  19.901  0.00  0.00    +0.000 C 
ATOM     17  C   UNL     1       0.288  10.906  19.955  0.00  0.00    +0.000 C 
ENDROOT
BRANCH  16  18
ATOM     18  C   UNL     1      -1.454  12.239  20.988  0.00  0.00    +0.000 C 
ATOM     19  N   UNL     1      -1.707  11.852  22.202  0.00  0.00    +0.000 NA
BRANCH  19  20
ATOM     20  C   UNL     1      -2.118  12.835  23.126  0.00  0.00    +0.000 A 
ATOM     21  C   UNL     1      -3.382  12.715  23.714  0.00  0.00    +0.000 A 
ATOM     22  C   UNL     1      -3.835  13.663  24.641  0.00  0.00    +0.000 A 
ATOM     23  C   UNL     1      -3.018  14.738  24.975  0.00  0.00    +0.000 A 
ATOM     24  C   UNL     1      -1.756  14.866  24.416  0.00  0.00    +0.000 A 
ATOM     25  C   UNL     1      -1.301  13.909  23.511  0.00  0.00    +0.000 A 
BRANCH  23  26
ATOM     26  O   UNL     1      -3.414  15.696  25.857  0.00  0.00    +0.000 OA
ATOM     27  H   UNL     1      -3.829  15.261  26.622  0.00  0.00    +0.000 HD
ENDBRANCH  23  26
ENDBRANCH  19  20
ENDBRANCH  16  18
BRANCH  17  28
ATOM     28  O   UNL     1       1.149  11.210  21.007  0.00  0.00    +0.000 OA
ATOM     29  H   UNL     1       1.827  10.498  21.069  0.00  0.00    +0.000 HD
ENDBRANCH  17  28
TORSDOF 4
ENDMDL
MODEL 4
REMARK VINA RESULT:      -7.0      4.684     10.213
REMARK  Name = 
REMARK  6 active torsions:
REMARK  status: ('A' for Active; 'I' for Inactive)
REMARK    1  A    between atoms: C_1  and  C_2
REMARK    2  A    between atoms: C_2  and  C_3
REMARK    3  A    between atoms: C_16  and  C_17
REMARK    4  A    between atoms: N_18  and  C_19
REMARK    5  A    between atoms: C_22  and  O_23
REMARK    6  A    between atoms: C_26  and  O_27
REMARK                            x       y       z     vdW  Elec       q    Type
REMARK                         _______ _______ _______ _____ _____    ______ ____
ROOT
ATOM      1  C   UNL     1      -2.120  14.648  23.350  0.00  0.00    +0.000 C 
ATOM      2  C   UNL     1      -2.715  13.307  22.899  0.00  0.00    +0.000 C 
ATOM      3  C   UNL     1      -3.161  12.491  24.122  0.00  0.00    +0.000 C 
ATOM      4  O   UNL     1      -3.923  13.642  22.191  0.00  0.00    +0.000 OA
ATOM      5  C   UNL     1      -4.132  13.141  20.941  0.00  0.00    +0.000 A 
ATOM      6  C   UNL     1      -5.390  13.459  20.409  0.00  0.00    +0.000 A 
ATOM      7  C   UNL     1      -5.756  13.029  19.136  0.00  0.00    +0.000 A 
ATOM      8  C   UNL     1      -4.853  12.288  18.380  0.00  0.00    +0.000 A 
ATOM      9  C   UNL     1      -5.207  11.817  17.049  0.00  0.00    +0.000 A 
ATOM     10  C   UNL     1      -4.333  11.101  16.336  0.00  0.00    +0.000 A 
ATOM     11  C   UNL     1      -2.999  10.772  16.849  0.00  0.00    +0.000 A 
ATOM     12  O   UNL     1      -2.216  10.093  16.195  0.00  0.00    +0.000 OA
ATOM     13  O   UNL     1      -2.686  11.264  18.108  0.00  0.00    +0.000 OA
ATOM     14  C   UNL     1      -3.594  11.990  18.918  0.00  0.00    +0.000 A 
ATOM     15  C   UNL     1      -3.200  12.391  20.214  0.00  0.00    +0.000 A 
ATOM     16  C   UNL     1      -1.897  12.101  20.846  0.00  0.00    +0.000 C 
ATOM     17  C   UNL     1      -1.683  12.526  22.107  0.00  0.00    +0.000 C 
ENDROOT
BRANCH  16  18
ATOM     18  C   UNL     1      -0.846  11.248  20.225  0.00  0.00    +0.000 C 
ATOM     19  N   UNL     1      -0.503  10.076  20.666  0.00  0.00    +0.000 NA
BRANCH  19  20
ATOM     20  C   UNL     1       0.496   9.380  19.954  0.00  0.00    +0.000 A 
ATOM     21  C   UNL     1       0.797   9.789  18.650  0.00  0.00    +0.000 A 
ATOM     22  C   UNL     1       1.784   9.134  17.903  0.00  0.00    +0.000 A 
ATOM     23  C   UNL     1       2.468   8.060  18.465  0.00  0.00    +0.000 A 
ATOM     24  C   UNL     1       2.196   7.650  19.761  0.00  0.00    +0.000 A 
ATOM     25  C   UNL     1       1.229   8.319  20.508  0.00  0.00    +0.000 A 
BRANCH  23  26
ATOM     26  O   UNL     1       3.425   7.378  17.778  0.00  0.00    +0.000 OA
ATOM     27  H   UNL     1       4.254   7.886  17.812  0.00  0.00    +0.000 HD
ENDBRANCH  23  26
ENDBRANCH  19  20
ENDBRANCH  16  18
BRANCH  17  28
ATOM     28  O   UNL     1      -0.508  12.268  22.810  0.00  0.00    +0.000 OA
ATOM     29  H   UNL     1       0.066  13.067  22.760  0.00  0.00    +0.000 HD
ENDBRANCH  17  28
TORSDOF 4
ENDMDL
MODEL 5
REMARK VINA RESULT:      -6.8      6.996     12.308
REMARK  Name = 
REMARK  6 active torsions:
REMARK  status: ('A' for Active; 'I' for Inactive)
REMARK    1  A    between atoms: C_1  and  C_2
REMARK    2  A    between atoms: C_2  and  C_3
REMARK    3  A    between atoms: C_16  and  C_17
REMARK    4  A    between atoms: N_18  and  C_19
REMARK    5  A    between atoms: C_22  and  O_23
REMARK    6  A    between atoms: C_26  and  O_27
REMARK                            x       y       z     vdW  Elec       q    Type
REMARK                         _______ _______ _______ _____ _____    ______ ____
ROOT
ATOM      1  C   UNL     1      -5.967  15.901  24.044  0.00  0.00    +0.000 C 
ATOM      2  C   UNL     1      -6.346  14.533  23.461  0.00  0.00    +0.000 C 
ATOM      3  C   UNL     1      -7.313  13.807  24.409  0.00  0.00    +0.000 C 
ATOM      4  O   UNL     1      -7.105  14.819  22.272  0.00  0.00    +0.000 OA
ATOM      5  C   UNL     1      -6.757  14.231  21.093  0.00  0.00    +0.000 A 
ATOM      6  C   UNL     1      -7.639  14.512  20.040  0.00  0.00    +0.000 A 
ATOM      7  C   UNL     1      -7.420  13.994  18.767  0.00  0.00    +0.000 A 
ATOM      8  C   UNL     1      -6.302  13.199  18.537  0.00  0.00    +0.000 A 
ATOM      9  C   UNL     1      -6.047  12.635  17.219  0.00  0.00    +0.000 A 
ATOM     10  C   UNL     1      -4.972  11.868  17.014  0.00  0.00    +0.000 A 
ATOM     11  C   UNL     1      -4.013  11.573  18.084  0.00  0.00    +0.000 A 
ATOM     12  O   UNL     1      -3.046  10.847  17.889  0.00  0.00    +0.000 OA
ATOM     13  O   UNL     1      -4.272  12.153  19.318  0.00  0.00    +0.000 OA
ATOM     14  C   UNL     1      -5.420  12.937  19.595  0.00  0.00    +0.000 A 
ATOM     15  C   UNL     1      -5.626  13.429  20.903  0.00  0.00    +0.000 A 
ATOM     16  C   UNL     1      -4.746  13.181  22.064  0.00  0.00    +0.000 C 
ATOM     17  C   UNL     1      -5.097  13.695  23.260  0.00  0.00    +0.000 C 
ENDROOT
BRANCH  16  18
ATOM     18  C   UNL     1      -3.558  12.284  22.028  0.00  0.00    +0.000 C 
ATOM     19  N   UNL     1      -2.348  12.664  22.305  0.00  0.00    +0.000 NA
BRANCH  19  20
ATOM     20  C   UNL     1      -1.330  11.689  22.247  0.00  0.00    +0.000 A 
ATOM     21  C   UNL     1      -1.291  10.703  23.239  0.00  0.00    +0.000 A 
ATOM     22  C   UNL     1      -0.304   9.710  23.224  0.00  0.00    +0.000 A 
ATOM     23  C   UNL     1       0.650   9.709  22.212  0.00  0.00    +0.000 A 
ATOM     24  C   UNL     1       0.619  10.667  21.210  0.00  0.00    +0.000 A 
ATOM     25  C   UNL     1      -0.378  11.640  21.218  0.00  0.00    +0.000 A 
BRANCH  23  26
ATOM     26  O   UNL     1       1.641   8.776  22.158  0.00  0.00    +0.000 OA
ATOM     27  H   UNL     1       1.259   7.935  21.856  0.00  0.00    +0.000 HD
ENDBRANCH  23  26
ENDBRANCH  19  20
ENDBRANCH  16  18
BRANCH  17  28
ATOM     28  O   UNL     1      -4.363  13.485  24.425  0.00  0.00    +0.000 OA
ATOM     29  H   UNL     1      -3.435  13.269  24.173  0.00  0.00    +0.000 HD
ENDBRANCH  17  28
TORSDOF 4
ENDMDL
MODEL 6
REMARK VINA RESULT:      -6.8      4.471      9.949
REMARK  Name = 
REMARK  6 active torsions:
REMARK  status: ('A' for Active; 'I' for Inactive)
REMARK    1  A    between atoms: C_1  and  C_2
REMARK    2  A    between atoms: C_2  and  C_3
REMARK    3  A    between atoms: C_16  and  C_17
REMARK    4  A    between atoms: N_18  and  C_19
REMARK    5  A    between atoms: C_22  and  O_23
REMARK    6  A    between atoms: C_26  and  O_27
REMARK                            x       y       z     vdW  Elec       q    Type
REMARK                         _______ _______ _______ _____ _____    ______ ____
ROOT
ATOM      1  C   UNL     1      -1.429  15.002  22.700  0.00  0.00    +0.000 C 
ATOM      2  C   UNL     1      -2.079  13.629  22.481  0.00  0.00    +0.000 C 
ATOM      3  C   UNL     1      -2.386  12.971  23.835  0.00  0.00    +0.000 C 
ATOM      4  O   UNL     1      -3.358  13.902  21.880  0.00  0.00    +0.000 OA
ATOM      5  C   UNL     1      -3.712  13.263  20.730  0.00  0.00    +0.000 A 
ATOM      6  C   UNL     1      -5.020  13.540  20.310  0.00  0.00    +0.000 A 
ATOM      7  C   UNL     1      -5.532  12.971  19.146  0.00  0.00    +0.000 A 
ATOM      8  C   UNL     1      -4.727  12.130  18.386  0.00  0.00    +0.000 A 
ATOM      9  C   UNL     1      -5.233  11.514  17.168  0.00  0.00    +0.000 A 
ATOM     10  C   UNL     1      -4.451  10.702  16.451  0.00  0.00    +0.000 A 
ATOM     11  C   UNL     1      -3.068  10.410  16.844  0.00  0.00    +0.000 A 
ATOM     12  O   UNL     1      -2.370   9.645  16.191  0.00  0.00    +0.000 OA
ATOM     13  O   UNL     1      -2.610  11.040  17.993  0.00  0.00    +0.000 OA
ATOM     14  C   UNL     1      -3.416  11.873  18.809  0.00  0.00    +0.000 A 
ATOM     15  C   UNL     1      -2.874  12.415  19.996  0.00  0.00    +0.000 A 
ATOM     16  C   UNL     1      -1.508  12.176  20.506  0.00  0.00    +0.000 C 
ATOM     17  C   UNL     1      -1.149  12.741  21.676  0.00  0.00    +0.000 C 
ENDROOT
BRANCH  16  18
ATOM     18  C   UNL     1      -0.540  11.237  19.875  0.00  0.00    +0.000 C 
ATOM     19  N   UNL     1       0.005  10.230  20.489  0.00  0.00    +0.000 NA
BRANCH  19  20
ATOM     20  C   UNL     1       0.887   9.417  19.747  0.00  0.00    +0.000 A 
ATOM     21  C   UNL     1       1.432   8.285  20.363  0.00  0.00    +0.000 A 
ATOM     22  C   UNL     1       2.310   7.442  19.668  0.00  0.00    +0.000 A 
ATOM     23  C   UNL     1       2.645   7.741  18.352  0.00  0.00    +0.000 A 
ATOM     24  C   UNL     1       2.104   8.848  17.718  0.00  0.00    +0.000 A 
ATOM     25  C   UNL     1       1.214   9.671  18.407  0.00  0.00    +0.000 A 
BRANCH  23  26
ATOM     26  O   UNL     1       3.505   6.965  17.635  0.00  0.00    +0.000 OA
ATOM     27  H   UNL     1       4.261   7.511  17.361  0.00  0.00    +0.000 HD
ENDBRANCH  23  26
ENDBRANCH  19  20
ENDBRANCH  16  18
BRANCH  17  28
ATOM     28  O   UNL     1       0.098  12.545  22.266  0.00  0.00    +0.000 OA
ATOM     29  H   UNL     1       0.357  13.375  22.729  0.00  0.00    +0.000 HD
ENDBRANCH  17  28
TORSDOF 4
ENDMDL
MODEL 7
REMARK VINA RESULT:      -6.7      6.152      9.580
REMARK  Name = 
REMARK  6 active torsions:
REMARK  status: ('A' for Active; 'I' for Inactive)
REMARK    1  A    between atoms: C_1  and  C_2
REMARK    2  A    between atoms: C_2  and  C_3
REMARK    3  A    between atoms: C_16  and  C_17
REMARK    4  A    between atoms: N_18  and  C_19
REMARK    5  A    between atoms: C_22  and  O_23
REMARK    6  A    between atoms: C_26  and  O_27
REMARK                            x       y       z     vdW  Elec       q    Type
REMARK                         _______ _______ _______ _____ _____    ______ ____
ROOT
ATOM      1  C   UNL     1       1.045   9.422  20.277  0.00  0.00    +0.000 C 
ATOM      2  C   UNL     1       0.530  10.633  19.488  0.00  0.00    +0.000 C 
ATOM      3  C   UNL     1       1.711  11.407  18.882  0.00  0.00    +0.000 C 
ATOM      4  O   UNL     1      -0.193  10.084  18.371  0.00  0.00    +0.000 OA
ATOM      5  C   UNL     1      -1.465  10.503  18.121  0.00  0.00    +0.000 A 
ATOM      6  C   UNL     1      -2.014   9.969  16.946  0.00  0.00    +0.000 A 
ATOM      7  C   UNL     1      -3.311  10.292  16.554  0.00  0.00    +0.000 A 
ATOM      8  C   UNL     1      -4.073  11.143  17.347  0.00  0.00    +0.000 A 
ATOM      9  C   UNL     1      -5.429  11.506  16.961  0.00  0.00    +0.000 A 
ATOM     10  C   UNL     1      -6.147  12.330  17.730  0.00  0.00    +0.000 A 
ATOM     11  C   UNL     1      -5.616  12.887  18.979  0.00  0.00    +0.000 A 
ATOM     12  O   UNL     1      -6.277  13.661  19.660  0.00  0.00    +0.000 OA
ATOM     13  O   UNL     1      -4.333  12.493  19.330  0.00  0.00    +0.000 OA
ATOM     14  C   UNL     1      -3.517  11.658  18.526  0.00  0.00    +0.000 A 
ATOM     15  C   UNL     1      -2.198  11.369  18.941  0.00  0.00    +0.000 A 
ATOM     16  C   UNL     1      -1.547  11.886  20.162  0.00  0.00    +0.000 C 
ATOM     17  C   UNL     1      -0.266  11.544  20.404  0.00  0.00    +0.000 C 
ENDROOT
BRANCH  16  18
ATOM     18  C   UNL     1      -2.175  12.876  21.080  0.00  0.00    +0.000 C 
ATOM     19  N   UNL     1      -2.603  12.595  22.274  0.00  0.00    +0.000 NA
BRANCH  19  20
ATOM     20  C   UNL     1      -3.155  13.649  23.032  0.00  0.00    +0.000 A 
ATOM     21  C   UNL     1      -2.408  14.173  24.094  0.00  0.00    +0.000 A 
ATOM     22  C   UNL     1      -2.910  15.223  24.874  0.00  0.00    +0.000 A 
ATOM     23  C   UNL     1      -4.167  15.746  24.590  0.00  0.00    +0.000 A 
ATOM     24  C   UNL     1      -4.915  15.253  23.532  0.00  0.00    +0.000 A 
ATOM     25  C   UNL     1      -4.403  14.223  22.746  0.00  0.00    +0.000 A 
BRANCH  23  26
ATOM     26  O   UNL     1      -4.708  16.756  25.325  0.00  0.00    +0.000 OA
ATOM     27  H   UNL     1      -4.532  17.598  24.873  0.00  0.00    +0.000 HD
ENDBRANCH  23  26
ENDBRANCH  19  20
ENDBRANCH  16  18
BRANCH  17  28
ATOM     28  O   UNL     1       0.454  12.011  21.502  0.00  0.00    +0.000 OA
ATOM     29  H   UNL     1       0.083  11.598  22.316  0.00  0.00    +0.000 HD
ENDBRANCH  17  28
TORSDOF 4
ENDMDL
MODEL 8
REMARK VINA RESULT:      -6.6      6.233     11.601
REMARK  Name = 
REMARK  6 active torsions:
REMARK  status: ('A' for Active; 'I' for Inactive)
REMARK    1  A    between atoms: C_1  and  C_2
REMARK    2  A    between atoms: C_2  and  C_3
REMARK    3  A    between atoms: C_16  and  C_17
REMARK    4  A    between atoms: N_18  and  C_19
REMARK    5  A    between atoms: C_22  and  O_23
REMARK    6  A    between atoms: C_26  and  O_27
REMARK                            x       y       z     vdW  Elec       q    Type
REMARK                         _______ _______ _______ _____ _____    ______ ____
ROOT
ATOM      1  C   UNL     1      -3.782  14.904  24.509  0.00  0.00    +0.000 C 
ATOM      2  C   UNL     1      -4.285  13.578  23.923  0.00  0.00    +0.000 C 
ATOM      3  C   UNL     1      -4.491  12.551  25.047  0.00  0.00    +0.000 C 
ATOM      4  O   UNL     1      -5.598  13.860  23.404  0.00  0.00    +0.000 OA
ATOM      5  C   UNL     1      -5.903  13.518  22.121  0.00  0.00    +0.000 A 
ATOM      6  C   UNL     1      -7.242  13.752  21.778  0.00  0.00    +0.000 A 
ATOM      7  C   UNL     1      -7.712  13.464  20.499  0.00  0.00    +0.000 A 
ATOM      8  C   UNL     1      -6.835  12.951  19.549  0.00  0.00    +0.000 A 
ATOM      9  C   UNL     1      -7.296  12.632  18.205  0.00  0.00    +0.000 A 
ATOM     10  C   UNL     1      -6.445  12.133  17.305  0.00  0.00    +0.000 A 
ATOM     11  C   UNL     1      -5.031  11.900  17.619  0.00  0.00    +0.000 A 
ATOM     12  O   UNL     1      -4.267  11.419  16.791  0.00  0.00    +0.000 OA
ATOM     13  O   UNL     1      -4.621  12.245  18.899  0.00  0.00    +0.000 OA
ATOM     14  C   UNL     1      -5.496  12.735  19.901  0.00  0.00    +0.000 A 
ATOM     15  C   UNL     1      -4.992  12.996  21.195  0.00  0.00    +0.000 A 
ATOM     16  C   UNL     1      -3.599  12.779  21.636  0.00  0.00    +0.000 C 
ATOM     17  C   UNL     1      -3.280  13.046  22.918  0.00  0.00    +0.000 C 
ENDROOT
BRANCH  16  18
ATOM     18  C   UNL     1      -2.548  12.155  20.786  0.00  0.00    +0.000 C 
ATOM     19  N   UNL     1      -1.409  12.714  20.505  0.00  0.00    +0.000 NA
BRANCH  19  20
ATOM     20  C   UNL     1      -0.507  11.985  19.703  0.00  0.00    +0.000 A 
ATOM     21  C   UNL     1      -0.944  10.790  19.120  0.00  0.00    +0.000 A 
ATOM     22  C   UNL     1      -0.088  10.032  18.312  0.00  0.00    +0.000 A 
ATOM     23  C   UNL     1       1.213  10.472  18.091  0.00  0.00    +0.000 A 
ATOM     24  C   UNL     1       1.661  11.661  18.646  0.00  0.00    +0.000 A 
ATOM     25  C   UNL     1       0.798  12.423  19.432  0.00  0.00    +0.000 A 
BRANCH  23  26
ATOM     26  O   UNL     1       2.092   9.766  17.327  0.00  0.00    +0.000 OA
ATOM     27  H   UNL     1       2.335  10.305  16.555  0.00  0.00    +0.000 HD
ENDBRANCH  23  26
ENDBRANCH  19  20
ENDBRANCH  16  18
BRANCH  17  28
ATOM     28  O   UNL     1      -2.008  12.836  23.446  0.00  0.00    +0.000 OA
ATOM     29  H   UNL     1      -1.359  12.841  22.706  0.00  0.00    +0.000 HD
ENDBRANCH  17  28
TORSDOF 4
ENDMDL
MODEL 9
REMARK VINA RESULT:      -6.5      6.948     11.077
REMARK  Name = 
REMARK  6 active torsions:
REMARK  status: ('A' for Active; 'I' for Inactive)
REMARK    1  A    between atoms: C_1  and  C_2
REMARK    2  A    between atoms: C_2  and  C_3
REMARK    3  A    between atoms: C_16  and  C_17
REMARK    4  A    between atoms: N_18  and  C_19
REMARK    5  A    between atoms: C_22  and  O_23
REMARK    6  A    between atoms: C_26  and  O_27
REMARK                            x       y       z     vdW  Elec       q    Type
REMARK                         _______ _______ _______ _____ _____    ______ ____
ROOT
ATOM      1  C   UNL     1      -6.780  10.316  18.778  0.00  0.00    +0.000 C 
ATOM      2  C   UNL     1      -6.357  11.762  19.069  0.00  0.00    +0.000 C 
ATOM      3  C   UNL     1      -7.091  12.725  18.124  0.00  0.00    +0.000 C 
ATOM      4  O   UNL     1      -6.857  12.051  20.388  0.00  0.00    +0.000 OA
ATOM      5  C   UNL     1      -6.014  12.554  21.333  0.00  0.00    +0.000 A 
ATOM      6  C   UNL     1      -6.650  12.888  22.537  0.00  0.00    +0.000 A 
ATOM      7  C   UNL     1      -5.926  13.407  23.607  0.00  0.00    +0.000 A 
ATOM      8  C   UNL     1      -4.552  13.582  23.481  0.00  0.00    +0.000 A 
ATOM      9  C   UNL     1      -3.766  14.129  24.578  0.00  0.00    +0.000 A 
ATOM     10  C   UNL     1      -2.448  14.297  24.440  0.00  0.00    +0.000 A 
ATOM     11  C   UNL     1      -1.744  13.936  23.205  0.00  0.00    +0.000 A 
ATOM     12  O   UNL     1      -0.539  14.119  23.084  0.00  0.00    +0.000 OA
ATOM     13  O   UNL     1      -2.520  13.388  22.194  0.00  0.00    +0.000 OA
ATOM     14  C   UNL     1      -3.926  13.231  22.277  0.00  0.00    +0.000 A 
ATOM     15  C   UNL     1      -4.634  12.723  21.165  0.00  0.00    +0.000 A 
ATOM     16  C   UNL     1      -4.041  12.346  19.865  0.00  0.00    +0.000 C 
ATOM     17  C   UNL     1      -4.857  11.907  18.887  0.00  0.00    +0.000 C 
ENDROOT
BRANCH  16  18
ATOM     18  C   UNL     1      -2.607  12.548  19.519  0.00  0.00    +0.000 C 
ATOM     19  N   UNL     1      -1.785  11.587  19.224  0.00  0.00    +0.000 NA
BRANCH  19  20
ATOM     20  C   UNL     1      -0.460  11.942  18.896  0.00  0.00    +0.000 A 
ATOM     21  C   UNL     1      -0.148  13.297  18.742  0.00  0.00    +0.000 A 
ATOM     22  C   UNL     1       1.154  13.702  18.420  0.00  0.00    +0.000 A 
ATOM     23  C   UNL     1       2.146  12.741  18.248  0.00  0.00    +0.000 A 
ATOM     24  C   UNL     1       1.861  11.395  18.413  0.00  0.00    +0.000 A 
ATOM     25  C   UNL     1       0.569  10.999  18.754  0.00  0.00    +0.000 A 
BRANCH  23  26
ATOM     26  O   UNL     1       3.424  13.078  17.920  0.00  0.00    +0.000 OA
ATOM     27  H   UNL     1       4.008  12.833  18.657  0.00  0.00    +0.000 HD
ENDBRANCH  23  26
ENDBRANCH  19  20
ENDBRANCH  16  18
BRANCH  17  28
ATOM     28  O   UNL     1      -4.407  11.568  17.613  0.00  0.00    +0.000 OA
ATOM     29  H   UNL     1      -4.676  10.639  17.425  0.00  0.00    +0.000 HD
ENDBRANCH  17  28
TORSDOF 4
ENDMDL
