MODEL 1
REMARK VINA RESULT:      -7.7      0.000      0.000
REMARK  Name = 
REMARK  9 active torsions:
REMARK  status: ('A' for Active; 'I' for Inactive)
REMARK    1  A    between atoms: C_1  and  C_2
REMARK    2  A    between atoms: C_2  and  C_3
REMARK    3  A    between atoms: C_3  and  C_4
REMARK    4  A    between atoms: C_4  and  C_5
REMARK    5  A    between atoms: C_14  and  C_15
REMARK    6  A    between atoms: C_15  and  C_16
REMARK    7  A    between atoms: C_15  and  C_18
REMARK    8  A    between atoms: C_16  and  C_17
REMARK    9  A    between atoms: C_24  and  O_25
REMARK                            x       y       z     vdW  Elec       q    Type
REMARK                         _______ _______ _______ _____ _____    ______ ____
ROOT
ATOM      1  C   UNL     1       2.673   6.584  19.043  0.00  0.00    +0.000 C 
ATOM      2  C   UNL     1       2.150   7.337  17.815  0.00  0.00    +0.000 C 
ATOM      3  C   UNL     1       1.912   8.789  18.100  0.00  0.00    +0.000 C 
ATOM      4  O   UNL     1       2.142   9.642  17.247  0.00  0.00    +0.000 OA
ATOM      5  C   UNL     1       1.264   9.131  19.391  0.00  0.00    +0.000 C 
ATOM      6  C   UNL     1       1.577   8.295  20.401  0.00  0.00    +0.000 C 
ATOM      7  O   UNL     1       2.460   7.260  20.288  0.00  0.00    +0.000 OA
ENDROOT
BRANCH   1   8
ATOM      8  C   UNL     1       1.968   5.211  19.133  0.00  0.00    +0.000 A 
ATOM      9  C   UNL     1       1.779   4.407  17.990  0.00  0.00    +0.000 A 
ATOM     10  C   UNL     1       1.175   3.149  18.073  0.00  0.00    +0.000 A 
ATOM     11  C   UNL     1       0.737   2.668  19.299  0.00  0.00    +0.000 A 
ATOM     12  C   UNL     1       0.911   3.442  20.446  0.00  0.00    +0.000 A 
ATOM     13  C   UNL     1       1.523   4.699  20.365  0.00  0.00    +0.000 A 
ENDBRANCH   1   8
BRANCH   6  14
ATOM     14  O   UNL     1       1.097   8.458  21.684  0.00  0.00    +0.000 OA
ATOM     15  H   UNL     1       1.208   9.370  21.986  0.00  0.00    +0.000 HD
ENDBRANCH   6  14
BRANCH   1  16
ATOM     16  C   UNL     1       4.214   6.370  18.957  0.00  0.00    +0.000 C 
BRANCH  16  18
ATOM     17  C   UNL     1       5.257   5.194  16.970  0.00  0.00    +0.000 C 
ATOM     18  C   UNL     1       4.796   6.527  17.541  0.00  0.00    +0.000 C 
ENDBRANCH  16  18
ENDBRANCH   1  16
BRANCH   5  19
ATOM     19  C   UNL     1       0.448  10.411  19.529  0.00  0.00    +0.000 C 
BRANCH  19  20
ATOM     20  C   UNL     1      -0.887  10.492  18.775  0.00  0.00    +0.000 A 
ATOM     21  C   UNL     1      -1.885  11.412  19.146  0.00  0.00    +0.000 A 
ATOM     22  C   UNL     1      -3.087  11.506  18.436  0.00  0.00    +0.000 A 
ATOM     23  C   UNL     1      -3.302  10.719  17.311  0.00  0.00    +0.000 A 
ATOM     24  C   UNL     1      -2.309   9.842  16.891  0.00  0.00    +0.000 A 
ATOM     25  C   UNL     1      -1.116   9.735  17.612  0.00  0.00    +0.000 A 
ENDBRANCH  19  20
BRANCH  19  26
ATOM     26  C   UNL     1       1.401  11.634  19.400  0.00  0.00    +0.000 C 
ATOM     27  C   UNL     1       1.351  12.631  20.551  0.00  0.00    +0.000 C 
ENDBRANCH  19  26
ENDBRANCH   5  19
TORSDOF 7
ENDMDL
MODEL 2
REMARK VINA RESULT:      -7.6      0.160      1.341
REMARK  Name = 
REMARK  9 active torsions:
REMARK  status: ('A' for Active; 'I' for Inactive)
REMARK    1  A    between atoms: C_1  and  C_2
REMARK    2  A    between atoms: C_2  and  C_3
REMARK    3  A    between atoms: C_3  and  C_4
REMARK    4  A    between atoms: C_4  and  C_5
REMARK    5  A    between atoms: C_14  and  C_15
REMARK    6  A    between atoms: C_15  and  C_16
REMARK    7  A    between atoms: C_15  and  C_18
REMARK    8  A    between atoms: C_16  and  C_17
REMARK    9  A    between atoms: C_24  and  O_25
REMARK                            x       y       z     vdW  Elec       q    Type
REMARK                         _______ _______ _______ _____ _____    ______ ____
ROOT
ATOM      1  C   UNL     1       2.700   6.673  19.091  0.00  0.00    +0.000 C 
ATOM      2  C   UNL     1       2.190   7.415  17.851  0.00  0.00    +0.000 C 
ATOM      3  C   UNL     1       1.914   8.862  18.130  0.00  0.00    +0.000 C 
ATOM      4  O   UNL     1       2.146   9.720  17.282  0.00  0.00    +0.000 OA
ATOM      5  C   UNL     1       1.230   9.189  19.405  0.00  0.00    +0.000 C 
ATOM      6  C   UNL     1       1.536   8.361  20.422  0.00  0.00    +0.000 C 
ATOM      7  O   UNL     1       2.444   7.344  20.330  0.00  0.00    +0.000 OA
ENDROOT
BRANCH   1   8
ATOM      8  C   UNL     1       2.023   5.286  19.164  0.00  0.00    +0.000 A 
ATOM      9  C   UNL     1       1.594   4.742  20.393  0.00  0.00    +0.000 A 
ATOM     10  C   UNL     1       0.949   3.504  20.459  0.00  0.00    +0.000 A 
ATOM     11  C   UNL     1       0.722   2.775  19.300  0.00  0.00    +0.000 A 
ATOM     12  C   UNL     1       1.135   3.289  18.070  0.00  0.00    +0.000 A 
ATOM     13  C   UNL     1       1.776   4.532  18.002  0.00  0.00    +0.000 A 
ENDBRANCH   1   8
BRANCH   6  14
ATOM     14  O   UNL     1       1.024   8.512  21.694  0.00  0.00    +0.000 OA
ATOM     15  H   UNL     1       1.372   7.838  22.294  0.00  0.00    +0.000 HD
ENDBRANCH   6  14
BRANCH   1  16
ATOM     16  C   UNL     1       4.247   6.492  19.041  0.00  0.00    +0.000 C 
BRANCH  16  18
ATOM     17  C   UNL     1       5.461   4.968  17.421  0.00  0.00    +0.000 C 
ATOM     18  C   UNL     1       4.819   6.333  17.621  0.00  0.00    +0.000 C 
ENDBRANCH  16  18
ENDBRANCH   1  16
BRANCH   5  19
ATOM     19  C   UNL     1       0.383  10.452  19.524  0.00  0.00    +0.000 C 
BRANCH  19  20
ATOM     20  C   UNL     1      -0.897  10.535  18.682  0.00  0.00    +0.000 A 
ATOM     21  C   UNL     1      -1.131   9.653  17.610  0.00  0.00    +0.000 A 
ATOM     22  C   UNL     1      -2.314   9.710  16.866  0.00  0.00    +0.000 A 
ATOM     23  C   UNL     1      -3.313  10.616  17.203  0.00  0.00    +0.000 A 
ATOM     24  C   UNL     1      -3.130  11.461  18.290  0.00  0.00    +0.000 A 
ATOM     25  C   UNL     1      -1.940  11.416  19.023  0.00  0.00    +0.000 A 
ENDBRANCH  19  20
BRANCH  19  26
ATOM     26  C   UNL     1       1.321  11.693  19.499  0.00  0.00    +0.000 C 
ATOM     27  C   UNL     1       1.235  12.608  20.713  0.00  0.00    +0.000 C 
ENDBRANCH  19  26
ENDBRANCH   5  19
TORSDOF 7
ENDMDL
MODEL 3
REMARK VINA RESULT:      -7.3      0.872      2.854
REMARK  Name = 
REMARK  9 active torsions:
REMARK  status: ('A' for Active; 'I' for Inactive)
REMARK    1  A    between atoms: C_1  and  C_2
REMARK    2  A    between atoms: C_2  and  C_3
REMARK    3  A    between atoms: C_3  and  C_4
REMARK    4  A    between atoms: C_4  and  C_5
REMARK    5  A    between atoms: C_14  and  C_15
REMARK    6  A    between atoms: C_15  and  C_16
REMARK    7  A    between atoms: C_15  and  C_18
REMARK    8  A    between atoms: C_16  and  C_17
REMARK    9  A    between atoms: C_24  and  O_25
REMARK                            x       y       z     vdW  Elec       q    Type
REMARK                         _______ _______ _______ _____ _____    ______ ____
ROOT
ATOM      1  C   UNL     1       2.793   6.323  19.231  0.00  0.00    +0.000 C 
ATOM      2  C   UNL     1       2.470   6.904  17.850  0.00  0.00    +0.000 C 
ATOM      3  C   UNL     1       2.242   8.385  17.897  0.00  0.00    +0.000 C 
ATOM      4  O   UNL     1       2.616   9.106  16.977  0.00  0.00    +0.000 OA
ATOM      5  C   UNL     1       1.433   8.912  19.024  0.00  0.00    +0.000 C 
ATOM      6  C   UNL     1       1.575   8.222  20.173  0.00  0.00    +0.000 C 
ATOM      7  O   UNL     1       2.431   7.170  20.329  0.00  0.00    +0.000 OA
ENDROOT
BRANCH   1   8
ATOM      8  C   UNL     1       2.038   4.986  19.407  0.00  0.00    +0.000 A 
ATOM      9  C   UNL     1       1.687   4.189  18.297  0.00  0.00    +0.000 A 
ATOM     10  C   UNL     1       1.037   2.962  18.454  0.00  0.00    +0.000 A 
ATOM     11  C   UNL     1       0.714   2.504  19.723  0.00  0.00    +0.000 A 
ATOM     12  C   UNL     1       1.049   3.272  20.839  0.00  0.00    +0.000 A 
ATOM     13  C   UNL     1       1.706   4.498  20.684  0.00  0.00    +0.000 A 
ENDBRANCH   1   8
BRANCH   6  14
ATOM     14  O   UNL     1       0.927   8.568  21.340  0.00  0.00    +0.000 OA
ATOM     15  H   UNL     1       0.589   9.474  21.298  0.00  0.00    +0.000 HD
ENDBRANCH   6  14
BRANCH   1  16
ATOM     16  C   UNL     1       4.323   6.080  19.395  0.00  0.00    +0.000 C 
BRANCH  16  18
ATOM     17  C   UNL     1       5.728   4.473  18.029  0.00  0.00    +0.000 C 
ATOM     18  C   UNL     1       5.071   5.845  18.071  0.00  0.00    +0.000 C 
ENDBRANCH  16  18
ENDBRANCH   1  16
BRANCH   5  19
ATOM     19  C   UNL     1       0.647  10.209  18.869  0.00  0.00    +0.000 C 
BRANCH  19  20
ATOM     20  C   UNL     1       1.322  11.512  19.320  0.00  0.00    +0.000 A 
ATOM     21  C   UNL     1       2.138  12.257  18.447  0.00  0.00    +0.000 A 
ATOM     22  C   UNL     1       2.725  13.461  18.851  0.00  0.00    +0.000 A 
ATOM     23  C   UNL     1       2.473  13.975  20.117  0.00  0.00    +0.000 A 
ATOM     24  C   UNL     1       1.627  13.287  20.978  0.00  0.00    +0.000 A 
ATOM     25  C   UNL     1       1.056  12.074  20.581  0.00  0.00    +0.000 A 
ENDBRANCH  19  20
BRANCH  19  26
ATOM     26  C   UNL     1      -0.814   9.975  19.347  0.00  0.00    +0.000 C 
ATOM     27  C   UNL     1      -1.895  10.200  18.297  0.00  0.00    +0.000 C 
ENDBRANCH  19  26
ENDBRANCH   5  19
TORSDOF 7
ENDMDL
MODEL 4
REMARK VINA RESULT:      -7.1      0.886      2.900
REMARK  Name = 
REMARK  9 active torsions:
REMARK  status: ('A' for Active; 'I' for Inactive)
REMARK    1  A    between atoms: C_1  and  C_2
REMARK    2  A    between atoms: C_2  and  C_3
REMARK    3  A    between atoms: C_3  and  C_4
REMARK    4  A    between atoms: C_4  and  C_5
REMARK    5  A    between atoms: C_14  and  C_15
REMARK    6  A    between atoms: C_15  and  C_16
REMARK    7  A    between atoms: C_15  and  C_18
REMARK    8  A    between atoms: C_16  and  C_17
REMARK    9  A    between atoms: C_24  and  O_25
REMARK                            x       y       z     vdW  Elec       q    Type
REMARK                         _______ _______ _______ _____ _____    ______ ____
ROOT
ATOM      1  C   UNL     1       2.851   6.302  19.214  0.00  0.00    +0.000 C 
ATOM      2  C   UNL     1       2.526   6.870  17.829  0.00  0.00    +0.000 C 
ATOM      3  C   UNL     1       2.274   8.347  17.867  0.00  0.00    +0.000 C 
ATOM      4  O   UNL     1       2.641   9.070  16.944  0.00  0.00    +0.000 OA
ATOM      5  C   UNL     1       1.451   8.867  18.987  0.00  0.00    +0.000 C 
ATOM      6  C   UNL     1       1.598   8.186  20.140  0.00  0.00    +0.000 C 
ATOM      7  O   UNL     1       2.470   7.148  20.305  0.00  0.00    +0.000 OA
ENDROOT
BRANCH   1   8
ATOM      8  C   UNL     1       2.116   4.953  19.393  0.00  0.00    +0.000 A 
ATOM      9  C   UNL     1       1.773   4.467  20.671  0.00  0.00    +0.000 A 
ATOM     10  C   UNL     1       1.077   3.267  20.835  0.00  0.00    +0.000 A 
ATOM     11  C   UNL     1       0.713   2.518  19.725  0.00  0.00    +0.000 A 
ATOM     12  C   UNL     1       1.040   2.974  18.448  0.00  0.00    +0.000 A 
ATOM     13  C   UNL     1       1.731   4.180  18.282  0.00  0.00    +0.000 A 
ENDBRANCH   1   8
BRANCH   6  14
ATOM     14  O   UNL     1       0.939   8.528  21.302  0.00  0.00    +0.000 OA
ATOM     15  H   UNL     1       0.235   9.168  21.130  0.00  0.00    +0.000 HD
ENDBRANCH   6  14
BRANCH   1  16
ATOM     16  C   UNL     1       4.384   6.083  19.387  0.00  0.00    +0.000 C 
BRANCH  16  18
ATOM     17  C   UNL     1       5.586   4.425  17.896  0.00  0.00    +0.000 C 
ATOM     18  C   UNL     1       5.144   5.871  18.066  0.00  0.00    +0.000 C 
ENDBRANCH  16  18
ENDBRANCH   1  16
BRANCH   5  19
ATOM     19  C   UNL     1       0.646  10.151  18.821  0.00  0.00    +0.000 C 
BRANCH  19  20
ATOM     20  C   UNL     1       1.320  11.473  19.211  0.00  0.00    +0.000 A 
ATOM     21  C   UNL     1       1.198  12.006  20.508  0.00  0.00    +0.000 A 
ATOM     22  C   UNL     1       1.843  13.194  20.870  0.00  0.00    +0.000 A 
ATOM     23  C   UNL     1       2.662  13.853  19.962  0.00  0.00    +0.000 A 
ATOM     24  C   UNL     1       2.843  13.320  18.693  0.00  0.00    +0.000 A 
ATOM     25  C   UNL     1       2.184  12.142  18.325  0.00  0.00    +0.000 A 
ENDBRANCH  19  20
BRANCH  19  26
ATOM     26  C   UNL     1      -0.796   9.916  19.354  0.00  0.00    +0.000 C 
ATOM     27  C   UNL     1      -1.913  10.549  18.535  0.00  0.00    +0.000 C 
ENDBRANCH  19  26
ENDBRANCH   5  19
TORSDOF 7
ENDMDL
MODEL 5
REMARK VINA RESULT:      -7.1      1.636      4.053
REMARK  Name = 
REMARK  9 active torsions:
REMARK  status: ('A' for Active; 'I' for Inactive)
REMARK    1  A    between atoms: C_1  and  C_2
REMARK    2  A    between atoms: C_2  and  C_3
REMARK    3  A    between atoms: C_3  and  C_4
REMARK    4  A    between atoms: C_4  and  C_5
REMARK    5  A    between atoms: C_14  and  C_15
REMARK    6  A    between atoms: C_15  and  C_16
REMARK    7  A    between atoms: C_15  and  C_18
REMARK    8  A    between atoms: C_16  and  C_17
REMARK    9  A    between atoms: C_24  and  O_25
REMARK                            x       y       z     vdW  Elec       q    Type
REMARK                         _______ _______ _______ _____ _____    ______ ____
ROOT
ATOM      1  C   UNL     1       3.536   5.892  18.409  0.00  0.00    +0.000 C 
ATOM      2  C   UNL     1       3.135   5.665  19.870  0.00  0.00    +0.000 C 
ATOM      3  C   UNL     1       1.882   6.403  20.235  0.00  0.00    +0.000 C 
ATOM      4  O   UNL     1       1.066   5.909  21.009  0.00  0.00    +0.000 OA
ATOM      5  C   UNL     1       1.744   7.794  19.736  0.00  0.00    +0.000 C 
ATOM      6  C   UNL     1       2.318   8.007  18.537  0.00  0.00    +0.000 C 
ATOM      7  O   UNL     1       2.921   7.031  17.796  0.00  0.00    +0.000 OA
ENDROOT
BRANCH   1   8
ATOM      8  C   UNL     1       5.067   6.090  18.329  0.00  0.00    +0.000 A 
ATOM      9  C   UNL     1       5.648   6.944  17.369  0.00  0.00    +0.000 A 
ATOM     10  C   UNL     1       7.028   7.154  17.317  0.00  0.00    +0.000 A 
ATOM     11  C   UNL     1       7.864   6.510  18.219  0.00  0.00    +0.000 A 
ATOM     12  C   UNL     1       7.316   5.659  19.180  0.00  0.00    +0.000 A 
ATOM     13  C   UNL     1       5.933   5.453  19.237  0.00  0.00    +0.000 A 
ENDBRANCH   1   8
BRANCH   6  14
ATOM     14  O   UNL     1       2.278   9.226  17.892  0.00  0.00    +0.000 OA
ATOM     15  H   UNL     1       1.729   9.183  17.096  0.00  0.00    +0.000 HD
ENDBRANCH   6  14
BRANCH   1  16
ATOM     16  C   UNL     1       3.123   4.681  17.518  0.00  0.00    +0.000 C 
BRANCH  16  18
ATOM     17  C   UNL     1       1.531   2.858  18.267  0.00  0.00    +0.000 C 
ATOM     18  C   UNL     1       1.653   4.254  17.675  0.00  0.00    +0.000 C 
ENDBRANCH  16  18
ENDBRANCH   1  16
BRANCH   5  19
ATOM     19  C   UNL     1       0.889   8.803  20.494  0.00  0.00    +0.000 C 
BRANCH  19  20
ATOM     20  C   UNL     1       0.404  10.044  19.732  0.00  0.00    +0.000 A 
ATOM     21  C   UNL     1      -0.777  10.021  18.966  0.00  0.00    +0.000 A 
ATOM     22  C   UNL     1      -1.234  11.164  18.301  0.00  0.00    +0.000 A 
ATOM     23  C   UNL     1      -0.551  12.368  18.422  0.00  0.00    +0.000 A 
ATOM     24  C   UNL     1       0.587  12.431  19.216  0.00  0.00    +0.000 A 
ATOM     25  C   UNL     1       1.054  11.284  19.867  0.00  0.00    +0.000 A 
ENDBRANCH  19  20
BRANCH  19  26
ATOM     26  C   UNL     1       1.515   9.043  21.898  0.00  0.00    +0.000 C 
ATOM     27  C   UNL     1       0.533   9.407  23.004  0.00  0.00    +0.000 C 
ENDBRANCH  19  26
ENDBRANCH   5  19
TORSDOF 7
ENDMDL
MODEL 6
REMARK VINA RESULT:      -7.1      0.827      2.952
REMARK  Name = 
REMARK  9 active torsions:
REMARK  status: ('A' for Active; 'I' for Inactive)
REMARK    1  A    between atoms: C_1  and  C_2
REMARK    2  A    between atoms: C_2  and  C_3
REMARK    3  A    between atoms: C_3  and  C_4
REMARK    4  A    between atoms: C_4  and  C_5
REMARK    5  A    between atoms: C_14  and  C_15
REMARK    6  A    between atoms: C_15  and  C_16
REMARK    7  A    between atoms: C_15  and  C_18
REMARK    8  A    between atoms: C_16  and  C_17
REMARK    9  A    between atoms: C_24  and  O_25
REMARK                            x       y       z     vdW  Elec       q    Type
REMARK                         _______ _______ _______ _____ _____    ______ ____
ROOT
ATOM      1  C   UNL     1       2.718   6.618  19.220  0.00  0.00    +0.000 C 
ATOM      2  C   UNL     1       2.386   7.250  17.865  0.00  0.00    +0.000 C 
ATOM      3  C   UNL     1       2.069   8.711  17.982  0.00  0.00    +0.000 C 
ATOM      4  O   UNL     1       2.416   9.500  17.107  0.00  0.00    +0.000 OA
ATOM      5  C   UNL     1       1.210   9.130  19.117  0.00  0.00    +0.000 C 
ATOM      6  C   UNL     1       1.372   8.391  20.232  0.00  0.00    +0.000 C 
ATOM      7  O   UNL     1       2.287   7.384  20.352  0.00  0.00    +0.000 OA
ENDROOT
BRANCH   1   8
ATOM      8  C   UNL     1       2.041   5.232  19.312  0.00  0.00    +0.000 A 
ATOM      9  C   UNL     1       1.665   4.678  20.553  0.00  0.00    +0.000 A 
ATOM     10  C   UNL     1       1.020   3.442  20.637  0.00  0.00    +0.000 A 
ATOM     11  C   UNL     1       0.742   2.723  19.483  0.00  0.00    +0.000 A 
ATOM     12  C   UNL     1       1.104   3.246  18.241  0.00  0.00    +0.000 A 
ATOM     13  C   UNL     1       1.743   4.488  18.155  0.00  0.00    +0.000 A 
ENDBRANCH   1   8
BRANCH   6  14
ATOM     14  O   UNL     1       0.684   8.637  21.401  0.00  0.00    +0.000 OA
ATOM     15  H   UNL     1       1.269   8.583  22.170  0.00  0.00    +0.000 HD
ENDBRANCH   6  14
BRANCH   1  16
ATOM     16  C   UNL     1       4.257   6.457  19.404  0.00  0.00    +0.000 C 
BRANCH  16  18
ATOM     17  C   UNL     1       5.606   4.499  18.529  0.00  0.00    +0.000 C 
ATOM     18  C   UNL     1       4.977   5.842  18.191  0.00  0.00    +0.000 C 
ENDBRANCH  16  18
ENDBRANCH   1  16
BRANCH   5  19
ATOM     19  C   UNL     1       0.351  10.385  19.011  0.00  0.00    +0.000 C 
BRANCH  19  20
ATOM     20  C   UNL     1       0.773  11.611  19.833  0.00  0.00    +0.000 A 
ATOM     21  C   UNL     1       1.899  12.380  19.480  0.00  0.00    +0.000 A 
ATOM     22  C   UNL     1       2.260  13.517  20.212  0.00  0.00    +0.000 A 
ATOM     23  C   UNL     1       1.482  13.940  21.282  0.00  0.00    +0.000 A 
ATOM     24  C   UNL     1       0.336  13.230  21.616  0.00  0.00    +0.000 A 
ATOM     25  C   UNL     1      -0.016  12.084  20.897  0.00  0.00    +0.000 A 
ENDBRANCH  19  20
BRANCH  19  26
ATOM     26  C   UNL     1      -1.148   9.979  19.079  0.00  0.00    +0.000 C 
ATOM     27  C   UNL     1      -1.912  10.054  17.762  0.00  0.00    +0.000 C 
ENDBRANCH  19  26
ENDBRANCH   5  19
TORSDOF 7
ENDMDL
MODEL 7
REMARK VINA RESULT:      -6.9      3.061      5.978
REMARK  Name = 
REMARK  9 active torsions:
REMARK  status: ('A' for Active; 'I' for Inactive)
REMARK    1  A    between atoms: C_1  and  C_2
REMARK    2  A    between atoms: C_2  and  C_3
REMARK    3  A    between atoms: C_3  and  C_4
REMARK    4  A    between atoms: C_4  and  C_5
REMARK    5  A    between atoms: C_14  and  C_15
REMARK    6  A    between atoms: C_15  and  C_16
REMARK    7  A    between atoms: C_15  and  C_18
REMARK    8  A    between atoms: C_16  and  C_17
REMARK    9  A    between atoms: C_24  and  O_25
REMARK                            x       y       z     vdW  Elec       q    Type
REMARK                         _______ _______ _______ _____ _____    ______ ____
ROOT
ATOM      1  C   UNL     1       0.494  10.681  19.494  0.00  0.00    +0.000 C 
ATOM      2  C   UNL     1       0.829  11.266  20.871  0.00  0.00    +0.000 C 
ATOM      3  C   UNL     1       1.026  12.751  20.823  0.00  0.00    +0.000 C 
ATOM      4  O   UNL     1       0.654  13.464  21.751  0.00  0.00    +0.000 OA
ATOM      5  C   UNL     1       1.806  13.296  19.683  0.00  0.00    +0.000 C 
ATOM      6  C   UNL     1       1.658  12.606  18.536  0.00  0.00    +0.000 C 
ATOM      7  O   UNL     1       0.820  11.537  18.392  0.00  0.00    +0.000 OA
ENDROOT
BRANCH   1   8
ATOM      8  C   UNL     1       1.272   9.360  19.303  0.00  0.00    +0.000 A 
ATOM      9  C   UNL     1       1.407   8.428  20.354  0.00  0.00    +0.000 A 
ATOM     10  C   UNL     1       2.078   7.216  20.175  0.00  0.00    +0.000 A 
ATOM     11  C   UNL     1       2.639   6.907  18.943  0.00  0.00    +0.000 A 
ATOM     12  C   UNL     1       2.522   7.811  17.886  0.00  0.00    +0.000 A 
ATOM     13  C   UNL     1       1.843   9.022  18.063  0.00  0.00    +0.000 A 
ENDBRANCH   1   8
BRANCH   6  14
ATOM     14  O   UNL     1       2.279  12.967  17.358  0.00  0.00    +0.000 OA
ATOM     15  H   UNL     1       2.163  13.910  17.177  0.00  0.00    +0.000 HD
ENDBRANCH   6  14
BRANCH   1  16
ATOM     16  C   UNL     1      -1.034  10.408  19.356  0.00  0.00    +0.000 C 
BRANCH  16  18
ATOM     17  C   UNL     1      -2.126   9.852  17.138  0.00  0.00    +0.000 C 
ATOM     18  C   UNL     1      -1.661  10.965  18.066  0.00  0.00    +0.000 C 
ENDBRANCH  16  18
ENDBRANCH   1  16
BRANCH   5  19
ATOM     19  C   UNL     1       2.568  14.609  19.828  0.00  0.00    +0.000 C 
BRANCH  19  20
ATOM     20  C   UNL     1       2.161  15.776  18.918  0.00  0.00    +0.000 A 
ATOM     21  C   UNL     1       3.010  16.242  17.897  0.00  0.00    +0.000 A 
ATOM     22  C   UNL     1       2.622  17.284  17.047  0.00  0.00    +0.000 A 
ATOM     23  C   UNL     1       1.360  17.852  17.165  0.00  0.00    +0.000 A 
ATOM     24  C   UNL     1       0.482  17.374  18.129  0.00  0.00    +0.000 A 
ATOM     25  C   UNL     1       0.877  16.345  18.990  0.00  0.00    +0.000 A 
ENDBRANCH  19  20
BRANCH  19  26
ATOM     26  C   UNL     1       4.089  14.301  19.935  0.00  0.00    +0.000 C 
ATOM     27  C   UNL     1       4.853  15.107  20.977  0.00  0.00    +0.000 C 
ENDBRANCH  19  26
ENDBRANCH   5  19
TORSDOF 7
ENDMDL
MODEL 8
REMARK VINA RESULT:      -6.8      1.060      3.493
REMARK  Name = 
REMARK  9 active torsions:
REMARK  status: ('A' for Active; 'I' for Inactive)
REMARK    1  A    between atoms: C_1  and  C_2
REMARK    2  A    between atoms: C_2  and  C_3
REMARK    3  A    between atoms: C_3  and  C_4
REMARK    4  A    between atoms: C_4  and  C_5
REMARK    5  A    between atoms: C_14  and  C_15
REMARK    6  A    between atoms: C_15  and  C_16
REMARK    7  A    between atoms: C_15  and  C_18
REMARK    8  A    between atoms: C_16  and  C_17
REMARK    9  A    between atoms: C_24  and  O_25
REMARK                            x       y       z     vdW  Elec       q    Type
REMARK                         _______ _______ _______ _____ _____    ______ ____
ROOT
ATOM      1  C   UNL     1       2.600   6.451  18.659  0.00  0.00    +0.000 C 
ATOM      2  C   UNL     1       2.394   6.835  20.128  0.00  0.00    +0.000 C 
ATOM      3  C   UNL     1       1.361   7.909  20.294  0.00  0.00    +0.000 C 
ATOM      4  O   UNL     1       0.599   7.903  21.257  0.00  0.00    +0.000 OA
ATOM      5  C   UNL     1       1.394   9.037  19.330  0.00  0.00    +0.000 C 
ATOM      6  C   UNL     1       1.806   8.693  18.094  0.00  0.00    +0.000 C 
ATOM      7  O   UNL     1       2.108   7.414  17.720  0.00  0.00    +0.000 OA
ENDROOT
BRANCH   1   8
ATOM      8  C   UNL     1       4.112   6.269  18.391  0.00  0.00    +0.000 A 
ATOM      9  C   UNL     1       4.737   6.867  17.277  0.00  0.00    +0.000 A 
ATOM     10  C   UNL     1       6.110   6.736  17.052  0.00  0.00    +0.000 A 
ATOM     11  C   UNL     1       6.891   5.997  17.929  0.00  0.00    +0.000 A 
ATOM     12  C   UNL     1       6.299   5.394  19.040  0.00  0.00    +0.000 A 
ATOM     13  C   UNL     1       4.925   5.531  19.270  0.00  0.00    +0.000 A 
ENDBRANCH   1   8
BRANCH   6  14
ATOM     14  O   UNL     1       1.882   9.592  17.051  0.00  0.00    +0.000 OA
ATOM     15  H   UNL     1       1.798   9.145  16.198  0.00  0.00    +0.000 HD
ENDBRANCH   6  14
BRANCH   1  16
ATOM     16  C   UNL     1       1.850   5.129  18.313  0.00  0.00    +0.000 C 
BRANCH  16  18
ATOM     17  C   UNL     1       0.993   2.892  19.136  0.00  0.00    +0.000 C 
ATOM     18  C   UNL     1       1.469   4.280  19.538  0.00  0.00    +0.000 C 
ENDBRANCH  16  18
ENDBRANCH   1  16
BRANCH   5  19
ATOM     19  C   UNL     1       0.855  10.406  19.728  0.00  0.00    +0.000 C 
BRANCH  19  20
ATOM     20  C   UNL     1      -0.552  10.787  19.248  0.00  0.00    +0.000 A 
ATOM     21  C   UNL     1      -1.186  10.090  18.202  0.00  0.00    +0.000 A 
ATOM     22  C   UNL     1      -2.482  10.419  17.790  0.00  0.00    +0.000 A 
ATOM     23  C   UNL     1      -3.194  11.418  18.442  0.00  0.00    +0.000 A 
ATOM     24  C   UNL     1      -2.612  12.084  19.512  0.00  0.00    +0.000 A 
ATOM     25  C   UNL     1      -1.310  11.769  19.913  0.00  0.00    +0.000 A 
ENDBRANCH  19  20
BRANCH  19  26
ATOM     26  C   UNL     1       1.975  11.467  19.529  0.00  0.00    +0.000 C 
ATOM     27  C   UNL     1       1.680  12.551  18.500  0.00  0.00    +0.000 C 
ENDBRANCH  19  26
ENDBRANCH   5  19
TORSDOF 7
ENDMDL
MODEL 9
REMARK VINA RESULT:      -6.8      3.401      6.280
REMARK  Name = 
REMARK  9 active torsions:
REMARK  status: ('A' for Active; 'I' for Inactive)
REMARK    1  A    between atoms: C_1  and  C_2
REMARK    2  A    between atoms: C_2  and  C_3
REMARK    3  A    between atoms: C_3  and  C_4
REMARK    4  A    between atoms: C_4  and  C_5
REMARK    5  A    between atoms: C_14  and  C_15
REMARK    6  A    between atoms: C_15  and  C_16
REMARK    7  A    between atoms: C_15  and  C_18
REMARK    8  A    between atoms: C_16  and  C_17
REMARK    9  A    between atoms: C_24  and  O_25
REMARK                            x       y       z     vdW  Elec       q    Type
REMARK                         _______ _______ _______ _____ _____    ______ ____
ROOT
ATOM      1  C   UNL     1       6.139   6.228  16.493  0.00  0.00    +0.000 C 
ATOM      2  C   UNL     1       4.860   7.066  16.397  0.00  0.00    +0.000 C 
ATOM      3  C   UNL     1       4.180   7.217  17.725  0.00  0.00    +0.000 C 
ATOM      4  O   UNL     1       3.618   8.267  18.025  0.00  0.00    +0.000 OA
ATOM      5  C   UNL     1       4.098   6.012  18.586  0.00  0.00    +0.000 C 
ATOM      6  C   UNL     1       5.149   5.178  18.467  0.00  0.00    +0.000 C 
ATOM      7  O   UNL     1       6.237   5.430  17.679  0.00  0.00    +0.000 OA
ENDROOT
BRANCH   1   8
ATOM      8  C   UNL     1       6.209   5.270  15.282  0.00  0.00    +0.000 A 
ATOM      9  C   UNL     1       5.168   4.360  15.004  0.00  0.00    +0.000 A 
ATOM     10  C   UNL     1       5.211   3.518  13.890  0.00  0.00    +0.000 A 
ATOM     11  C   UNL     1       6.298   3.560  13.029  0.00  0.00    +0.000 A 
ATOM     12  C   UNL     1       7.343   4.451  13.279  0.00  0.00    +0.000 A 
ATOM     13  C   UNL     1       7.297   5.299  14.391  0.00  0.00    +0.000 A 
ENDBRANCH   1   8
BRANCH   6  14
ATOM     14  O   UNL     1       5.273   4.017  19.201  0.00  0.00    +0.000 OA
ATOM     15  H   UNL     1       5.833   4.152  19.978  0.00  0.00    +0.000 HD
ENDBRANCH   6  14
BRANCH   1  16
ATOM     16  C   UNL     1       7.406   7.135  16.511  0.00  0.00    +0.000 C 
BRANCH  16  18
ATOM     17  C   UNL     1       8.151   9.060  17.980  0.00  0.00    +0.000 C 
ATOM     18  C   UNL     1       7.853   7.569  17.918  0.00  0.00    +0.000 C 
ENDBRANCH  16  18
ENDBRANCH   1  16
BRANCH   5  19
ATOM     19  C   UNL     1       2.971   5.866  19.602  0.00  0.00    +0.000 C 
BRANCH  19  20
ATOM     20  C   UNL     1       2.228   4.524  19.657  0.00  0.00    +0.000 A 
ATOM     21  C   UNL     1       1.966   3.878  20.880  0.00  0.00    +0.000 A 
ATOM     22  C   UNL     1       1.259   2.672  20.929  0.00  0.00    +0.000 A 
ATOM     23  C   UNL     1       0.755   2.105  19.765  0.00  0.00    +0.000 A 
ATOM     24  C   UNL     1       0.952   2.751  18.550  0.00  0.00    +0.000 A 
ATOM     25  C   UNL     1       1.675   3.947  18.499  0.00  0.00    +0.000 A 
ENDBRANCH  19  20
BRANCH  19  26
ATOM     26  C   UNL     1       2.095   7.151  19.573  0.00  0.00    +0.000 C 
ATOM     27  C   UNL     1       1.532   7.596  20.917  0.00  0.00    +0.000 C 
ENDBRANCH  19  26
ENDBRANCH   5  19
TORSDOF 7
ENDMDL
