MODEL 1
REMARK VINA RESULT:      -8.0      0.000      0.000
REMARK  Name = 
REMARK  5 active torsions:
REMARK  status: ('A' for Active; 'I' for Inactive)
REMARK    1  A    between atoms: C_1  and  C_2
REMARK    2  A    between atoms: CA_4  and  C_5
REMARK    3  A    between atoms: C_5  and  OXT_7
REMARK    4  A    between atoms: C_13  and  C_14
REMARK    5  A    between atoms: C_19  and  C_20
REMARK                            x       y       z     vdW  Elec       q    Type
REMARK                         _______ _______ _______ _____ _____    ______ ____
ROOT
ATOM      1  C   UNL     1       1.698   3.699  21.376  0.00  0.00    +0.000 C 
ATOM      2  C   UNL     1       2.350   4.527  20.315  0.00  0.00    +0.000 A 
ATOM      3  C   UNL     1       3.306   4.018  19.482  0.00  0.00    +0.000 A 
ATOM      4  CA  UNL     1       3.806   4.916  18.570  0.00  0.00    +0.000 A 
ATOM      5  N   UNL     1       3.429   6.220  18.458  0.00  0.00    +0.000 NA
ATOM      6  C   UNL     1       2.514   6.644  19.342  0.00  0.00    +0.000 A 
ATOM      7  N   UNL     1       2.160   7.998  19.384  0.00  0.00    +0.000 N 
ATOM      8  C   UNL     1       2.128   8.662  18.084  0.00  0.00    +0.000 C 
ATOM      9  C   UNL     1       1.884  10.166  18.231  0.00  0.00    +0.000 C 
ATOM     10  C   UNL     1       0.756  10.571  19.203  0.00  0.00    +0.000 C 
ATOM     11  C   UNL     1       0.895   9.795  20.519  0.00  0.00    +0.000 C 
ATOM     12  C   UNL     1       1.083   8.292  20.336  0.00  0.00    +0.000 C 
ATOM     13  N   UNL     1       1.964   5.817  20.247  0.00  0.00    +0.000 NA
ENDROOT
BRANCH  10  14
ATOM     14  C   UNL     1      -0.656  10.561  18.608  0.00  0.00    +0.000 A 
ATOM     15  C   UNL     1      -0.931   9.715  17.512  0.00  0.00    +0.000 A 
ATOM     16  C   UNL     1      -2.169   9.689  16.869  0.00  0.00    +0.000 A 
ATOM     17  C   UNL     1      -3.190  10.508  17.308  0.00  0.00    +0.000 A 
ATOM     18  C   UNL     1      -2.972  11.329  18.408  0.00  0.00    +0.000 A 
ATOM     19  C   UNL     1      -1.726  11.365  19.089  0.00  0.00    +0.000 A 
BRANCH  19  20
ATOM     20  C   UNL     1      -1.709  12.304  20.286  0.00  0.00    +0.000 C 
ATOM     21  F   UNL     1      -0.686  13.193  20.356  0.00  0.00    +0.000 F 
ATOM     22  F   UNL     1      -2.851  13.049  20.361  0.00  0.00    +0.000 F 
ATOM     23  F   UNL     1      -1.655  11.614  21.464  0.00  0.00    +0.000 F 
ENDBRANCH  19  20
ENDBRANCH  10  14
BRANCH   4  24
ATOM     24  C   UNL     1       4.863   4.462  17.621  0.00  0.00    +0.000 C 
ATOM     25  O   UNL     1       4.803   4.581  16.411  0.00  0.00    +0.000 OA
BRANCH  24  26
ATOM     26  OXT UNL     1       5.896   3.902  18.285  0.00  0.00    +0.000 OA
ATOM     27  HXT UNL     1       5.878   2.929  18.154  0.00  0.00    +0.000 HD
ENDBRANCH  24  26
ENDBRANCH   4  24
TORSDOF 4
ENDMDL
MODEL 2
REMARK VINA RESULT:      -7.5      0.762      1.114
REMARK  Name = 
REMARK  5 active torsions:
REMARK  status: ('A' for Active; 'I' for Inactive)
REMARK    1  A    between atoms: C_1  and  C_2
REMARK    2  A    between atoms: CA_4  and  C_5
REMARK    3  A    between atoms: C_5  and  OXT_7
REMARK    4  A    between atoms: C_13  and  C_14
REMARK    5  A    between atoms: C_19  and  C_20
REMARK                            x       y       z     vdW  Elec       q    Type
REMARK                         _______ _______ _______ _____ _____    ______ ____
ROOT
ATOM      1  C   UNL     1       2.191   3.527  19.952  0.00  0.00    +0.000 C 
ATOM      2  C   UNL     1       2.766   4.602  19.086  0.00  0.00    +0.000 A 
ATOM      3  C   UNL     1       3.747   4.347  18.169  0.00  0.00    +0.000 A 
ATOM      4  CA  UNL     1       4.167   5.448  17.462  0.00  0.00    +0.000 A 
ATOM      5  N   UNL     1       3.696   6.715  17.621  0.00  0.00    +0.000 NA
ATOM      6  C   UNL     1       2.765   6.879  18.572  0.00  0.00    +0.000 A 
ATOM      7  N   UNL     1       2.313   8.166  18.891  0.00  0.00    +0.000 N 
ATOM      8  C   UNL     1       2.216   9.080  17.756  0.00  0.00    +0.000 C 
ATOM      9  C   UNL     1       1.866  10.499  18.210  0.00  0.00    +0.000 C 
ATOM     10  C   UNL     1       0.725  10.611  19.241  0.00  0.00    +0.000 C 
ATOM     11  C   UNL     1       0.937   9.593  20.369  0.00  0.00    +0.000 C 
ATOM     12  C   UNL     1       1.230   8.178  19.881  0.00  0.00    +0.000 C 
ATOM     13  N   UNL     1       2.288   5.846  19.286  0.00  0.00    +0.000 NA
ENDROOT
BRANCH  10  14
ATOM     14  C   UNL     1      -0.691  10.620  18.655  0.00  0.00    +0.000 A 
ATOM     15  C   UNL     1      -0.970   9.812  17.531  0.00  0.00    +0.000 A 
ATOM     16  C   UNL     1      -2.212   9.807  16.895  0.00  0.00    +0.000 A 
ATOM     17  C   UNL     1      -3.232  10.609  17.367  0.00  0.00    +0.000 A 
ATOM     18  C   UNL     1      -3.009  11.391  18.494  0.00  0.00    +0.000 A 
ATOM     19  C   UNL     1      -1.759  11.405  19.169  0.00  0.00    +0.000 A 
BRANCH  19  20
ATOM     20  C   UNL     1      -1.737  12.302  20.398  0.00  0.00    +0.000 C 
ATOM     21  F   UNL     1      -1.472  11.706  21.588  0.00  0.00    +0.000 F 
ATOM     22  F   UNL     1      -0.821  13.306  20.276  0.00  0.00    +0.000 F 
ATOM     23  F   UNL     1      -2.937  12.932  20.580  0.00  0.00    +0.000 F 
ENDBRANCH  19  20
ENDBRANCH  10  14
BRANCH   4  24
ATOM     24  C   UNL     1       5.242   5.278  16.443  0.00  0.00    +0.000 C 
ATOM     25  O   UNL     1       5.420   6.021  15.496  0.00  0.00    +0.000 OA
BRANCH  24  26
ATOM     26  OXT UNL     1       5.993   4.189  16.712  0.00  0.00    +0.000 OA
ATOM     27  HXT UNL     1       6.459   3.904  15.896  0.00  0.00    +0.000 HD
ENDBRANCH  24  26
ENDBRANCH   4  24
TORSDOF 4
ENDMDL
MODEL 3
REMARK VINA RESULT:      -7.2      5.428      7.762
REMARK  Name = 
REMARK  5 active torsions:
REMARK  status: ('A' for Active; 'I' for Inactive)
REMARK    1  A    between atoms: C_1  and  C_2
REMARK    2  A    between atoms: CA_4  and  C_5
REMARK    3  A    between atoms: C_5  and  OXT_7
REMARK    4  A    between atoms: C_13  and  C_14
REMARK    5  A    between atoms: C_19  and  C_20
REMARK                            x       y       z     vdW  Elec       q    Type
REMARK                         _______ _______ _______ _____ _____    ______ ____
ROOT
ATOM      1  C   UNL     1       4.534   3.173  11.938  0.00  0.00    +0.000 C 
ATOM      2  C   UNL     1       5.511   3.874  12.827  0.00  0.00    +0.000 A 
ATOM      3  C   UNL     1       6.576   4.571  12.328  0.00  0.00    +0.000 A 
ATOM      4  CA  UNL     1       7.379   5.148  13.282  0.00  0.00    +0.000 A 
ATOM      5  N   UNL     1       7.191   5.064  14.627  0.00  0.00    +0.000 NA
ATOM      6  C   UNL     1       6.145   4.326  15.028  0.00  0.00    +0.000 A 
ATOM      7  N   UNL     1       5.947   4.080  16.393  0.00  0.00    +0.000 N 
ATOM      8  C   UNL     1       6.305   5.190  17.272  0.00  0.00    +0.000 C 
ATOM      9  C   UNL     1       6.205   4.788  18.746  0.00  0.00    +0.000 C 
ATOM     10  C   UNL     1       4.931   4.017  19.147  0.00  0.00    +0.000 C 
ATOM     11  C   UNL     1       4.661   2.892  18.139  0.00  0.00    +0.000 C 
ATOM     12  C   UNL     1       4.714   3.339  16.682  0.00  0.00    +0.000 C 
ATOM     13  N   UNL     1       5.303   3.752  14.153  0.00  0.00    +0.000 NA
ENDROOT
BRANCH  10  14
ATOM     14  C   UNL     1       3.711   4.887  19.467  0.00  0.00    +0.000 A 
ATOM     15  C   UNL     1       3.639   6.189  18.924  0.00  0.00    +0.000 A 
ATOM     16  C   UNL     1       2.598   7.071  19.214  0.00  0.00    +0.000 A 
ATOM     17  C   UNL     1       1.576   6.680  20.056  0.00  0.00    +0.000 A 
ATOM     18  C   UNL     1       1.591   5.393  20.582  0.00  0.00    +0.000 A 
ATOM     19  C   UNL     1       2.632   4.470  20.293  0.00  0.00    +0.000 A 
BRANCH  19  20
ATOM     20  C   UNL     1       2.439   3.107  20.941  0.00  0.00    +0.000 C 
ATOM     21  F   UNL     1       3.540   2.518  21.472  0.00  0.00    +0.000 F 
ATOM     22  F   UNL     1       1.521   3.152  21.950  0.00  0.00    +0.000 F 
ATOM     23  F   UNL     1       1.947   2.194  20.050  0.00  0.00    +0.000 F 
ENDBRANCH  19  20
ENDBRANCH  10  14
BRANCH   4  24
ATOM     24  C   UNL     1       8.574   5.923  12.840  0.00  0.00    +0.000 C 
ATOM     25  O   UNL     1       9.636   5.952  13.434  0.00  0.00    +0.000 OA
BRANCH  24  26
ATOM     26  OXT UNL     1       8.321   6.585  11.692  0.00  0.00    +0.000 OA
ATOM     27  HXT UNL     1       7.681   6.070  11.152  0.00  0.00    +0.000 HD
ENDBRANCH  24  26
ENDBRANCH   4  24
TORSDOF 4
ENDMDL
MODEL 4
REMARK VINA RESULT:      -6.8      5.146      8.336
REMARK  Name = 
REMARK  5 active torsions:
REMARK  status: ('A' for Active; 'I' for Inactive)
REMARK    1  A    between atoms: C_1  and  C_2
REMARK    2  A    between atoms: CA_4  and  C_5
REMARK    3  A    between atoms: C_5  and  OXT_7
REMARK    4  A    between atoms: C_13  and  C_14
REMARK    5  A    between atoms: C_19  and  C_20
REMARK                            x       y       z     vdW  Elec       q    Type
REMARK                         _______ _______ _______ _____ _____    ______ ____
ROOT
ATOM      1  C   UNL     1       0.787   9.263  23.061  0.00  0.00    +0.000 C 
ATOM      2  C   UNL     1       0.956   9.541  21.601  0.00  0.00    +0.000 A 
ATOM      3  C   UNL     1       0.578  10.728  21.039  0.00  0.00    +0.000 A 
ATOM      4  CA  UNL     1       0.797  10.815  19.686  0.00  0.00    +0.000 A 
ATOM      5  N   UNL     1       1.333   9.835  18.908  0.00  0.00    +0.000 NA
ATOM      6  C   UNL     1       1.637   8.689  19.536  0.00  0.00    +0.000 A 
ATOM      7  N   UNL     1       2.076   7.583  18.797  0.00  0.00    +0.000 N 
ATOM      8  C   UNL     1       2.918   7.911  17.649  0.00  0.00    +0.000 C 
ATOM      9  C   UNL     1       3.225   6.667  16.811  0.00  0.00    +0.000 C 
ATOM     10  C   UNL     1       3.652   5.414  17.601  0.00  0.00    +0.000 C 
ATOM     11  C   UNL     1       2.700   5.191  18.783  0.00  0.00    +0.000 C 
ATOM     12  C   UNL     1       2.458   6.437  19.629  0.00  0.00    +0.000 C 
ATOM     13  N   UNL     1       1.473   8.539  20.861  0.00  0.00    +0.000 NA
ENDROOT
BRANCH  10  14
ATOM     14  C   UNL     1       5.139   5.342  17.964  0.00  0.00    +0.000 A 
ATOM     15  C   UNL     1       5.523   5.517  19.311  0.00  0.00    +0.000 A 
ATOM     16  C   UNL     1       6.857   5.531  19.720  0.00  0.00    +0.000 A 
ATOM     17  C   UNL     1       7.865   5.359  18.792  0.00  0.00    +0.000 A 
ATOM     18  C   UNL     1       7.527   5.145  17.461  0.00  0.00    +0.000 A 
ATOM     19  C   UNL     1       6.177   5.114  17.020  0.00  0.00    +0.000 A 
BRANCH  19  20
ATOM     20  C   UNL     1       6.026   4.833  15.532  0.00  0.00    +0.000 C 
ATOM     21  F   UNL     1       5.138   3.871  15.175  0.00  0.00    +0.000 F 
ATOM     22  F   UNL     1       5.658   5.950  14.840  0.00  0.00    +0.000 F 
ATOM     23  F   UNL     1       7.211   4.441  14.973  0.00  0.00    +0.000 F 
ENDBRANCH  19  20
ENDBRANCH  10  14
BRANCH   4  24
ATOM     24  C   UNL     1       0.408  12.068  18.975  0.00  0.00    +0.000 C 
ATOM     25  O   UNL     1      -0.643  12.658  19.142  0.00  0.00    +0.000 OA
BRANCH  24  26
ATOM     26  OXT UNL     1       1.380  12.460  18.125  0.00  0.00    +0.000 OA
ATOM     27  HXT UNL     1       1.126  12.219  17.207  0.00  0.00    +0.000 HD
ENDBRANCH  24  26
ENDBRANCH   4  24
TORSDOF 4
ENDMDL
MODEL 5
REMARK VINA RESULT:      -6.8      5.184      8.104
REMARK  Name = 
REMARK  5 active torsions:
REMARK  status: ('A' for Active; 'I' for Inactive)
REMARK    1  A    between atoms: C_1  and  C_2
REMARK    2  A    between atoms: CA_4  and  C_5
REMARK    3  A    between atoms: C_5  and  OXT_7
REMARK    4  A    between atoms: C_13  and  C_14
REMARK    5  A    between atoms: C_19  and  C_20
REMARK                            x       y       z     vdW  Elec       q    Type
REMARK                         _______ _______ _______ _____ _____    ______ ____
ROOT
ATOM      1  C   UNL     1      -1.726  11.051  17.277  0.00  0.00    +0.000 C 
ATOM      2  C   UNL     1      -1.020  10.622  18.524  0.00  0.00    +0.000 A 
ATOM      3  C   UNL     1      -1.374  11.095  19.757  0.00  0.00    +0.000 A 
ATOM      4  CA  UNL     1      -0.618  10.604  20.794  0.00  0.00    +0.000 A 
ATOM      5  N   UNL     1       0.415   9.727  20.673  0.00  0.00    +0.000 NA
ATOM      6  C   UNL     1       0.718   9.348  19.422  0.00  0.00    +0.000 A 
ATOM      7  N   UNL     1       1.843   8.547  19.188  0.00  0.00    +0.000 N 
ATOM      8  C   UNL     1       2.113   7.555  20.226  0.00  0.00    +0.000 C 
ATOM      9  C   UNL     1       3.437   6.830  19.973  0.00  0.00    +0.000 C 
ATOM     10  C   UNL     1       3.674   6.349  18.527  0.00  0.00    +0.000 C 
ATOM     11  C   UNL     1       3.342   7.475  17.540  0.00  0.00    +0.000 C 
ATOM     12  C   UNL     1       1.991   8.139  17.787  0.00  0.00    +0.000 C 
ATOM     13  N   UNL     1       0.009   9.768  18.361  0.00  0.00    +0.000 NA
ENDROOT
BRANCH  10  14
ATOM     14  C   UNL     1       3.049   4.994  18.176  0.00  0.00    +0.000 A 
ATOM     15  C   UNL     1       1.782   4.669  18.707  0.00  0.00    +0.000 A 
ATOM     16  C   UNL     1       1.168   3.434  18.491  0.00  0.00    +0.000 A 
ATOM     17  C   UNL     1       1.798   2.475  17.724  0.00  0.00    +0.000 A 
ATOM     18  C   UNL     1       3.031   2.770  17.153  0.00  0.00    +0.000 A 
ATOM     19  C   UNL     1       3.672   4.023  17.345  0.00  0.00    +0.000 A 
BRANCH  19  20
ATOM     20  C   UNL     1       4.995   4.153  16.606  0.00  0.00    +0.000 C 
ATOM     21  F   UNL     1       5.435   3.058  15.935  0.00  0.00    +0.000 F 
ATOM     22  F   UNL     1       4.964   5.162  15.686  0.00  0.00    +0.000 F 
ATOM     23  F   UNL     1       6.015   4.477  17.457  0.00  0.00    +0.000 F 
ENDBRANCH  19  20
ENDBRANCH  10  14
BRANCH   4  24
ATOM     24  C   UNL     1      -0.918  11.066  22.180  0.00  0.00    +0.000 C 
ATOM     25  O   UNL     1      -1.823  11.825  22.475  0.00  0.00    +0.000 OA
BRANCH  24  26
ATOM     26  OXT UNL     1      -0.051  10.530  23.064  0.00  0.00    +0.000 OA
ATOM     27  HXT UNL     1      -0.339  10.749  23.977  0.00  0.00    +0.000 HD
ENDBRANCH  24  26
ENDBRANCH   4  24
TORSDOF 4
ENDMDL
MODEL 6
REMARK VINA RESULT:      -6.7      0.950      1.233
REMARK  Name = 
REMARK  5 active torsions:
REMARK  status: ('A' for Active; 'I' for Inactive)
REMARK    1  A    between atoms: C_1  and  C_2
REMARK    2  A    between atoms: CA_4  and  C_5
REMARK    3  A    between atoms: C_5  and  OXT_7
REMARK    4  A    between atoms: C_13  and  C_14
REMARK    5  A    between atoms: C_19  and  C_20
REMARK                            x       y       z     vdW  Elec       q    Type
REMARK                         _______ _______ _______ _____ _____    ______ ____
ROOT
ATOM      1  C   UNL     1       1.098   3.500  20.753  0.00  0.00    +0.000 C 
ATOM      2  C   UNL     1       1.913   4.326  19.810  0.00  0.00    +0.000 A 
ATOM      3  C   UNL     1       2.849   3.771  18.982  0.00  0.00    +0.000 A 
ATOM      4  CA  UNL     1       3.512   4.672  18.185  0.00  0.00    +0.000 A 
ATOM      5  N   UNL     1       3.310   6.018  18.178  0.00  0.00    +0.000 NA
ATOM      6  C   UNL     1       2.401   6.479  19.051  0.00  0.00    +0.000 A 
ATOM      7  N   UNL     1       2.217   7.859  19.203  0.00  0.00    +0.000 N 
ATOM      8  C   UNL     1       2.349   8.632  17.970  0.00  0.00    +0.000 C 
ATOM      9  C   UNL     1       2.287  10.137  18.247  0.00  0.00    +0.000 C 
ATOM     10  C   UNL     1       1.160  10.599  19.194  0.00  0.00    +0.000 C 
ATOM     11  C   UNL     1       1.118   9.700  20.436  0.00  0.00    +0.000 C 
ATOM     12  C   UNL     1       1.127   8.207  20.122  0.00  0.00    +0.000 C 
ATOM     13  N   UNL     1       1.697   5.656  19.845  0.00  0.00    +0.000 NA
ENDROOT
BRANCH  10  14
ATOM     14  C   UNL     1      -0.203  10.825  18.530  0.00  0.00    +0.000 A 
ATOM     15  C   UNL     1      -0.826   9.747  17.865  0.00  0.00    +0.000 A 
ATOM     16  C   UNL     1      -2.035   9.880  17.180  0.00  0.00    +0.000 A 
ATOM     17  C   UNL     1      -2.675  11.103  17.142  0.00  0.00    +0.000 A 
ATOM     18  C   UNL     1      -2.112  12.180  17.815  0.00  0.00    +0.000 A 
ATOM     19  C   UNL     1      -0.890  12.070  18.531  0.00  0.00    +0.000 A 
BRANCH  19  20
ATOM     20  C   UNL     1      -0.468  13.356  19.224  0.00  0.00    +0.000 C 
ATOM     21  F   UNL     1      -1.246  14.450  19.017  0.00  0.00    +0.000 F 
ATOM     22  F   UNL     1      -0.401  13.203  20.579  0.00  0.00    +0.000 F 
ATOM     23  F   UNL     1       0.787  13.742  18.845  0.00  0.00    +0.000 F 
ENDBRANCH  19  20
ENDBRANCH  10  14
BRANCH   4  24
ATOM     24  C   UNL     1       4.562   4.169  17.253  0.00  0.00    +0.000 C 
ATOM     25  O   UNL     1       4.471   4.180  16.040  0.00  0.00    +0.000 OA
BRANCH  24  26
ATOM     26  OXT UNL     1       5.627   3.700  17.937  0.00  0.00    +0.000 OA
ATOM     27  HXT UNL     1       5.715   4.193  18.781  0.00  0.00    +0.000 HD
ENDBRANCH  24  26
ENDBRANCH   4  24
TORSDOF 4
ENDMDL
MODEL 7
REMARK VINA RESULT:      -6.5      5.016      8.090
REMARK  Name = 
REMARK  5 active torsions:
REMARK  status: ('A' for Active; 'I' for Inactive)
REMARK    1  A    between atoms: C_1  and  C_2
REMARK    2  A    between atoms: CA_4  and  C_5
REMARK    3  A    between atoms: C_5  and  OXT_7
REMARK    4  A    between atoms: C_13  and  C_14
REMARK    5  A    between atoms: C_19  and  C_20
REMARK                            x       y       z     vdW  Elec       q    Type
REMARK                         _______ _______ _______ _____ _____    ______ ____
ROOT
ATOM      1  C   UNL     1      -2.649  10.608  15.699  0.00  0.00    +0.000 C 
ATOM      2  C   UNL     1      -2.194  10.734  17.118  0.00  0.00    +0.000 A 
ATOM      3  C   UNL     1      -2.843  11.529  18.021  0.00  0.00    +0.000 A 
ATOM      4  CA  UNL     1      -2.290  11.535  19.278  0.00  0.00    +0.000 A 
ATOM      5  N   UNL     1      -1.184  10.838  19.657  0.00  0.00    +0.000 NA
ATOM      6  C   UNL     1      -0.588  10.116  18.696  0.00  0.00    +0.000 A 
ATOM      7  N   UNL     1       0.625   9.468  18.961  0.00  0.00    +0.000 N 
ATOM      8  C   UNL     1       0.749   8.932  20.314  0.00  0.00    +0.000 C 
ATOM      9  C   UNL     1       2.153   8.379  20.569  0.00  0.00    +0.000 C 
ATOM     10  C   UNL     1       2.735   7.487  19.454  0.00  0.00    +0.000 C 
ATOM     11  C   UNL     1       2.529   8.154  18.088  0.00  0.00    +0.000 C 
ATOM     12  C   UNL     1       1.105   8.644  17.846  0.00  0.00    +0.000 C 
ATOM     13  N   UNL     1      -1.085  10.044  17.450  0.00  0.00    +0.000 NA
ENDROOT
BRANCH  10  14
ATOM     14  C   UNL     1       2.318   6.013  19.508  0.00  0.00    +0.000 A 
ATOM     15  C   UNL     1       1.192   5.650  20.279  0.00  0.00    +0.000 A 
ATOM     16  C   UNL     1       0.780   4.326  20.437  0.00  0.00    +0.000 A 
ATOM     17  C   UNL     1       1.477   3.309  19.816  0.00  0.00    +0.000 A 
ATOM     18  C   UNL     1       2.569   3.628  19.018  0.00  0.00    +0.000 A 
ATOM     19  C   UNL     1       3.002   4.967  18.831  0.00  0.00    +0.000 A 
BRANCH  19  20
ATOM     20  C   UNL     1       4.193   5.100  17.893  0.00  0.00    +0.000 C 
ATOM     21  F   UNL     1       3.984   5.754  16.722  0.00  0.00    +0.000 F 
ATOM     22  F   UNL     1       5.240   5.740  18.491  0.00  0.00    +0.000 F 
ATOM     23  F   UNL     1       4.683   3.877  17.528  0.00  0.00    +0.000 F 
ENDBRANCH  19  20
ENDBRANCH  10  14
BRANCH   4  24
ATOM     24  C   UNL     1      -2.918  12.380  20.334  0.00  0.00    +0.000 C 
ATOM     25  O   UNL     1      -3.898  13.083  20.164  0.00  0.00    +0.000 OA
BRANCH  24  26
ATOM     26  OXT UNL     1      -2.255  12.261  21.504  0.00  0.00    +0.000 OA
ATOM     27  HXT UNL     1      -1.446  12.816  21.478  0.00  0.00    +0.000 HD
ENDBRANCH  24  26
ENDBRANCH   4  24
TORSDOF 4
ENDMDL
MODEL 8
REMARK VINA RESULT:      -6.4      2.019      3.618
REMARK  Name = 
REMARK  5 active torsions:
REMARK  status: ('A' for Active; 'I' for Inactive)
REMARK    1  A    between atoms: C_1  and  C_2
REMARK    2  A    between atoms: CA_4  and  C_5
REMARK    3  A    between atoms: C_5  and  OXT_7
REMARK    4  A    between atoms: C_13  and  C_14
REMARK    5  A    between atoms: C_19  and  C_20
REMARK                            x       y       z     vdW  Elec       q    Type
REMARK                         _______ _______ _______ _____ _____    ______ ____
ROOT
ATOM      1  C   UNL     1       5.114   6.721  15.798  0.00  0.00    +0.000 C 
ATOM      2  C   UNL     1       4.384   6.474  17.079  0.00  0.00    +0.000 A 
ATOM      3  C   UNL     1       4.631   5.376  17.855  0.00  0.00    +0.000 A 
ATOM      4  CA  UNL     1       3.867   5.299  18.995  0.00  0.00    +0.000 A 
ATOM      5  N   UNL     1       2.921   6.200  19.373  0.00  0.00    +0.000 NA
ATOM      6  C   UNL     1       2.717   7.225  18.531  0.00  0.00    +0.000 A 
ATOM      7  N   UNL     1       1.678   8.132  18.775  0.00  0.00    +0.000 N 
ATOM      8  C   UNL     1       1.441   8.425  20.186  0.00  0.00    +0.000 C 
ATOM      9  C   UNL     1       0.198   9.299  20.373  0.00  0.00    +0.000 C 
ATOM     10  C   UNL     1       0.079  10.508  19.423  0.00  0.00    +0.000 C 
ATOM     11  C   UNL     1       0.364  10.071  17.981  0.00  0.00    +0.000 C 
ATOM     12  C   UNL     1       1.638   9.247  17.822  0.00  0.00    +0.000 C 
ATOM     13  N   UNL     1       3.441   7.379  17.411  0.00  0.00    +0.000 NA
ENDROOT
BRANCH  10  14
ATOM     14  C   UNL     1       0.835  11.766  19.864  0.00  0.00    +0.000 A 
ATOM     15  C   UNL     1       1.877  12.258  19.049  0.00  0.00    +0.000 A 
ATOM     16  C   UNL     1       2.658  13.358  19.405  0.00  0.00    +0.000 A 
ATOM     17  C   UNL     1       2.419  14.019  20.594  0.00  0.00    +0.000 A 
ATOM     18  C   UNL     1       1.377  13.588  21.406  0.00  0.00    +0.000 A 
ATOM     19  C   UNL     1       0.558  12.479  21.062  0.00  0.00    +0.000 A 
BRANCH  19  20
ATOM     20  C   UNL     1      -0.545  12.197  22.071  0.00  0.00    +0.000 C 
ATOM     21  F   UNL     1      -0.386  11.109  22.867  0.00  0.00    +0.000 F 
ATOM     22  F   UNL     1      -0.738  13.249  22.919  0.00  0.00    +0.000 F 
ATOM     23  F   UNL     1      -1.751  12.007  21.456  0.00  0.00    +0.000 F 
ENDBRANCH  19  20
ENDBRANCH  10  14
BRANCH   4  24
ATOM     24  C   UNL     1       4.054   4.132  19.904  0.00  0.00    +0.000 C 
ATOM     25  O   UNL     1       3.262   3.795  20.766  0.00  0.00    +0.000 OA
BRANCH  24  26
ATOM     26  OXT UNL     1       5.217   3.499  19.643  0.00  0.00    +0.000 OA
ATOM     27  HXT UNL     1       5.874   4.149  19.310  0.00  0.00    +0.000 HD
ENDBRANCH  24  26
ENDBRANCH   4  24
TORSDOF 4
ENDMDL
MODEL 9
REMARK VINA RESULT:      -6.3      5.808      8.682
REMARK  Name = 
REMARK  5 active torsions:
REMARK  status: ('A' for Active; 'I' for Inactive)
REMARK    1  A    between atoms: C_1  and  C_2
REMARK    2  A    between atoms: CA_4  and  C_5
REMARK    3  A    between atoms: C_5  and  OXT_7
REMARK    4  A    between atoms: C_13  and  C_14
REMARK    5  A    between atoms: C_19  and  C_20
REMARK                            x       y       z     vdW  Elec       q    Type
REMARK                         _______ _______ _______ _____ _____    ______ ____
ROOT
ATOM      1  C   UNL     1       3.239  17.020  20.919  0.00  0.00    +0.000 C 
ATOM      2  C   UNL     1       2.067  16.608  20.087  0.00  0.00    +0.000 A 
ATOM      3  C   UNL     1       1.449  17.471  19.225  0.00  0.00    +0.000 A 
ATOM      4  CA  UNL     1       0.385  16.934  18.543  0.00  0.00    +0.000 A 
ATOM      5  N   UNL     1      -0.075  15.659  18.675  0.00  0.00    +0.000 NA
ATOM      6  C   UNL     1       0.566  14.895  19.572  0.00  0.00    +0.000 A 
ATOM      7  N   UNL     1       0.085  13.612  19.866  0.00  0.00    +0.000 N 
ATOM      8  C   UNL     1      -0.483  12.897  18.726  0.00  0.00    +0.000 C 
ATOM      9  C   UNL     1      -1.121  11.575  19.159  0.00  0.00    +0.000 C 
ATOM     10  C   UNL     1      -0.284  10.711  20.125  0.00  0.00    +0.000 C 
ATOM     11  C   UNL     1       0.264  11.581  21.264  0.00  0.00    +0.000 C 
ATOM     12  C   UNL     1       0.941  12.864  20.793  0.00  0.00    +0.000 C 
ATOM     13  N   UNL     1       1.629  15.344  20.259  0.00  0.00    +0.000 NA
ENDROOT
BRANCH  10  14
ATOM     14  C   UNL     1       0.759   9.807  19.460  0.00  0.00    +0.000 A 
ATOM     15  C   UNL     1       1.301  10.190  18.214  0.00  0.00    +0.000 A 
ATOM     16  C   UNL     1       2.207   9.397  17.508  0.00  0.00    +0.000 A 
ATOM     17  C   UNL     1       2.616   8.186  18.031  0.00  0.00    +0.000 A 
ATOM     18  C   UNL     1       2.135   7.790  19.273  0.00  0.00    +0.000 A 
ATOM     19  C   UNL     1       1.222   8.584  20.018  0.00  0.00    +0.000 A 
BRANCH  19  20
ATOM     20  C   UNL     1       0.849   7.984  21.366  0.00  0.00    +0.000 C 
ATOM     21  F   UNL     1      -0.471   7.955  21.681  0.00  0.00    +0.000 F 
ATOM     22  F   UNL     1       1.286   6.697  21.486  0.00  0.00    +0.000 F 
ATOM     23  F   UNL     1       1.440   8.660  22.397  0.00  0.00    +0.000 F 
ENDBRANCH  19  20
ENDBRANCH  10  14
BRANCH   4  24
ATOM     24  C   UNL     1      -0.363  17.798  17.586  0.00  0.00    +0.000 C 
ATOM     25  O   UNL     1       0.089  18.220  16.537  0.00  0.00    +0.000 OA
BRANCH  24  26
ATOM     26  OXT UNL     1      -1.611  18.049  18.037  0.00  0.00    +0.000 OA
ATOM     27  HXT UNL     1      -1.604  18.870  18.575  0.00  0.00    +0.000 HD
ENDBRANCH  24  26
ENDBRANCH   4  24
TORSDOF 4
ENDMDL
