MODEL 1
REMARK VINA RESULT:      -9.2      0.000      0.000
REMARK  Name = 
REMARK  7 active torsions:
REMARK  status: ('A' for Active; 'I' for Inactive)
REMARK    1  A    between atoms: C_1  and  C_2
REMARK    2  A    between atoms: C_2  and  C_3
REMARK    3  A    between atoms: C_2  and  N_4
REMARK    4  A    between atoms: C_2  and  C_5
REMARK    5  A    between atoms: C_5  and  C_6
REMARK    6  A    between atoms: C_9  and  C_10
REMARK    7  A    between atoms: C_13  and  N_14
REMARK                            x       y       z     vdW  Elec       q    Type
REMARK                         _______ _______ _______ _____ _____    ______ ____
ROOT
ATOM      1  C   UNL     1       0.831   9.363  20.185  0.00  0.00    +0.000 A 
ATOM      2  C   UNL     1       1.190   8.180  20.831  0.00  0.00    +0.000 A 
ATOM      3  C   UNL     1       1.893   7.193  20.144  0.00  0.00    +0.000 A 
ATOM      4  C   UNL     1       2.274   7.351  18.802  0.00  0.00    +0.000 A 
ATOM      5  C   UNL     1       1.898   8.530  18.160  0.00  0.00    +0.000 A 
ATOM      6  C   UNL     1       1.186   9.522  18.842  0.00  0.00    +0.000 A 
ENDROOT
BRANCH   4   7
ATOM      7  N   UNL     1       3.079   6.353  18.180  0.00  0.00    +0.000 N 
ATOM      8  C   UNL     1       4.397   6.643  17.614  0.00  0.00    +0.000 C 
ATOM      9  C   UNL     1       5.515   5.859  18.298  0.00  0.00    +0.000 C 
ATOM     10  O   UNL     1       5.432   4.472  17.967  0.00  0.00    +0.000 OA
ATOM     11  C   UNL     1       4.599   3.817  18.837  0.00  0.00    +0.000 A 
ATOM     12  N   UNL     1       5.222   2.913  19.611  0.00  0.00    +0.000 NA
ATOM     13  C   UNL     1       4.426   2.224  20.438  0.00  0.00    +0.000 A 
ATOM     14  N   UNL     1       3.096   2.343  20.538  0.00  0.00    +0.000 NA
ATOM     15  C   UNL     1       2.511   3.245  19.735  0.00  0.00    +0.000 A 
ATOM     16  N   UNL     1       1.142   3.421  19.952  0.00  0.00    +0.000 N 
ATOM     17  C   UNL     1       3.241   4.028  18.855  0.00  0.00    +0.000 A 
ATOM     18  C   UNL     1       2.570   5.053  18.050  0.00  0.00    +0.000 C 
ATOM     19  O   UNL     1       1.512   4.776  17.495  0.00  0.00    +0.000 OA
ATOM     20  H   UNL     1       0.784   2.683  20.548  0.00  0.00    +0.000 HD
ATOM     21  H   UNL     1       0.629   3.542  19.077  0.00  0.00    +0.000 HD
ENDBRANCH   4   7
BRANCH   1  25
ATOM     22  C   UNL     1      -2.108  11.942  22.223  0.00  0.00    +0.000 C 
ATOM     23  C   UNL     1      -1.567  12.281  20.831  0.00  0.00    +0.000 C 
ATOM     24  C   UNL     1      -0.862  11.139  20.124  0.00  0.00    +0.000 C 
ATOM     25  C   UNL     1       0.197  10.470  20.999  0.00  0.00    +0.000 C 
ATOM     26  C   UNL     1      -0.422  10.022  22.325  0.00  0.00    +0.000 C 
ATOM     27  C   UNL     1      -1.044  11.205  23.066  0.00  0.00    +0.000 C 
BRANCH  22  28
ATOM     28  C   UNL     1      -2.590  13.200  22.999  0.00  0.00    +0.000 C 
BRANCH  28  30
ATOM     29  C   UNL     1      -4.538  14.714  23.666  0.00  0.00    +0.000 C 
ATOM     30  C   UNL     1      -4.056  13.267  23.515  0.00  0.00    +0.000 C 
ATOM     31  C   UNL     1      -4.319  12.459  24.795  0.00  0.00    +0.000 C 
BRANCH  30  32
ATOM     32  N   UNL     1      -4.901  12.645  22.474  0.00  0.00    +0.000 NA
ATOM     33  H   UNL     1      -5.145  13.344  21.771  0.00  0.00    +0.000 HD
ATOM     34  H   UNL     1      -5.787  12.349  22.886  0.00  0.00    +0.000 HD
ENDBRANCH  30  32
ENDBRANCH  28  30
ENDBRANCH  22  28
ENDBRANCH   1  25
TORSDOF 5
ENDMDL
MODEL 2
REMARK VINA RESULT:      -9.0      2.215      3.602
REMARK  Name = 
REMARK  7 active torsions:
REMARK  status: ('A' for Active; 'I' for Inactive)
REMARK    1  A    between atoms: C_1  and  C_2
REMARK    2  A    between atoms: C_2  and  C_3
REMARK    3  A    between atoms: C_2  and  N_4
REMARK    4  A    between atoms: C_2  and  C_5
REMARK    5  A    between atoms: C_5  and  C_6
REMARK    6  A    between atoms: C_9  and  C_10
REMARK    7  A    between atoms: C_13  and  N_14
REMARK                            x       y       z     vdW  Elec       q    Type
REMARK                         _______ _______ _______ _____ _____    ______ ____
ROOT
ATOM      1  C   UNL     1       1.586   8.939  19.373  0.00  0.00    +0.000 A 
ATOM      2  C   UNL     1       2.246   8.703  18.168  0.00  0.00    +0.000 A 
ATOM      3  C   UNL     1       2.937   7.510  17.970  0.00  0.00    +0.000 A 
ATOM      4  C   UNL     1       2.986   6.509  18.953  0.00  0.00    +0.000 A 
ATOM      5  C   UNL     1       2.335   6.759  20.160  0.00  0.00    +0.000 A 
ATOM      6  C   UNL     1       1.645   7.957  20.368  0.00  0.00    +0.000 A 
ENDROOT
BRANCH   4   7
ATOM      7  N   UNL     1       3.622   5.268  18.659  0.00  0.00    +0.000 N 
ATOM      8  C   UNL     1       2.871   4.042  18.386  0.00  0.00    +0.000 C 
ATOM      9  C   UNL     1       3.130   3.494  16.984  0.00  0.00    +0.000 C 
ATOM     10  O   UNL     1       4.455   2.970  16.886  0.00  0.00    +0.000 OA
ATOM     11  C   UNL     1       5.340   3.956  16.537  0.00  0.00    +0.000 A 
ATOM     12  N   UNL     1       5.897   3.786  15.327  0.00  0.00    +0.000 NA
ATOM     13  C   UNL     1       6.802   4.709  14.979  0.00  0.00    +0.000 A 
ATOM     14  N   UNL     1       7.202   5.746  15.727  0.00  0.00    +0.000 NA
ATOM     15  C   UNL     1       6.634   5.870  16.936  0.00  0.00    +0.000 A 
ATOM     16  N   UNL     1       6.992   7.026  17.635  0.00  0.00    +0.000 N 
ATOM     17  C   UNL     1       5.670   4.984  17.390  0.00  0.00    +0.000 A 
ATOM     18  C   UNL     1       5.022   5.199  18.687  0.00  0.00    +0.000 C 
ATOM     19  O   UNL     1       5.712   5.509  19.652  0.00  0.00    +0.000 OA
ATOM     20  H   UNL     1       7.782   7.475  17.187  0.00  0.00    +0.000 HD
ATOM     21  H   UNL     1       7.118   6.846  18.631  0.00  0.00    +0.000 HD
ENDBRANCH   4   7
BRANCH   1  25
ATOM     22  C   UNL     1      -1.856  11.646  19.896  0.00  0.00    +0.000 C 
ATOM     23  C   UNL     1      -1.340  11.257  18.507  0.00  0.00    +0.000 C 
ATOM     24  C   UNL     1      -0.408  10.061  18.483  0.00  0.00    +0.000 C 
ATOM     25  C   UNL     1       0.726  10.179  19.500  0.00  0.00    +0.000 C 
ATOM     26  C   UNL     1       0.157  10.428  20.898  0.00  0.00    +0.000 C 
ATOM     27  C   UNL     1      -0.701  11.691  20.922  0.00  0.00    +0.000 C 
BRANCH  22  28
ATOM     28  C   UNL     1      -2.592  13.015  19.897  0.00  0.00    +0.000 C 
BRANCH  28  30
ATOM     29  C   UNL     1      -4.210  12.776  21.861  0.00  0.00    +0.000 C 
ATOM     30  C   UNL     1      -4.074  13.087  20.366  0.00  0.00    +0.000 C 
ATOM     31  C   UNL     1      -5.049  12.240  19.533  0.00  0.00    +0.000 C 
BRANCH  30  32
ATOM     32  N   UNL     1      -4.510  14.487  20.183  0.00  0.00    +0.000 NA
ATOM     33  H   UNL     1      -3.809  14.993  19.642  0.00  0.00    +0.000 HD
ATOM     34  H   UNL     1      -4.547  14.953  21.090  0.00  0.00    +0.000 HD
ENDBRANCH  30  32
ENDBRANCH  28  30
ENDBRANCH  22  28
ENDBRANCH   1  25
TORSDOF 5
ENDMDL
MODEL 3
REMARK VINA RESULT:      -8.9      1.134      1.646
REMARK  Name = 
REMARK  7 active torsions:
REMARK  status: ('A' for Active; 'I' for Inactive)
REMARK    1  A    between atoms: C_1  and  C_2
REMARK    2  A    between atoms: C_2  and  C_3
REMARK    3  A    between atoms: C_2  and  N_4
REMARK    4  A    between atoms: C_2  and  C_5
REMARK    5  A    between atoms: C_5  and  C_6
REMARK    6  A    between atoms: C_9  and  C_10
REMARK    7  A    between atoms: C_13  and  N_14
REMARK                            x       y       z     vdW  Elec       q    Type
REMARK                         _______ _______ _______ _____ _____    ______ ____
ROOT
ATOM      1  C   UNL     1       1.004   9.664  19.496  0.00  0.00    +0.000 A 
ATOM      2  C   UNL     1       1.442   9.580  18.175  0.00  0.00    +0.000 A 
ATOM      3  C   UNL     1       2.156   8.464  17.744  0.00  0.00    +0.000 A 
ATOM      4  C   UNL     1       2.447   7.392  18.603  0.00  0.00    +0.000 A 
ATOM      5  C   UNL     1       2.018   7.491  19.926  0.00  0.00    +0.000 A 
ATOM      6  C   UNL     1       1.306   8.611  20.366  0.00  0.00    +0.000 A 
ENDROOT
BRANCH   4   7
ATOM      7  N   UNL     1       3.093   6.233  18.084  0.00  0.00    +0.000 N 
ATOM      8  C   UNL     1       4.421   6.277  17.471  0.00  0.00    +0.000 C 
ATOM      9  C   UNL     1       5.443   5.427  18.222  0.00  0.00    +0.000 C 
ATOM     10  O   UNL     1       5.165   4.036  18.049  0.00  0.00    +0.000 OA
ATOM     11  C   UNL     1       4.278   3.599  18.998  0.00  0.00    +0.000 A 
ATOM     12  N   UNL     1       4.796   2.708  19.859  0.00  0.00    +0.000 NA
ATOM     13  C   UNL     1       3.940   2.227  20.768  0.00  0.00    +0.000 A 
ATOM     14  N   UNL     1       2.641   2.537  20.873  0.00  0.00    +0.000 NA
ATOM     15  C   UNL     1       2.159   3.418  19.983  0.00  0.00    +0.000 A 
ATOM     16  N   UNL     1       0.832   3.801  20.198  0.00  0.00    +0.000 N 
ATOM     17  C   UNL     1       2.961   3.994  19.011  0.00  0.00    +0.000 A 
ATOM     18  C   UNL     1       2.411   5.008  18.106  0.00  0.00    +0.000 C 
ATOM     19  O   UNL     1       1.310   4.818  17.600  0.00  0.00    +0.000 OA
ATOM     20  H   UNL     1       0.396   3.188  20.877  0.00  0.00    +0.000 HD
ATOM     21  H   UNL     1       0.315   3.895  19.323  0.00  0.00    +0.000 HD
ENDBRANCH   4   7
BRANCH   1  25
ATOM     22  C   UNL     1      -2.503  12.072  20.657  0.00  0.00    +0.000 C 
ATOM     23  C   UNL     1      -2.035  11.980  19.201  0.00  0.00    +0.000 C 
ATOM     24  C   UNL     1      -1.064  10.850  18.912  0.00  0.00    +0.000 C 
ATOM     25  C   UNL     1       0.108  10.819  19.891  0.00  0.00    +0.000 C 
ATOM     26  C   UNL     1      -0.408  10.770  21.331  0.00  0.00    +0.000 C 
ATOM     27  C   UNL     1      -1.307  11.968  21.630  0.00  0.00    +0.000 C 
BRANCH  22  28
ATOM     28  C   UNL     1      -3.286  13.383  20.950  0.00  0.00    +0.000 C 
BRANCH  28  30
ATOM     29  C   UNL     1      -5.630  12.495  20.453  0.00  0.00    +0.000 C 
ATOM     30  C   UNL     1      -4.764  13.301  21.428  0.00  0.00    +0.000 C 
ATOM     31  C   UNL     1      -5.407  14.660  21.746  0.00  0.00    +0.000 C 
BRANCH  30  32
ATOM     32  N   UNL     1      -4.757  12.557  22.704  0.00  0.00    +0.000 NA
ATOM     33  H   UNL     1      -4.509  13.189  23.466  0.00  0.00    +0.000 HD
ATOM     34  H   UNL     1      -4.021  11.850  22.682  0.00  0.00    +0.000 HD
ENDBRANCH  30  32
ENDBRANCH  28  30
ENDBRANCH  22  28
ENDBRANCH   1  25
TORSDOF 5
ENDMDL
MODEL 4
REMARK VINA RESULT:      -8.8      1.284      1.927
REMARK  Name = 
REMARK  7 active torsions:
REMARK  status: ('A' for Active; 'I' for Inactive)
REMARK    1  A    between atoms: C_1  and  C_2
REMARK    2  A    between atoms: C_2  and  C_3
REMARK    3  A    between atoms: C_2  and  N_4
REMARK    4  A    between atoms: C_2  and  C_5
REMARK    5  A    between atoms: C_5  and  C_6
REMARK    6  A    between atoms: C_9  and  C_10
REMARK    7  A    between atoms: C_13  and  N_14
REMARK                            x       y       z     vdW  Elec       q    Type
REMARK                         _______ _______ _______ _____ _____    ______ ____
ROOT
ATOM      1  C   UNL     1       0.637   9.464  20.260  0.00  0.00    +0.000 A 
ATOM      2  C   UNL     1       0.994   9.619  18.921  0.00  0.00    +0.000 A 
ATOM      3  C   UNL     1       1.788   8.663  18.293  0.00  0.00    +0.000 A 
ATOM      4  C   UNL     1       2.244   7.518  18.966  0.00  0.00    +0.000 A 
ATOM      5  C   UNL     1       1.896   7.379  20.309  0.00  0.00    +0.000 A 
ATOM      6  C   UNL     1       1.104   8.338  20.947  0.00  0.00    +0.000 A 
ENDROOT
BRANCH   4   7
ATOM      7  N   UNL     1       2.970   6.524  18.247  0.00  0.00    +0.000 N 
ATOM      8  C   UNL     1       4.243   6.803  17.583  0.00  0.00    +0.000 C 
ATOM      9  C   UNL     1       5.394   5.972  18.147  0.00  0.00    +0.000 C 
ATOM     10  O   UNL     1       5.249   4.599  17.781  0.00  0.00    +0.000 OA
ATOM     11  C   UNL     1       4.475   3.934  18.696  0.00  0.00    +0.000 A 
ATOM     12  N   UNL     1       5.136   2.991  19.387  0.00  0.00    +0.000 NA
ATOM     13  C   UNL     1       4.395   2.293  20.255  0.00  0.00    +0.000 A 
ATOM     14  N   UNL     1       3.081   2.438  20.469  0.00  0.00    +0.000 NA
ATOM     15  C   UNL     1       2.454   3.380  19.746  0.00  0.00    +0.000 A 
ATOM     16  N   UNL     1       1.112   3.578  20.082  0.00  0.00    +0.000 N 
ATOM     17  C   UNL     1       3.128   4.175  18.834  0.00  0.00    +0.000 A 
ATOM     18  C   UNL     1       2.420   5.241  18.120  0.00  0.00    +0.000 C 
ATOM     19  O   UNL     1       1.312   5.006  17.646  0.00  0.00    +0.000 OA
ATOM     20  H   UNL     1       0.786   2.830  20.682  0.00  0.00    +0.000 HD
ATOM     21  H   UNL     1       0.532   3.740  19.258  0.00  0.00    +0.000 HD
ENDBRANCH   4   7
BRANCH   1  25
ATOM     22  C   UNL     1      -1.176  12.599  22.775  0.00  0.00    +0.000 C 
ATOM     23  C   UNL     1      -1.338  11.111  23.101  0.00  0.00    +0.000 C 
ATOM     24  C   UNL     1      -0.376  10.190  22.374  0.00  0.00    +0.000 C 
ATOM     25  C   UNL     1      -0.343  10.444  20.868  0.00  0.00    +0.000 C 
ATOM     26  C   UNL     1      -0.039  11.917  20.588  0.00  0.00    +0.000 C 
ATOM     27  C   UNL     1      -1.075  12.824  21.250  0.00  0.00    +0.000 C 
BRANCH  22  28
ATOM     28  C   UNL     1      -2.337  13.464  23.342  0.00  0.00    +0.000 C 
BRANCH  28  30
ATOM     29  C   UNL     1      -2.663  15.071  25.303  0.00  0.00    +0.000 C 
ATOM     30  C   UNL     1      -2.029  14.875  23.921  0.00  0.00    +0.000 C 
ATOM     31  C   UNL     1      -2.377  16.040  22.981  0.00  0.00    +0.000 C 
BRANCH  30  32
ATOM     32  N   UNL     1      -0.565  14.945  24.113  0.00  0.00    +0.000 NA
ATOM     33  H   UNL     1      -0.123  15.261  23.250  0.00  0.00    +0.000 HD
ATOM     34  H   UNL     1      -0.199  14.007  24.282  0.00  0.00    +0.000 HD
ENDBRANCH  30  32
ENDBRANCH  28  30
ENDBRANCH  22  28
ENDBRANCH   1  25
TORSDOF 5
ENDMDL
MODEL 5
REMARK VINA RESULT:      -8.8      1.801      3.028
REMARK  Name = 
REMARK  7 active torsions:
REMARK  status: ('A' for Active; 'I' for Inactive)
REMARK    1  A    between atoms: C_1  and  C_2
REMARK    2  A    between atoms: C_2  and  C_3
REMARK    3  A    between atoms: C_2  and  N_4
REMARK    4  A    between atoms: C_2  and  C_5
REMARK    5  A    between atoms: C_5  and  C_6
REMARK    6  A    between atoms: C_9  and  C_10
REMARK    7  A    between atoms: C_13  and  N_14
REMARK                            x       y       z     vdW  Elec       q    Type
REMARK                         _______ _______ _______ _____ _____    ______ ____
ROOT
ATOM      1  C   UNL     1       1.220   8.447  20.529  0.00  0.00    +0.000 A 
ATOM      2  C   UNL     1       1.205   7.223  21.195  0.00  0.00    +0.000 A 
ATOM      3  C   UNL     1       1.852   6.119  20.646  0.00  0.00    +0.000 A 
ATOM      4  C   UNL     1       2.545   6.195  19.427  0.00  0.00    +0.000 A 
ATOM      5  C   UNL     1       2.542   7.420  18.760  0.00  0.00    +0.000 A 
ATOM      6  C   UNL     1       1.889   8.530  19.303  0.00  0.00    +0.000 A 
ENDROOT
BRANCH   4   7
ATOM      7  N   UNL     1       3.273   5.062  18.962  0.00  0.00    +0.000 N 
ATOM      8  C   UNL     1       2.643   3.763  18.724  0.00  0.00    +0.000 C 
ATOM      9  C   UNL     1       2.745   3.319  17.266  0.00  0.00    +0.000 C 
ATOM     10  O   UNL     1       4.092   2.975  16.939  0.00  0.00    +0.000 OA
ATOM     11  C   UNL     1       4.787   4.084  16.527  0.00  0.00    +0.000 A 
ATOM     12  N   UNL     1       5.165   4.043  15.239  0.00  0.00    +0.000 NA
ATOM     13  C   UNL     1       5.886   5.090  14.822  0.00  0.00    +0.000 A 
ATOM     14  N   UNL     1       6.269   6.134  15.568  0.00  0.00    +0.000 NA
ATOM     15  C   UNL     1       5.885   6.128  16.854  0.00  0.00    +0.000 A 
ATOM     16  N   UNL     1       6.205   7.288  17.566  0.00  0.00    +0.000 N 
ATOM     17  C   UNL     1       5.118   5.104  17.387  0.00  0.00    +0.000 A 
ATOM     18  C   UNL     1       4.658   5.174  18.777  0.00  0.00    +0.000 C 
ATOM     19  O   UNL     1       5.448   5.525  19.647  0.00  0.00    +0.000 OA
ATOM     20  H   UNL     1       6.856   7.856  17.036  0.00  0.00    +0.000 HD
ATOM     21  H   UNL     1       6.505   7.080  18.519  0.00  0.00    +0.000 HD
ENDBRANCH   4   7
BRANCH   1  25
ATOM     22  C   UNL     1      -1.604  11.460  22.077  0.00  0.00    +0.000 C 
ATOM     23  C   UNL     1      -0.836  11.672  20.769  0.00  0.00    +0.000 C 
ATOM     24  C   UNL     1      -0.198  10.423  20.192  0.00  0.00    +0.000 C 
ATOM     25  C   UNL     1       0.632   9.658  21.222  0.00  0.00    +0.000 C 
ATOM     26  C   UNL     1      -0.217   9.345  22.456  0.00  0.00    +0.000 C 
ATOM     27  C   UNL     1      -0.772  10.626  23.077  0.00  0.00    +0.000 C 
BRANCH  22  28
ATOM     28  C   UNL     1      -2.016  12.799  22.751  0.00  0.00    +0.000 C 
BRANCH  28  30
ATOM     29  C   UNL     1      -3.858  14.563  22.917  0.00  0.00    +0.000 C 
ATOM     30  C   UNL     1      -3.518  13.074  23.051  0.00  0.00    +0.000 C 
ATOM     31  C   UNL     1      -4.015  12.510  24.391  0.00  0.00    +0.000 C 
BRANCH  30  32
ATOM     32  N   UNL     1      -4.295  12.368  22.010  0.00  0.00    +0.000 NA
ATOM     33  H   UNL     1      -5.264  12.685  22.035  0.00  0.00    +0.000 HD
ATOM     34  H   UNL     1      -4.326  11.371  22.227  0.00  0.00    +0.000 HD
ENDBRANCH  30  32
ENDBRANCH  28  30
ENDBRANCH  22  28
ENDBRANCH   1  25
TORSDOF 5
ENDMDL
MODEL 6
REMARK VINA RESULT:      -8.7      2.109      3.351
REMARK  Name = 
REMARK  7 active torsions:
REMARK  status: ('A' for Active; 'I' for Inactive)
REMARK    1  A    between atoms: C_1  and  C_2
REMARK    2  A    between atoms: C_2  and  C_3
REMARK    3  A    between atoms: C_2  and  N_4
REMARK    4  A    between atoms: C_2  and  C_5
REMARK    5  A    between atoms: C_5  and  C_6
REMARK    6  A    between atoms: C_9  and  C_10
REMARK    7  A    between atoms: C_13  and  N_14
REMARK                            x       y       z     vdW  Elec       q    Type
REMARK                         _______ _______ _______ _____ _____    ______ ____
ROOT
ATOM      1  C   UNL     1       1.523   8.822  19.373  0.00  0.00    +0.000 A 
ATOM      2  C   UNL     1       1.597   7.804  20.323  0.00  0.00    +0.000 A 
ATOM      3  C   UNL     1       2.281   6.625  20.034  0.00  0.00    +0.000 A 
ATOM      4  C   UNL     1       2.922   6.422  18.801  0.00  0.00    +0.000 A 
ATOM      5  C   UNL     1       2.830   7.440  17.852  0.00  0.00    +0.000 A 
ATOM      6  C   UNL     1       2.139   8.623  18.134  0.00  0.00    +0.000 A 
ENDROOT
BRANCH   4   7
ATOM      7  N   UNL     1       3.691   5.240  18.596  0.00  0.00    +0.000 N 
ATOM      8  C   UNL     1       3.080   3.919  18.446  0.00  0.00    +0.000 C 
ATOM      9  C   UNL     1       3.378   3.286  17.088  0.00  0.00    +0.000 C 
ATOM     10  O   UNL     1       4.752   2.906  17.001  0.00  0.00    +0.000 OA
ATOM     11  C   UNL     1       5.514   3.952  16.549  0.00  0.00    +0.000 A 
ATOM     12  N   UNL     1       6.068   3.742  15.343  0.00  0.00    +0.000 NA
ATOM     13  C   UNL     1       6.855   4.728  14.897  0.00  0.00    +0.000 A 
ATOM     14  N   UNL     1       7.146   5.863  15.544  0.00  0.00    +0.000 NA
ATOM     15  C   UNL     1       6.587   6.026  16.753  0.00  0.00    +0.000 A 
ATOM     16  N   UNL     1       6.822   7.271  17.343  0.00  0.00    +0.000 N 
ATOM     17  C   UNL     1       5.738   5.080  17.304  0.00  0.00    +0.000 A 
ATOM     18  C   UNL     1       5.090   5.331  18.594  0.00  0.00    +0.000 C 
ATOM     19  O   UNL     1       5.755   5.798  19.513  0.00  0.00    +0.000 OA
ATOM     20  H   UNL     1       7.549   7.766  16.840  0.00  0.00    +0.000 HD
ATOM     21  H   UNL     1       6.983   7.193  18.348  0.00  0.00    +0.000 HD
ENDBRANCH   4   7
BRANCH   1  25
ATOM     22  C   UNL     1      -1.392  11.954  20.443  0.00  0.00    +0.000 C 
ATOM     23  C   UNL     1      -0.858  11.804  19.015  0.00  0.00    +0.000 C 
ATOM     24  C   UNL     1      -0.162  10.487  18.728  0.00  0.00    +0.000 C 
ATOM     25  C   UNL     1       0.899  10.142  19.772  0.00  0.00    +0.000 C 
ATOM     26  C   UNL     1       0.286  10.167  21.174  0.00  0.00    +0.000 C 
ATOM     27  C   UNL     1      -0.325  11.534  21.479  0.00  0.00    +0.000 C 
BRANCH  22  28
ATOM     28  C   UNL     1      -1.862  13.402  20.755  0.00  0.00    +0.000 C 
BRANCH  28  30
ATOM     29  C   UNL     1      -3.638  15.161  21.289  0.00  0.00    +0.000 C 
ATOM     30  C   UNL     1      -3.365  13.671  21.055  0.00  0.00    +0.000 C 
ATOM     31  C   UNL     1      -3.952  12.815  22.188  0.00  0.00    +0.000 C 
BRANCH  30  32
ATOM     32  N   UNL     1      -4.115  13.288  19.840  0.00  0.00    +0.000 NA
ATOM     33  H   UNL     1      -5.100  13.529  19.958  0.00  0.00    +0.000 HD
ATOM     34  H   UNL     1      -4.092  12.274  19.731  0.00  0.00    +0.000 HD
ENDBRANCH  30  32
ENDBRANCH  28  30
ENDBRANCH  22  28
ENDBRANCH   1  25
TORSDOF 5
ENDMDL
MODEL 7
REMARK VINA RESULT:      -8.5      2.127      2.720
REMARK  Name = 
REMARK  7 active torsions:
REMARK  status: ('A' for Active; 'I' for Inactive)
REMARK    1  A    between atoms: C_1  and  C_2
REMARK    2  A    between atoms: C_2  and  C_3
REMARK    3  A    between atoms: C_2  and  N_4
REMARK    4  A    between atoms: C_2  and  C_5
REMARK    5  A    between atoms: C_5  and  C_6
REMARK    6  A    between atoms: C_9  and  C_10
REMARK    7  A    between atoms: C_13  and  N_14
REMARK                            x       y       z     vdW  Elec       q    Type
REMARK                         _______ _______ _______ _____ _____    ______ ____
ROOT
ATOM      1  C   UNL     1       1.000   9.626  19.542  0.00  0.00    +0.000 A 
ATOM      2  C   UNL     1       1.419   9.548  18.215  0.00  0.00    +0.000 A 
ATOM      3  C   UNL     1       2.131   8.437  17.769  0.00  0.00    +0.000 A 
ATOM      4  C   UNL     1       2.439   7.363  18.619  0.00  0.00    +0.000 A 
ATOM      5  C   UNL     1       2.029   7.455  19.948  0.00  0.00    +0.000 A 
ATOM      6  C   UNL     1       1.320   8.571  20.404  0.00  0.00    +0.000 A 
ENDROOT
BRANCH   4   7
ATOM      7  N   UNL     1       3.081   6.208  18.086  0.00  0.00    +0.000 N 
ATOM      8  C   UNL     1       4.399   6.260  17.452  0.00  0.00    +0.000 C 
ATOM      9  C   UNL     1       5.436   5.411  18.185  0.00  0.00    +0.000 C 
ATOM     10  O   UNL     1       5.161   4.020  18.010  0.00  0.00    +0.000 OA
ATOM     11  C   UNL     1       4.290   3.576  18.972  0.00  0.00    +0.000 A 
ATOM     12  N   UNL     1       4.825   2.683  19.822  0.00  0.00    +0.000 NA
ATOM     13  C   UNL     1       3.984   2.196  20.742  0.00  0.00    +0.000 A 
ATOM     14  N   UNL     1       2.686   2.500  20.868  0.00  0.00    +0.000 NA
ATOM     15  C   UNL     1       2.187   3.382  19.989  0.00  0.00    +0.000 A 
ATOM     16  N   UNL     1       0.862   3.760  20.226  0.00  0.00    +0.000 N 
ATOM     17  C   UNL     1       2.972   3.966  19.007  0.00  0.00    +0.000 A 
ATOM     18  C   UNL     1       2.404   4.980  18.114  0.00  0.00    +0.000 C 
ATOM     19  O   UNL     1       1.296   4.788  17.625  0.00  0.00    +0.000 OA
ATOM     20  H   UNL     1       0.439   3.143  20.909  0.00  0.00    +0.000 HD
ATOM     21  H   UNL     1       0.332   3.855  19.359  0.00  0.00    +0.000 HD
ENDBRANCH   4   7
BRANCH   1  25
ATOM     22  C   UNL     1      -0.867  13.608  19.861  0.00  0.00    +0.000 C 
ATOM     23  C   UNL     1       0.225  13.150  20.833  0.00  0.00    +0.000 C 
ATOM     24  C   UNL     1       1.010  11.931  20.384  0.00  0.00    +0.000 C 
ATOM     25  C   UNL     1       0.107  10.776  19.955  0.00  0.00    +0.000 C 
ATOM     26  C   UNL     1      -0.876  11.246  18.881  0.00  0.00    +0.000 C 
ATOM     27  C   UNL     1      -1.723  12.412  19.387  0.00  0.00    +0.000 C 
BRANCH  22  28
ATOM     28  C   UNL     1      -1.798  14.689  20.477  0.00  0.00    +0.000 C 
BRANCH  28  30
ATOM     29  C   UNL     1      -0.575  16.377  18.998  0.00  0.00    +0.000 C 
ATOM     30  C   UNL     1      -1.519  16.193  20.192  0.00  0.00    +0.000 C 
ATOM     31  C   UNL     1      -1.034  16.994  21.411  0.00  0.00    +0.000 C 
BRANCH  30  32
ATOM     32  N   UNL     1      -2.811  16.799  19.809  0.00  0.00    +0.000 NA
ATOM     33  H   UNL     1      -3.300  17.116  20.646  0.00  0.00    +0.000 HD
ATOM     34  H   UNL     1      -3.411  16.086  19.392  0.00  0.00    +0.000 HD
ENDBRANCH  30  32
ENDBRANCH  28  30
ENDBRANCH  22  28
ENDBRANCH   1  25
TORSDOF 5
ENDMDL
MODEL 8
REMARK VINA RESULT:      -8.5      2.638      4.097
REMARK  Name = 
REMARK  7 active torsions:
REMARK  status: ('A' for Active; 'I' for Inactive)
REMARK    1  A    between atoms: C_1  and  C_2
REMARK    2  A    between atoms: C_2  and  C_3
REMARK    3  A    between atoms: C_2  and  N_4
REMARK    4  A    between atoms: C_2  and  C_5
REMARK    5  A    between atoms: C_5  and  C_6
REMARK    6  A    between atoms: C_9  and  C_10
REMARK    7  A    between atoms: C_13  and  N_14
REMARK                            x       y       z     vdW  Elec       q    Type
REMARK                         _______ _______ _______ _____ _____    ______ ____
ROOT
ATOM      1  C   UNL     1       1.525   8.999  19.090  0.00  0.00    +0.000 A 
ATOM      2  C   UNL     1       2.229   8.718  17.920  0.00  0.00    +0.000 A 
ATOM      3  C   UNL     1       2.950   7.532  17.804  0.00  0.00    +0.000 A 
ATOM      4  C   UNL     1       2.988   6.583  18.838  0.00  0.00    +0.000 A 
ATOM      5  C   UNL     1       2.293   6.879  20.010  0.00  0.00    +0.000 A 
ATOM      6  C   UNL     1       1.572   8.070  20.135  0.00  0.00    +0.000 A 
ENDROOT
BRANCH   4   7
ATOM      7  N   UNL     1       3.659   5.344  18.628  0.00  0.00    +0.000 N 
ATOM      8  C   UNL     1       2.943   4.083  18.429  0.00  0.00    +0.000 C 
ATOM      9  C   UNL     1       3.228   3.455  17.066  0.00  0.00    +0.000 C 
ATOM     10  O   UNL     1       4.567   2.961  17.010  0.00  0.00    +0.000 OA
ATOM     11  C   UNL     1       5.429   3.947  16.605  0.00  0.00    +0.000 A 
ATOM     12  N   UNL     1       6.000   3.715  15.411  0.00  0.00    +0.000 NA
ATOM     13  C   UNL     1       6.882   4.638  15.012  0.00  0.00    +0.000 A 
ATOM     14  N   UNL     1       7.249   5.730  15.694  0.00  0.00    +0.000 NA
ATOM     15  C   UNL     1       6.668   5.916  16.889  0.00  0.00    +0.000 A 
ATOM     16  N   UNL     1       6.989   7.123  17.515  0.00  0.00    +0.000 N 
ATOM     17  C   UNL     1       5.724   5.034  17.393  0.00  0.00    +0.000 A 
ATOM     18  C   UNL     1       5.060   5.314  18.669  0.00  0.00    +0.000 C 
ATOM     19  O   UNL     1       5.734   5.703  19.617  0.00  0.00    +0.000 OA
ATOM     20  H   UNL     1       7.771   7.564  17.045  0.00  0.00    +0.000 HD
ATOM     21  H   UNL     1       7.112   7.010  18.522  0.00  0.00    +0.000 HD
ENDBRANCH   4   7
BRANCH   1  25
ATOM     22  C   UNL     1      -0.246  12.891  20.169  0.00  0.00    +0.000 C 
ATOM     23  C   UNL     1      -0.803  11.572  20.717  0.00  0.00    +0.000 C 
ATOM     24  C   UNL     1       0.115  10.375  20.554  0.00  0.00    +0.000 C 
ATOM     25  C   UNL     1       0.636  10.224  19.126  0.00  0.00    +0.000 C 
ATOM     26  C   UNL     1       1.308  11.521  18.670  0.00  0.00    +0.000 C 
ATOM     27  C   UNL     1       0.338  12.698  18.752  0.00  0.00    +0.000 C 
BRANCH  22  28
ATOM     28  C   UNL     1      -1.315  14.019  20.131  0.00  0.00    +0.000 C 
BRANCH  28  30
ATOM     29  C   UNL     1       0.563  15.606  20.827  0.00  0.00    +0.000 C 
ATOM     30  C   UNL     1      -0.871  15.501  20.295  0.00  0.00    +0.000 C 
ATOM     31  C   UNL     1      -1.833  16.368  21.121  0.00  0.00    +0.000 C 
BRANCH  30  32
ATOM     32  N   UNL     1      -0.865  16.094  18.941  0.00  0.00    +0.000 NA
ATOM     33  H   UNL     1      -1.769  16.530  18.757  0.00  0.00    +0.000 HD
ATOM     34  H   UNL     1      -0.770  15.353  18.245  0.00  0.00    +0.000 HD
ENDBRANCH  30  32
ENDBRANCH  28  30
ENDBRANCH  22  28
ENDBRANCH   1  25
TORSDOF 5
ENDMDL
MODEL 9
REMARK VINA RESULT:      -8.3      1.227      1.882
REMARK  Name = 
REMARK  7 active torsions:
REMARK  status: ('A' for Active; 'I' for Inactive)
REMARK    1  A    between atoms: C_1  and  C_2
REMARK    2  A    between atoms: C_2  and  C_3
REMARK    3  A    between atoms: C_2  and  N_4
REMARK    4  A    between atoms: C_2  and  C_5
REMARK    5  A    between atoms: C_5  and  C_6
REMARK    6  A    between atoms: C_9  and  C_10
REMARK    7  A    between atoms: C_13  and  N_14
REMARK                            x       y       z     vdW  Elec       q    Type
REMARK                         _______ _______ _______ _____ _____    ______ ____
ROOT
ATOM      1  C   UNL     1       1.039   9.683  19.328  0.00  0.00    +0.000 A 
ATOM      2  C   UNL     1       1.523   9.548  18.027  0.00  0.00    +0.000 A 
ATOM      3  C   UNL     1       2.245   8.414  17.663  0.00  0.00    +0.000 A 
ATOM      4  C   UNL     1       2.501   7.374  18.570  0.00  0.00    +0.000 A 
ATOM      5  C   UNL     1       2.027   7.524  19.872  0.00  0.00    +0.000 A 
ATOM      6  C   UNL     1       1.306   8.662  20.246  0.00  0.00    +0.000 A 
ENDROOT
BRANCH   4   7
ATOM      7  N   UNL     1       3.158   6.194  18.116  0.00  0.00    +0.000 N 
ATOM      8  C   UNL     1       4.519   6.206  17.579  0.00  0.00    +0.000 C 
ATOM      9  C   UNL     1       5.485   5.361  18.407  0.00  0.00    +0.000 C 
ATOM     10  O   UNL     1       5.198   3.971  18.252  0.00  0.00    +0.000 OA
ATOM     11  C   UNL     1       4.252   3.569  19.160  0.00  0.00    +0.000 A 
ATOM     12  N   UNL     1       4.708   2.693  20.070  0.00  0.00    +0.000 NA
ATOM     13  C   UNL     1       3.795   2.246  20.941  0.00  0.00    +0.000 A 
ATOM     14  N   UNL     1       2.497   2.575  20.964  0.00  0.00    +0.000 NA
ATOM     15  C   UNL     1       2.079   3.439  20.027  0.00  0.00    +0.000 A 
ATOM     16  N   UNL     1       0.748   3.845  20.157  0.00  0.00    +0.000 N 
ATOM     17  C   UNL     1       2.942   3.981  19.089  0.00  0.00    +0.000 A 
ATOM     18  C   UNL     1       2.459   4.979  18.130  0.00  0.00    +0.000 C 
ATOM     19  O   UNL     1       1.385   4.791  17.567  0.00  0.00    +0.000 OA
ATOM     20  H   UNL     1       0.265   3.255  20.825  0.00  0.00    +0.000 HD
ATOM     21  H   UNL     1       0.282   3.924  19.252  0.00  0.00    +0.000 HD
ENDBRANCH   4   7
BRANCH   1  25
ATOM     22  C   UNL     1      -0.810  13.156  21.318  0.00  0.00    +0.000 C 
ATOM     23  C   UNL     1      -1.372  11.740  21.482  0.00  0.00    +0.000 C 
ATOM     24  C   UNL     1      -0.436  10.628  21.047  0.00  0.00    +0.000 C 
ATOM     25  C   UNL     1       0.137  10.855  19.649  0.00  0.00    +0.000 C 
ATOM     26  C   UNL     1       0.811  12.227  19.573  0.00  0.00    +0.000 C 
ATOM     27  C   UNL     1      -0.174  13.340  19.922  0.00  0.00    +0.000 C 
BRANCH  22  28
ATOM     28  C   UNL     1      -1.889  14.254  21.536  0.00  0.00    +0.000 C 
BRANCH  28  30
ATOM     29  C   UNL     1      -1.195  14.519  23.981  0.00  0.00    +0.000 C 
ATOM     30  C   UNL     1      -2.354  14.595  22.981  0.00  0.00    +0.000 C 
ATOM     31  C   UNL     1      -3.563  13.782  23.470  0.00  0.00    +0.000 C 
BRANCH  30  32
ATOM     32  N   UNL     1      -2.806  16.002  22.960  0.00  0.00    +0.000 NA
ATOM     33  H   UNL     1      -3.746  16.064  23.352  0.00  0.00    +0.000 HD
ATOM     34  H   UNL     1      -2.889  16.319  21.994  0.00  0.00    +0.000 HD
ENDBRANCH  30  32
ENDBRANCH  28  30
ENDBRANCH  22  28
ENDBRANCH   1  25
TORSDOF 5
ENDMDL
