MODEL 1
REMARK VINA RESULT:      -9.5      0.000      0.000
REMARK  Name = 
REMARK  10 active torsions:
REMARK  status: ('A' for Active; 'I' for Inactive)
REMARK    1  A    between atoms: C_1  and  C_2
REMARK    2  A    between atoms: C_2  and  C_30
REMARK    3  A    between atoms: N_3  and  O_4
REMARK    4  A    between atoms: O_4  and  C_5
REMARK    5  A    between atoms: C_5  and  C_6
REMARK    6  A    between atoms: C_5  and  C_24
REMARK    7  A    between atoms: C_9  and  O_10
REMARK    8  A    between atoms: O_10  and  C_11
REMARK    9  A    between atoms: C_11  and  C_12
REMARK   10  A    between atoms: C_30  and  O_32
REMARK                            x       y       z     vdW  Elec       q    Type
REMARK                         _______ _______ _______ _____ _____    ______ ____
ROOT
ATOM      1  C   UNL     1       3.458   5.955  18.908  0.00  0.00    +0.000 A 
ATOM      2  C   UNL     1       2.565   6.442  19.874  0.00  0.00    +0.000 A 
ATOM      3  C   UNL     1       1.970   7.706  19.765  0.00  0.00    +0.000 A 
ATOM      4  C   UNL     1       2.178   8.478  18.631  0.00  0.00    +0.000 A 
ATOM      5  C   UNL     1       2.958   7.956  17.597  0.00  0.00    +0.000 A 
ATOM      6  C   UNL     1       3.612   6.721  17.739  0.00  0.00    +0.000 A 
ENDROOT
BRANCH   1   7
ATOM      7  C   UNL     1       4.280   4.670  19.105  0.00  0.00    +0.000 C 
BRANCH   7   8
ATOM      8  C   UNL     1       3.737   3.338  18.481  0.00  0.00    +0.000 C 
ATOM      9  C   UNL     1       3.315   2.289  19.542  0.00  0.00    +0.000 C 
ATOM     10  C   UNL     1       1.932   2.523  20.156  0.00  0.00    +0.000 C 
ATOM     11  C   UNL     1       0.845   2.742  19.109  0.00  0.00    +0.000 C 
ATOM     12  C   UNL     1       1.239   3.837  18.133  0.00  0.00    +0.000 C 
ATOM     13  C   UNL     1       2.572   3.510  17.478  0.00  0.00    +0.000 C 
ENDBRANCH   7   8
BRANCH   7  14
ATOM     14  O   UNL     1       5.654   4.910  18.690  0.00  0.00    +0.000 OA
BRANCH  14  17
ATOM     15  C   UNL     1       7.319   6.466  17.152  0.00  0.00    +0.000 C 
ATOM     16  C   UNL     1       6.695   5.171  16.717  0.00  0.00    +0.000 C 
ATOM     17  N   UNL     1       5.905   4.392  17.404  0.00  0.00    +0.000 NA
BRANCH  16  18
ATOM     18  C   UNL     1       6.985   4.733  15.279  0.00  0.00    +0.000 C 
ATOM     19  O   UNL     1       6.467   3.764  14.764  0.00  0.00    +0.000 OA
BRANCH  18  20
ATOM     20  O   UNL     1       7.869   5.560  14.694  0.00  0.00    +0.000 OA
ATOM     21  H   UNL     1       8.776   5.247  14.912  0.00  0.00    +0.000 HD
ENDBRANCH  18  20
ENDBRANCH  16  18
ENDBRANCH  14  17
ENDBRANCH   7  14
ENDBRANCH   1   7
BRANCH   4  22
ATOM     22  O   UNL     1       1.654   9.721  18.419  0.00  0.00    +0.000 OA
BRANCH  22  23
ATOM     23  C   UNL     1       0.958  10.344  19.510  0.00  0.00    +0.000 C 
BRANCH  23  24
ATOM     24  C   UNL     1      -0.462  10.661  19.105  0.00  0.00    +0.000 C 
ATOM     25  C   UNL     1      -1.273  11.477  19.800  0.00  0.00    +0.000 C 
ATOM     26  O   UNL     1      -2.579  11.735  19.465  0.00  0.00    +0.000 OA
ATOM     27  C   UNL     1      -2.972  11.267  18.235  0.00  0.00    +0.000 A 
ATOM     28  C   UNL     1      -4.219  11.660  17.767  0.00  0.00    +0.000 A 
ATOM     29  C   UNL     1      -4.594  11.331  16.465  0.00  0.00    +0.000 A 
ATOM     30  C   UNL     1      -3.730  10.589  15.654  0.00  0.00    +0.000 A 
ATOM     31  C   UNL     1      -2.504  10.137  16.153  0.00  0.00    +0.000 A 
ATOM     32  C   UNL     1      -2.123  10.479  17.450  0.00  0.00    +0.000 A 
ATOM     33  O   UNL     1      -0.894  10.063  17.917  0.00  0.00    +0.000 OA
ENDBRANCH  23  24
ENDBRANCH  22  23
ENDBRANCH   4  22
TORSDOF 9
ENDMDL
MODEL 2
REMARK VINA RESULT:      -9.3      1.175      1.918
REMARK  Name = 
REMARK  10 active torsions:
REMARK  status: ('A' for Active; 'I' for Inactive)
REMARK    1  A    between atoms: C_1  and  C_2
REMARK    2  A    between atoms: C_2  and  C_30
REMARK    3  A    between atoms: N_3  and  O_4
REMARK    4  A    between atoms: O_4  and  C_5
REMARK    5  A    between atoms: C_5  and  C_6
REMARK    6  A    between atoms: C_5  and  C_24
REMARK    7  A    between atoms: C_9  and  O_10
REMARK    8  A    between atoms: O_10  and  C_11
REMARK    9  A    between atoms: C_11  and  C_12
REMARK   10  A    between atoms: C_30  and  O_32
REMARK                            x       y       z     vdW  Elec       q    Type
REMARK                         _______ _______ _______ _____ _____    ______ ____
ROOT
ATOM      1  C   UNL     1       2.879   6.648  19.346  0.00  0.00    +0.000 A 
ATOM      2  C   UNL     1       2.032   7.286  20.264  0.00  0.00    +0.000 A 
ATOM      3  C   UNL     1       1.417   8.512  19.979  0.00  0.00    +0.000 A 
ATOM      4  C   UNL     1       1.557   9.085  18.723  0.00  0.00    +0.000 A 
ATOM      5  C   UNL     1       2.287   8.401  17.749  0.00  0.00    +0.000 A 
ATOM      6  C   UNL     1       2.963   7.209  18.059  0.00  0.00    +0.000 A 
ENDROOT
BRANCH   1   7
ATOM      7  C   UNL     1       3.726   5.416  19.708  0.00  0.00    +0.000 C 
BRANCH   7   8
ATOM      8  C   UNL     1       3.247   4.011  19.202  0.00  0.00    +0.000 C 
ATOM      9  C   UNL     1       3.621   2.851  20.160  0.00  0.00    +0.000 C 
ATOM     10  C   UNL     1       2.690   2.694  21.366  0.00  0.00    +0.000 C 
ATOM     11  C   UNL     1       1.215   2.658  20.978  0.00  0.00    +0.000 C 
ATOM     12  C   UNL     1       0.849   3.851  20.113  0.00  0.00    +0.000 C 
ATOM     13  C   UNL     1       1.738   3.908  18.881  0.00  0.00    +0.000 C 
ENDBRANCH   7   8
BRANCH   7  14
ATOM     14  O   UNL     1       5.110   5.655  19.330  0.00  0.00    +0.000 OA
BRANCH  14  17
ATOM     15  C   UNL     1       6.707   6.771  17.390  0.00  0.00    +0.000 C 
ATOM     16  C   UNL     1       6.290   5.329  17.447  0.00  0.00    +0.000 C 
ATOM     17  N   UNL     1       5.542   4.747  18.344  0.00  0.00    +0.000 NA
BRANCH  16  18
ATOM     18  C   UNL     1       6.766   4.444  16.292  0.00  0.00    +0.000 C 
ATOM     19  O   UNL     1       7.777   4.667  15.659  0.00  0.00    +0.000 OA
BRANCH  18  20
ATOM     20  O   UNL     1       5.921   3.416  16.096  0.00  0.00    +0.000 OA
ATOM     21  H   UNL     1       5.139   3.543  16.679  0.00  0.00    +0.000 HD
ENDBRANCH  18  20
ENDBRANCH  16  18
ENDBRANCH  14  17
ENDBRANCH   7  14
ENDBRANCH   1   7
BRANCH   4  22
ATOM     22  O   UNL     1       1.007  10.274  18.336  0.00  0.00    +0.000 OA
BRANCH  22  23
ATOM     23  C   UNL     1       0.107  10.920  19.251  0.00  0.00    +0.000 C 
BRANCH  23  24
ATOM     24  C   UNL     1      -1.255  11.072  18.617  0.00  0.00    +0.000 C 
ATOM     25  C   UNL     1      -1.614  10.476  17.467  0.00  0.00    +0.000 C 
ATOM     26  O   UNL     1      -2.832  10.643  16.859  0.00  0.00    +0.000 OA
ATOM     27  C   UNL     1      -3.774  11.308  17.606  0.00  0.00    +0.000 A 
ATOM     28  C   UNL     1      -5.074  11.342  17.119  0.00  0.00    +0.000 A 
ATOM     29  C   UNL     1      -6.087  11.876  17.913  0.00  0.00    +0.000 A 
ATOM     30  C   UNL     1      -5.786  12.396  19.176  0.00  0.00    +0.000 A 
ATOM     31  C   UNL     1      -4.464  12.422  19.634  0.00  0.00    +0.000 A 
ATOM     32  C   UNL     1      -3.454  11.875  18.844  0.00  0.00    +0.000 A 
ATOM     33  O   UNL     1      -2.161  11.869  19.324  0.00  0.00    +0.000 OA
ENDBRANCH  23  24
ENDBRANCH  22  23
ENDBRANCH   4  22
TORSDOF 9
ENDMDL
MODEL 3
REMARK VINA RESULT:      -9.3      1.034      1.735
REMARK  Name = 
REMARK  10 active torsions:
REMARK  status: ('A' for Active; 'I' for Inactive)
REMARK    1  A    between atoms: C_1  and  C_2
REMARK    2  A    between atoms: C_2  and  C_30
REMARK    3  A    between atoms: N_3  and  O_4
REMARK    4  A    between atoms: O_4  and  C_5
REMARK    5  A    between atoms: C_5  and  C_6
REMARK    6  A    between atoms: C_5  and  C_24
REMARK    7  A    between atoms: C_9  and  O_10
REMARK    8  A    between atoms: O_10  and  C_11
REMARK    9  A    between atoms: C_11  and  C_12
REMARK   10  A    between atoms: C_30  and  O_32
REMARK                            x       y       z     vdW  Elec       q    Type
REMARK                         _______ _______ _______ _____ _____    ______ ____
ROOT
ATOM      1  C   UNL     1       2.971   6.675  18.671  0.00  0.00    +0.000 A 
ATOM      2  C   UNL     1       2.271   6.947  19.855  0.00  0.00    +0.000 A 
ATOM      3  C   UNL     1       1.639   8.177  20.078  0.00  0.00    +0.000 A 
ATOM      4  C   UNL     1       1.608   9.136  19.075  0.00  0.00    +0.000 A 
ATOM      5  C   UNL     1       2.185   8.835  17.840  0.00  0.00    +0.000 A 
ATOM      6  C   UNL     1       2.881   7.630  17.643  0.00  0.00    +0.000 A 
ENDROOT
BRANCH   1   7
ATOM      7  C   UNL     1       3.843   5.422  18.486  0.00  0.00    +0.000 C 
BRANCH   7   8
ATOM      8  C   UNL     1       3.290   4.257  17.594  0.00  0.00    +0.000 C 
ATOM      9  C   UNL     1       3.889   2.872  17.949  0.00  0.00    +0.000 C 
ATOM     10  C   UNL     1       3.251   2.194  19.166  0.00  0.00    +0.000 C 
ATOM     11  C   UNL     1       1.728   2.155  19.094  0.00  0.00    +0.000 C 
ATOM     12  C   UNL     1       1.157   3.537  18.835  0.00  0.00    +0.000 C 
ATOM     13  C   UNL     1       1.749   4.127  17.565  0.00  0.00    +0.000 C 
ENDBRANCH   7   8
BRANCH   7  14
ATOM     14  O   UNL     1       5.172   5.820  18.047  0.00  0.00    +0.000 OA
BRANCH  14  17
ATOM     15  C   UNL     1       7.575   4.597  17.512  0.00  0.00    +0.000 C 
ATOM     16  C   UNL     1       6.535   4.949  16.488  0.00  0.00    +0.000 C 
ATOM     17  N   UNL     1       5.379   5.522  16.686  0.00  0.00    +0.000 NA
BRANCH  16  18
ATOM     18  C   UNL     1       6.889   4.638  15.032  0.00  0.00    +0.000 C 
ATOM     19  O   UNL     1       6.381   3.731  14.405  0.00  0.00    +0.000 OA
BRANCH  18  20
ATOM     20  O   UNL     1       7.817   5.494  14.570  0.00  0.00    +0.000 OA
ATOM     21  H   UNL     1       8.563   5.518  15.211  0.00  0.00    +0.000 HD
ENDBRANCH  18  20
ENDBRANCH  16  18
ENDBRANCH  14  17
ENDBRANCH   7  14
ENDBRANCH   1   7
BRANCH   4  22
ATOM     22  O   UNL     1       1.027  10.367  19.182  0.00  0.00    +0.000 OA
BRANCH  22  23
ATOM     23  C   UNL     1      -0.189  10.465  19.942  0.00  0.00    +0.000 C 
BRANCH  23  24
ATOM     24  C   UNL     1      -1.341  10.820  19.033  0.00  0.00    +0.000 C 
ATOM     25  C   UNL     1      -1.450  10.390  17.764  0.00  0.00    +0.000 C 
ATOM     26  O   UNL     1      -2.469  10.743  16.915  0.00  0.00    +0.000 OA
ATOM     27  C   UNL     1      -3.514  11.415  17.501  0.00  0.00    +0.000 A 
ATOM     28  C   UNL     1      -4.650  11.632  16.733  0.00  0.00    +0.000 A 
ATOM     29  C   UNL     1      -5.785  12.177  17.331  0.00  0.00    +0.000 A 
ATOM     30  C   UNL     1      -5.764  12.525  18.686  0.00  0.00    +0.000 A 
ATOM     31  C   UNL     1      -4.596  12.369  19.438  0.00  0.00    +0.000 A 
ATOM     32  C   UNL     1      -3.465  11.811  18.842  0.00  0.00    +0.000 A 
ATOM     33  O   UNL     1      -2.332  11.623  19.605  0.00  0.00    +0.000 OA
ENDBRANCH  23  24
ENDBRANCH  22  23
ENDBRANCH   4  22
TORSDOF 9
ENDMDL
MODEL 4
REMARK VINA RESULT:      -9.1      1.804      2.895
REMARK  Name = 
REMARK  10 active torsions:
REMARK  status: ('A' for Active; 'I' for Inactive)
REMARK    1  A    between atoms: C_1  and  C_2
REMARK    2  A    between atoms: C_2  and  C_30
REMARK    3  A    between atoms: N_3  and  O_4
REMARK    4  A    between atoms: O_4  and  C_5
REMARK    5  A    between atoms: C_5  and  C_6
REMARK    6  A    between atoms: C_5  and  C_24
REMARK    7  A    between atoms: C_9  and  O_10
REMARK    8  A    between atoms: O_10  and  C_11
REMARK    9  A    between atoms: C_11  and  C_12
REMARK   10  A    between atoms: C_30  and  O_32
REMARK                            x       y       z     vdW  Elec       q    Type
REMARK                         _______ _______ _______ _____ _____    ______ ____
ROOT
ATOM      1  C   UNL     1       2.802   6.728  19.314  0.00  0.00    +0.000 A 
ATOM      2  C   UNL     1       1.980   7.347  20.266  0.00  0.00    +0.000 A 
ATOM      3  C   UNL     1       1.370   8.585  20.028  0.00  0.00    +0.000 A 
ATOM      4  C   UNL     1       1.489   9.192  18.786  0.00  0.00    +0.000 A 
ATOM      5  C   UNL     1       2.193   8.530  17.779  0.00  0.00    +0.000 A 
ATOM      6  C   UNL     1       2.865   7.324  18.042  0.00  0.00    +0.000 A 
ENDROOT
BRANCH   1   7
ATOM      7  C   UNL     1       3.645   5.480  19.625  0.00  0.00    +0.000 C 
BRANCH   7   8
ATOM      8  C   UNL     1       3.126   4.089  19.122  0.00  0.00    +0.000 C 
ATOM      9  C   UNL     1       3.596   2.901  20.000  0.00  0.00    +0.000 C 
ATOM     10  C   UNL     1       2.786   2.698  21.285  0.00  0.00    +0.000 C 
ATOM     11  C   UNL     1       1.281   2.664  21.040  0.00  0.00    +0.000 C 
ATOM     12  C   UNL     1       0.827   3.882  20.255  0.00  0.00    +0.000 C 
ATOM     13  C   UNL     1       1.593   3.984  18.945  0.00  0.00    +0.000 C 
ENDBRANCH   7   8
BRANCH   7  14
ATOM     14  O   UNL     1       5.016   5.705  19.192  0.00  0.00    +0.000 OA
BRANCH  14  17
ATOM     15  C   UNL     1       7.430   6.376  18.061  0.00  0.00    +0.000 C 
ATOM     16  C   UNL     1       6.447   5.395  17.489  0.00  0.00    +0.000 C 
ATOM     17  N   UNL     1       5.294   5.035  17.984  0.00  0.00    +0.000 NA
BRANCH  16  18
ATOM     18  C   UNL     1       6.822   4.773  16.142  0.00  0.00    +0.000 C 
ATOM     19  O   UNL     1       7.538   5.326  15.332  0.00  0.00    +0.000 OA
BRANCH  18  20
ATOM     20  O   UNL     1       6.258   3.560  15.999  0.00  0.00    +0.000 OA
ATOM     21  H   UNL     1       6.955   2.878  16.129  0.00  0.00    +0.000 HD
ENDBRANCH  18  20
ENDBRANCH  16  18
ENDBRANCH  14  17
ENDBRANCH   7  14
ENDBRANCH   1   7
BRANCH   4  22
ATOM     22  O   UNL     1       0.942  10.396  18.443  0.00  0.00    +0.000 OA
BRANCH  22  23
ATOM     23  C   UNL     1       1.088  11.482  19.373  0.00  0.00    +0.000 C 
BRANCH  23  24
ATOM     24  C   UNL     1      -0.269  11.927  19.866  0.00  0.00    +0.000 C 
ATOM     25  C   UNL     1      -1.322  12.142  19.059  0.00  0.00    +0.000 C 
ATOM     26  O   UNL     1      -2.546  12.590  19.491  0.00  0.00    +0.000 OA
ATOM     27  C   UNL     1      -2.712  12.616  20.854  0.00  0.00    +0.000 A 
ATOM     28  C   UNL     1      -3.986  12.881  21.341  0.00  0.00    +0.000 A 
ATOM     29  C   UNL     1      -4.230  12.771  22.709  0.00  0.00    +0.000 A 
ATOM     30  C   UNL     1      -3.193  12.425  23.580  0.00  0.00    +0.000 A 
ATOM     31  C   UNL     1      -1.897  12.226  23.093  0.00  0.00    +0.000 A 
ATOM     32  C   UNL     1      -1.656  12.322  21.723  0.00  0.00    +0.000 A 
ATOM     33  O   UNL     1      -0.383  12.083  21.251  0.00  0.00    +0.000 OA
ENDBRANCH  23  24
ENDBRANCH  22  23
ENDBRANCH   4  22
TORSDOF 9
ENDMDL
MODEL 5
REMARK VINA RESULT:      -9.1      1.003      1.782
REMARK  Name = 
REMARK  10 active torsions:
REMARK  status: ('A' for Active; 'I' for Inactive)
REMARK    1  A    between atoms: C_1  and  C_2
REMARK    2  A    between atoms: C_2  and  C_30
REMARK    3  A    between atoms: N_3  and  O_4
REMARK    4  A    between atoms: O_4  and  C_5
REMARK    5  A    between atoms: C_5  and  C_6
REMARK    6  A    between atoms: C_5  and  C_24
REMARK    7  A    between atoms: C_9  and  O_10
REMARK    8  A    between atoms: O_10  and  C_11
REMARK    9  A    between atoms: C_11  and  C_12
REMARK   10  A    between atoms: C_30  and  O_32
REMARK                            x       y       z     vdW  Elec       q    Type
REMARK                         _______ _______ _______ _____ _____    ______ ____
ROOT
ATOM      1  C   UNL     1       3.305   5.734  19.145  0.00  0.00    +0.000 A 
ATOM      2  C   UNL     1       2.457   5.926  20.246  0.00  0.00    +0.000 A 
ATOM      3  C   UNL     1       1.763   7.126  20.448  0.00  0.00    +0.000 A 
ATOM      4  C   UNL     1       1.823   8.134  19.496  0.00  0.00    +0.000 A 
ATOM      5  C   UNL     1       2.556   7.912  18.328  0.00  0.00    +0.000 A 
ATOM      6  C   UNL     1       3.309   6.738  18.161  0.00  0.00    +0.000 A 
ENDROOT
BRANCH   1   7
ATOM      7  C   UNL     1       4.233   4.515  19.010  0.00  0.00    +0.000 C 
BRANCH   7   8
ATOM      8  C   UNL     1       3.730   3.288  18.173  0.00  0.00    +0.000 C 
ATOM      9  C   UNL     1       3.391   2.049  19.041  0.00  0.00    +0.000 C 
ATOM     10  C   UNL     1       2.019   2.102  19.720  0.00  0.00    +0.000 C 
ATOM     11  C   UNL     1       0.890   2.447  18.754  0.00  0.00    +0.000 C 
ATOM     12  C   UNL     1       1.203   3.714  17.978  0.00  0.00    +0.000 C 
ATOM     13  C   UNL     1       2.527   3.575  17.245  0.00  0.00    +0.000 C 
ENDBRANCH   7   8
BRANCH   7  14
ATOM     14  O   UNL     1       5.539   4.955  18.545  0.00  0.00    +0.000 OA
BRANCH  14  17
ATOM     15  C   UNL     1       7.231   6.513  17.038  0.00  0.00    +0.000 C 
ATOM     16  C   UNL     1       6.647   5.199  16.606  0.00  0.00    +0.000 C 
ATOM     17  N   UNL     1       5.847   4.417  17.280  0.00  0.00    +0.000 NA
BRANCH  16  18
ATOM     18  C   UNL     1       6.997   4.738  15.189  0.00  0.00    +0.000 C 
ATOM     19  O   UNL     1       7.704   5.380  14.439  0.00  0.00    +0.000 OA
BRANCH  18  20
ATOM     20  O   UNL     1       6.423   3.554  14.912  0.00  0.00    +0.000 OA
ATOM     21  H   UNL     1       6.982   3.086  14.252  0.00  0.00    +0.000 HD
ENDBRANCH  18  20
ENDBRANCH  16  18
ENDBRANCH  14  17
ENDBRANCH   7  14
ENDBRANCH   1   7
BRANCH   4  22
ATOM     22  O   UNL     1       1.193   9.342  19.589  0.00  0.00    +0.000 OA
BRANCH  22  23
ATOM     23  C   UNL     1       0.964  10.069  18.370  0.00  0.00    +0.000 C 
BRANCH  23  24
ATOM     24  C   UNL     1      -0.482  10.497  18.288  0.00  0.00    +0.000 C 
ATOM     25  C   UNL     1      -1.384   9.927  17.470  0.00  0.00    +0.000 C 
ATOM     26  O   UNL     1      -2.688  10.338  17.355  0.00  0.00    +0.000 OA
ATOM     27  C   UNL     1      -3.098  11.258  18.289  0.00  0.00    +0.000 A 
ATOM     28  C   UNL     1      -4.451  11.567  18.335  0.00  0.00    +0.000 A 
ATOM     29  C   UNL     1      -4.930  12.380  19.361  0.00  0.00    +0.000 A 
ATOM     30  C   UNL     1      -4.048  12.898  20.315  0.00  0.00    +0.000 A 
ATOM     31  C   UNL     1      -2.677  12.640  20.224  0.00  0.00    +0.000 A 
ATOM     32  C   UNL     1      -2.200  11.815  19.206  0.00  0.00    +0.000 A 
ATOM     33  O   UNL     1      -0.851  11.533  19.151  0.00  0.00    +0.000 OA
ENDBRANCH  23  24
ENDBRANCH  22  23
ENDBRANCH   4  22
TORSDOF 9
ENDMDL
MODEL 6
REMARK VINA RESULT:      -9.1      1.584      2.764
REMARK  Name = 
REMARK  10 active torsions:
REMARK  status: ('A' for Active; 'I' for Inactive)
REMARK    1  A    between atoms: C_1  and  C_2
REMARK    2  A    between atoms: C_2  and  C_30
REMARK    3  A    between atoms: N_3  and  O_4
REMARK    4  A    between atoms: O_4  and  C_5
REMARK    5  A    between atoms: C_5  and  C_6
REMARK    6  A    between atoms: C_5  and  C_24
REMARK    7  A    between atoms: C_9  and  O_10
REMARK    8  A    between atoms: O_10  and  C_11
REMARK    9  A    between atoms: C_11  and  C_12
REMARK   10  A    between atoms: C_30  and  O_32
REMARK                            x       y       z     vdW  Elec       q    Type
REMARK                         _______ _______ _______ _____ _____    ______ ____
ROOT
ATOM      1  C   UNL     1       2.337   7.168  18.886  0.00  0.00    +0.000 A 
ATOM      2  C   UNL     1       2.224   8.143  17.885  0.00  0.00    +0.000 A 
ATOM      3  C   UNL     1       1.526   9.341  18.090  0.00  0.00    +0.000 A 
ATOM      4  C   UNL     1       1.003   9.636  19.342  0.00  0.00    +0.000 A 
ATOM      5  C   UNL     1       1.219   8.737  20.389  0.00  0.00    +0.000 A 
ATOM      6  C   UNL     1       1.856   7.505  20.162  0.00  0.00    +0.000 A 
ENDROOT
BRANCH   1   7
ATOM      7  C   UNL     1       2.914   5.766  18.623  0.00  0.00    +0.000 C 
BRANCH   7   8
ATOM      8  C   UNL     1       1.941   4.645  18.119  0.00  0.00    +0.000 C 
ATOM      9  C   UNL     1       2.623   3.610  17.189  0.00  0.00    +0.000 C 
ATOM     10  C   UNL     1       3.430   2.531  17.918  0.00  0.00    +0.000 C 
ATOM     11  C   UNL     1       2.645   1.858  19.040  0.00  0.00    +0.000 C 
ATOM     12  C   UNL     1       2.060   2.887  19.991  0.00  0.00    +0.000 C 
ATOM     13  C   UNL     1       1.191   3.877  19.232  0.00  0.00    +0.000 C 
ENDBRANCH   7   8
BRANCH   7  14
ATOM     14  O   UNL     1       4.069   5.878  17.745  0.00  0.00    +0.000 OA
BRANCH  14  17
ATOM     15  C   UNL     1       6.260   5.529  16.121  0.00  0.00    +0.000 C 
ATOM     16  C   UNL     1       6.276   5.483  17.622  0.00  0.00    +0.000 C 
ATOM     17  N   UNL     1       5.272   5.648  18.440  0.00  0.00    +0.000 NA
BRANCH  16  18
ATOM     18  C   UNL     1       7.625   5.164  18.272  0.00  0.00    +0.000 C 
ATOM     19  O   UNL     1       8.084   5.803  19.196  0.00  0.00    +0.000 OA
BRANCH  18  20
ATOM     20  O   UNL     1       8.203   4.103  17.682  0.00  0.00    +0.000 OA
ATOM     21  H   UNL     1       8.809   3.680  18.331  0.00  0.00    +0.000 HD
ENDBRANCH  18  20
ENDBRANCH  16  18
ENDBRANCH  14  17
ENDBRANCH   7  14
ENDBRANCH   1   7
BRANCH   4  22
ATOM     22  O   UNL     1       0.304  10.766  19.655  0.00  0.00    +0.000 OA
BRANCH  22  23
ATOM     23  C   UNL     1      -0.076  11.634  18.575  0.00  0.00    +0.000 C 
BRANCH  23  24
ATOM     24  C   UNL     1      -1.565  11.544  18.339  0.00  0.00    +0.000 C 
ATOM     25  C   UNL     1      -2.123  10.820  17.353  0.00  0.00    +0.000 C 
ATOM     26  O   UNL     1      -3.471  10.768  17.102  0.00  0.00    +0.000 OA
ATOM     27  C   UNL     1      -4.268  11.348  18.059  0.00  0.00    +0.000 A 
ATOM     28  C   UNL     1      -5.640  11.162  17.951  0.00  0.00    +0.000 A 
ATOM     29  C   UNL     1      -6.472  11.605  18.978  0.00  0.00    +0.000 A 
ATOM     30  C   UNL     1      -5.926  12.254  20.090  0.00  0.00    +0.000 A 
ATOM     31  C   UNL     1      -4.552  12.501  20.162  0.00  0.00    +0.000 A 
ATOM     32  C   UNL     1      -3.719  12.044  19.141  0.00  0.00    +0.000 A 
ATOM     33  O   UNL     1      -2.360  12.256  19.243  0.00  0.00    +0.000 OA
ENDBRANCH  23  24
ENDBRANCH  22  23
ENDBRANCH   4  22
TORSDOF 9
ENDMDL
MODEL 7
REMARK VINA RESULT:      -9.0      1.625      2.668
REMARK  Name = 
REMARK  10 active torsions:
REMARK  status: ('A' for Active; 'I' for Inactive)
REMARK    1  A    between atoms: C_1  and  C_2
REMARK    2  A    between atoms: C_2  and  C_30
REMARK    3  A    between atoms: N_3  and  O_4
REMARK    4  A    between atoms: O_4  and  C_5
REMARK    5  A    between atoms: C_5  and  C_6
REMARK    6  A    between atoms: C_5  and  C_24
REMARK    7  A    between atoms: C_9  and  O_10
REMARK    8  A    between atoms: O_10  and  C_11
REMARK    9  A    between atoms: C_11  and  C_12
REMARK   10  A    between atoms: C_30  and  O_32
REMARK                            x       y       z     vdW  Elec       q    Type
REMARK                         _______ _______ _______ _____ _____    ______ ____
ROOT
ATOM      1  C   UNL     1       2.297   7.210  19.308  0.00  0.00    +0.000 A 
ATOM      2  C   UNL     1       2.256   8.028  18.170  0.00  0.00    +0.000 A 
ATOM      3  C   UNL     1       1.546   9.236  18.149  0.00  0.00    +0.000 A 
ATOM      4  C   UNL     1       0.937   9.705  19.305  0.00  0.00    +0.000 A 
ATOM      5  C   UNL     1       1.078   8.971  20.484  0.00  0.00    +0.000 A 
ATOM      6  C   UNL     1       1.728   7.725  20.485  0.00  0.00    +0.000 A 
ENDROOT
BRANCH   1   7
ATOM      7  C   UNL     1       2.890   5.790  19.294  0.00  0.00    +0.000 C 
BRANCH   7   8
ATOM      8  C   UNL     1       1.905   4.573  19.379  0.00  0.00    +0.000 C 
ATOM      9  C   UNL     1       1.605   3.927  18.003  0.00  0.00    +0.000 C 
ATOM     10  C   UNL     1       2.688   2.968  17.499  0.00  0.00    +0.000 C 
ATOM     11  C   UNL     1       3.094   1.929  18.539  0.00  0.00    +0.000 C 
ATOM     12  C   UNL     1       3.470   2.590  19.853  0.00  0.00    +0.000 C 
ATOM     13  C   UNL     1       2.326   3.454  20.360  0.00  0.00    +0.000 C 
ENDBRANCH   7   8
BRANCH   7  14
ATOM     14  O   UNL     1       3.781   5.653  18.153  0.00  0.00    +0.000 OA
BRANCH  14  17
ATOM     15  C   UNL     1       5.448   4.629  16.220  0.00  0.00    +0.000 C 
ATOM     16  C   UNL     1       5.868   5.030  17.605  0.00  0.00    +0.000 C 
ATOM     17  N   UNL     1       5.125   5.525  18.556  0.00  0.00    +0.000 NA
BRANCH  16  18
ATOM     18  C   UNL     1       7.339   4.791  17.958  0.00  0.00    +0.000 C 
ATOM     19  O   UNL     1       7.828   5.119  19.019  0.00  0.00    +0.000 OA
BRANCH  18  20
ATOM     20  O   UNL     1       7.982   4.181  16.947  0.00  0.00    +0.000 OA
ATOM     21  H   UNL     1       8.213   3.268  17.233  0.00  0.00    +0.000 HD
ENDBRANCH  18  20
ENDBRANCH  16  18
ENDBRANCH  14  17
ENDBRANCH   7  14
ENDBRANCH   1   7
BRANCH   4  22
ATOM     22  O   UNL     1       0.219  10.863  19.400  0.00  0.00    +0.000 OA
BRANCH  22  23
ATOM     23  C   UNL     1      -0.636  11.208  18.297  0.00  0.00    +0.000 C 
BRANCH  23  24
ATOM     24  C   UNL     1      -2.004  11.598  18.806  0.00  0.00    +0.000 C 
ATOM     25  C   UNL     1      -2.206  12.413  19.855  0.00  0.00    +0.000 C 
ATOM     26  O   UNL     1      -3.443  12.737  20.353  0.00  0.00    +0.000 OA
ATOM     27  C   UNL     1      -4.508  12.340  19.581  0.00  0.00    +0.000 A 
ATOM     28  C   UNL     1      -5.768  12.802  19.939  0.00  0.00    +0.000 A 
ATOM     29  C   UNL     1      -6.852  12.546  19.101  0.00  0.00    +0.000 A 
ATOM     30  C   UNL     1      -6.670  11.808  17.927  0.00  0.00    +0.000 A 
ATOM     31  C   UNL     1      -5.413  11.287  17.606  0.00  0.00    +0.000 A 
ATOM     32  C   UNL     1      -4.326  11.555  18.438  0.00  0.00    +0.000 A 
ATOM     33  O   UNL     1      -3.083  11.071  18.089  0.00  0.00    +0.000 OA
ENDBRANCH  23  24
ENDBRANCH  22  23
ENDBRANCH   4  22
TORSDOF 9
ENDMDL
MODEL 8
REMARK VINA RESULT:      -9.0      1.468      2.415
REMARK  Name = 
REMARK  10 active torsions:
REMARK  status: ('A' for Active; 'I' for Inactive)
REMARK    1  A    between atoms: C_1  and  C_2
REMARK    2  A    between atoms: C_2  and  C_30
REMARK    3  A    between atoms: N_3  and  O_4
REMARK    4  A    between atoms: O_4  and  C_5
REMARK    5  A    between atoms: C_5  and  C_6
REMARK    6  A    between atoms: C_5  and  C_24
REMARK    7  A    between atoms: C_9  and  O_10
REMARK    8  A    between atoms: O_10  and  C_11
REMARK    9  A    between atoms: C_11  and  C_12
REMARK   10  A    between atoms: C_30  and  O_32
REMARK                            x       y       z     vdW  Elec       q    Type
REMARK                         _______ _______ _______ _____ _____    ______ ____
ROOT
ATOM      1  C   UNL     1       2.496   6.616  19.601  0.00  0.00    +0.000 A 
ATOM      2  C   UNL     1       1.790   7.417  20.510  0.00  0.00    +0.000 A 
ATOM      3  C   UNL     1       1.310   8.687  20.165  0.00  0.00    +0.000 A 
ATOM      4  C   UNL     1       1.440   9.149  18.862  0.00  0.00    +0.000 A 
ATOM      5  C   UNL     1       2.021   8.313  17.907  0.00  0.00    +0.000 A 
ATOM      6  C   UNL     1       2.566   7.070  18.273  0.00  0.00    +0.000 A 
ENDROOT
BRANCH   1   7
ATOM      7  C   UNL     1       3.209   5.317  20.012  0.00  0.00    +0.000 C 
BRANCH   7   8
ATOM      8  C   UNL     1       2.364   4.196  20.711  0.00  0.00    +0.000 C 
ATOM      9  C   UNL     1       0.936   4.047  20.128  0.00  0.00    +0.000 C 
ATOM     10  C   UNL     1       0.859   3.242  18.827  0.00  0.00    +0.000 C 
ATOM     11  C   UNL     1       1.581   1.902  18.913  0.00  0.00    +0.000 C 
ATOM     12  C   UNL     1       3.008   2.080  19.401  0.00  0.00    +0.000 C 
ATOM     13  C   UNL     1       3.024   2.797  20.741  0.00  0.00    +0.000 C 
ENDBRANCH   7   8
BRANCH   7  14
ATOM     14  O   UNL     1       3.930   4.780  18.868  0.00  0.00    +0.000 OA
BRANCH  14  17
ATOM     15  C   UNL     1       5.446   4.944  16.581  0.00  0.00    +0.000 C 
ATOM     16  C   UNL     1       5.990   4.836  17.976  0.00  0.00    +0.000 C 
ATOM     17  N   UNL     1       5.320   4.761  19.094  0.00  0.00    +0.000 NA
BRANCH  16  18
ATOM     18  C   UNL     1       7.514   4.761  18.102  0.00  0.00    +0.000 C 
ATOM     19  O   UNL     1       8.123   5.196  19.057  0.00  0.00    +0.000 OA
BRANCH  18  20
ATOM     20  O   UNL     1       8.055   4.158  17.029  0.00  0.00    +0.000 OA
ATOM     21  H   UNL     1       8.926   4.576  16.844  0.00  0.00    +0.000 HD
ENDBRANCH  18  20
ENDBRANCH  16  18
ENDBRANCH  14  17
ENDBRANCH   7  14
ENDBRANCH   1   7
BRANCH   4  22
ATOM     22  O   UNL     1       1.015  10.367  18.414  0.00  0.00    +0.000 OA
BRANCH  22  23
ATOM     23  C   UNL     1       0.154  11.130  19.277  0.00  0.00    +0.000 C 
BRANCH  23  24
ATOM     24  C   UNL     1      -1.236  11.198  18.691  0.00  0.00    +0.000 C 
ATOM     25  C   UNL     1      -1.621  10.513  17.600  0.00  0.00    +0.000 C 
ATOM     26  O   UNL     1      -2.868  10.603  17.034  0.00  0.00    +0.000 OA
ATOM     27  C   UNL     1      -3.799  11.292  17.772  0.00  0.00    +0.000 A 
ATOM     28  C   UNL     1      -5.118  11.255  17.339  0.00  0.00    +0.000 A 
ATOM     29  C   UNL     1      -6.115  11.815  18.137  0.00  0.00    +0.000 A 
ATOM     30  C   UNL     1      -5.780  12.430  19.347  0.00  0.00    +0.000 A 
ATOM     31  C   UNL     1      -4.443  12.526  19.746  0.00  0.00    +0.000 A 
ATOM     32  C   UNL     1      -3.448  11.953  18.954  0.00  0.00    +0.000 A 
ATOM     33  O   UNL     1      -2.137  12.017  19.379  0.00  0.00    +0.000 OA
ENDBRANCH  23  24
ENDBRANCH  22  23
ENDBRANCH   4  22
TORSDOF 9
ENDMDL
MODEL 9
REMARK VINA RESULT:      -9.0      1.257      2.122
REMARK  Name = 
REMARK  10 active torsions:
REMARK  status: ('A' for Active; 'I' for Inactive)
REMARK    1  A    between atoms: C_1  and  C_2
REMARK    2  A    between atoms: C_2  and  C_30
REMARK    3  A    between atoms: N_3  and  O_4
REMARK    4  A    between atoms: O_4  and  C_5
REMARK    5  A    between atoms: C_5  and  C_6
REMARK    6  A    between atoms: C_5  and  C_24
REMARK    7  A    between atoms: C_9  and  O_10
REMARK    8  A    between atoms: O_10  and  C_11
REMARK    9  A    between atoms: C_11  and  C_12
REMARK   10  A    between atoms: C_30  and  O_32
REMARK                            x       y       z     vdW  Elec       q    Type
REMARK                         _______ _______ _______ _____ _____    ______ ____
ROOT
ATOM      1  C   UNL     1       2.974   6.788  19.218  0.00  0.00    +0.000 A 
ATOM      2  C   UNL     1       3.091   7.443  17.984  0.00  0.00    +0.000 A 
ATOM      3  C   UNL     1       2.297   8.548  17.651  0.00  0.00    +0.000 A 
ATOM      4  C   UNL     1       1.429   9.089  18.588  0.00  0.00    +0.000 A 
ATOM      5  C   UNL     1       1.393   8.534  19.869  0.00  0.00    +0.000 A 
ATOM      6  C   UNL     1       2.136   7.382  20.178  0.00  0.00    +0.000 A 
ENDROOT
BRANCH   1   7
ATOM      7  C   UNL     1       3.679   5.457  19.527  0.00  0.00    +0.000 C 
BRANCH   7   8
ATOM      8  C   UNL     1       3.008   4.129  19.032  0.00  0.00    +0.000 C 
ATOM      9  C   UNL     1       3.469   2.876  19.820  0.00  0.00    +0.000 C 
ATOM     10  C   UNL     1       2.773   2.680  21.171  0.00  0.00    +0.000 C 
ATOM     11  C   UNL     1       1.253   2.767  21.075  0.00  0.00    +0.000 C 
ATOM     12  C   UNL     1       0.821   4.045  20.379  0.00  0.00    +0.000 C 
ATOM     13  C   UNL     1       1.462   4.144  19.005  0.00  0.00    +0.000 C 
ENDBRANCH   7   8
BRANCH   7  14
ATOM     14  O   UNL     1       5.063   5.531  19.083  0.00  0.00    +0.000 OA
BRANCH  14  17
ATOM     15  C   UNL     1       7.671   5.260  18.256  0.00  0.00    +0.000 C 
ATOM     16  C   UNL     1       6.459   4.989  17.410  0.00  0.00    +0.000 C 
ATOM     17  N   UNL     1       5.204   5.095  17.752  0.00  0.00    +0.000 NA
BRANCH  16  18
ATOM     18  C   UNL     1       6.728   4.580  15.960  0.00  0.00    +0.000 C 
ATOM     19  O   UNL     1       6.230   3.601  15.444  0.00  0.00    +0.000 OA
BRANCH  18  20
ATOM     20  O   UNL     1       7.570   5.444  15.365  0.00  0.00    +0.000 OA
ATOM     21  H   UNL     1       7.934   6.045  16.054  0.00  0.00    +0.000 HD
ENDBRANCH  18  20
ENDBRANCH  16  18
ENDBRANCH  14  17
ENDBRANCH   7  14
ENDBRANCH   1   7
BRANCH   4  22
ATOM     22  O   UNL     1       0.607  10.159  18.374  0.00  0.00    +0.000 OA
BRANCH  22  23
ATOM     23  C   UNL     1      -0.372  10.458  19.383  0.00  0.00    +0.000 C 
BRANCH  23  24
ATOM     24  C   UNL     1      -1.696  10.790  18.736  0.00  0.00    +0.000 C 
ATOM     25  C   UNL     1      -2.142  10.212  17.608  0.00  0.00    +0.000 C 
ATOM     26  O   UNL     1      -3.322  10.539  16.988  0.00  0.00    +0.000 OA
ATOM     27  C   UNL     1      -4.150  11.368  17.704  0.00  0.00    +0.000 A 
ATOM     28  C   UNL     1      -5.430  11.580  17.209  0.00  0.00    +0.000 A 
ATOM     29  C   UNL     1      -6.349  12.293  17.978  0.00  0.00    +0.000 A 
ATOM     30  C   UNL     1      -5.971  12.810  19.221  0.00  0.00    +0.000 A 
ATOM     31  C   UNL     1      -4.661  12.652  19.684  0.00  0.00    +0.000 A 
ATOM     32  C   UNL     1      -3.746  11.927  18.921  0.00  0.00    +0.000 A 
ATOM     33  O   UNL     1      -2.469  11.743  19.407  0.00  0.00    +0.000 OA
ENDBRANCH  23  24
ENDBRANCH  22  23
ENDBRANCH   4  22
TORSDOF 9
ENDMDL
