MODEL 1
REMARK VINA RESULT:      -9.3      0.000      0.000
REMARK  Name = 
REMARK  1 active torsions:
REMARK  status: ('A' for Active; 'I' for Inactive)
REMARK    1  A    between atoms: C_7  and  C_8
REMARK                            x       y       z     vdW  Elec       q    Type
REMARK                         _______ _______ _______ _____ _____    ______ ____
ROOT
ATOM      1  C   UNL     1       1.293   8.108  20.533  0.00  0.00    +0.000 A 
ATOM      2  N   UNL     1       2.031   8.161  19.441  0.00  0.00    +0.000 NA
ATOM      3  C   UNL     1       2.609   6.916  19.297  0.00  0.00    +0.000 A 
ATOM      4  C   UNL     1       3.504   6.436  18.315  0.00  0.00    +0.000 A 
ATOM      5  C   UNL     1       3.902   7.320  17.291  0.00  0.00    +0.000 A 
ATOM      6  C   UNL     1       4.761   6.888  16.288  0.00  0.00    +0.000 A 
ATOM      7  C   UNL     1       5.231   5.580  16.304  0.00  0.00    +0.000 A 
ATOM      8  C   UNL     1       4.849   4.704  17.329  0.00  0.00    +0.000 A 
ATOM      9  C   UNL     1       3.973   5.096  18.371  0.00  0.00    +0.000 A 
ATOM     10  C   UNL     1       3.537   4.239  19.441  0.00  0.00    +0.000 A 
ATOM     11  C   UNL     1       3.962   2.899  19.610  0.00  0.00    +0.000 A 
ATOM     12  C   UNL     1       3.491   2.090  20.651  0.00  0.00    +0.000 A 
ATOM     13  C   UNL     1       2.574   2.591  21.566  0.00  0.00    +0.000 A 
ATOM     14  C   UNL     1       2.138   3.907  21.457  0.00  0.00    +0.000 A 
ATOM     15  C   UNL     1       2.618   4.725  20.411  0.00  0.00    +0.000 A 
ATOM     16  C   UNL     1       2.187   6.064  20.305  0.00  0.00    +0.000 A 
ATOM     17  N   UNL     1       1.338   6.838  21.056  0.00  0.00    +0.000 N 
ATOM     18  H   UNL     1       0.848   6.542  21.886  0.00  0.00    +0.000 HD
ENDROOT
BRANCH   1  25
ATOM     19 BR   UNL     1       0.029  10.343  18.415  0.00  0.00    +0.000 Br
ATOM     20  C   UNL     1      -0.099  10.235  20.313  0.00  0.00    +0.000 A 
ATOM     21  C   UNL     1      -0.857  11.239  20.934  0.00  0.00    +0.000 A 
ATOM     22  C   UNL     1      -1.048  11.232  22.314  0.00  0.00    +0.000 A 
ATOM     23  C   UNL     1      -0.484  10.219  23.082  0.00  0.00    +0.000 A 
ATOM     24  C   UNL     1       0.270   9.217  22.467  0.00  0.00    +0.000 A 
ATOM     25  C   UNL     1       0.486   9.208  21.076  0.00  0.00    +0.000 A 
ENDBRANCH   1  25
TORSDOF 1
ENDMDL
MODEL 2
REMARK VINA RESULT:      -9.3      0.113      3.459
REMARK  Name = 
REMARK  1 active torsions:
REMARK  status: ('A' for Active; 'I' for Inactive)
REMARK    1  A    between atoms: C_7  and  C_8
REMARK                            x       y       z     vdW  Elec       q    Type
REMARK                         _______ _______ _______ _____ _____    ______ ____
ROOT
ATOM      1  C   UNL     1       1.224   8.062  20.522  0.00  0.00    +0.000 A 
ATOM      2  N   UNL     1       1.297   6.854  21.047  0.00  0.00    +0.000 NA
ATOM      3  C   UNL     1       2.143   6.123  20.237  0.00  0.00    +0.000 A 
ATOM      4  C   UNL     1       2.549   4.774  20.326  0.00  0.00    +0.000 A 
ATOM      5  C   UNL     1       2.049   4.000  21.394  0.00  0.00    +0.000 A 
ATOM      6  C   UNL     1       2.439   2.674  21.540  0.00  0.00    +0.000 A 
ATOM      7  C   UNL     1       3.319   2.113  20.622  0.00  0.00    +0.000 A 
ATOM      8  C   UNL     1       3.805   2.875  19.551  0.00  0.00    +0.000 A 
ATOM      9  C   UNL     1       3.440   4.232  19.362  0.00  0.00    +0.000 A 
ATOM     10  C   UNL     1       3.916   5.066  18.291  0.00  0.00    +0.000 A 
ATOM     11  C   UNL     1       4.782   4.624  17.263  0.00  0.00    +0.000 A 
ATOM     12  C   UNL     1       5.243   5.477  16.253  0.00  0.00    +0.000 A 
ATOM     13  C   UNL     1       4.855   6.811  16.233  0.00  0.00    +0.000 A 
ATOM     14  C   UNL     1       3.989   7.292  17.209  0.00  0.00    +0.000 A 
ATOM     15  C   UNL     1       3.519   6.430  18.223  0.00  0.00    +0.000 A 
ATOM     16  C   UNL     1       2.631   6.913  19.208  0.00  0.00    +0.000 A 
ATOM     17  N   UNL     1       2.053   8.137  19.429  0.00  0.00    +0.000 N 
ATOM     18  H   UNL     1       2.179   8.962  18.861  0.00  0.00    +0.000 HD
ENDROOT
BRANCH   1  25
ATOM     19 BR   UNL     1      -0.115  10.226  18.377  0.00  0.00    +0.000 Br
ATOM     20  C   UNL     1      -0.173  10.183  20.281  0.00  0.00    +0.000 A 
ATOM     21  C   UNL     1      -0.908  11.209  20.894  0.00  0.00    +0.000 A 
ATOM     22  C   UNL     1      -1.047  11.249  22.280  0.00  0.00    +0.000 A 
ATOM     23  C   UNL     1      -0.457  10.262  23.061  0.00  0.00    +0.000 A 
ATOM     24  C   UNL     1       0.273   9.238  22.453  0.00  0.00    +0.000 A 
ATOM     25  C   UNL     1       0.439   9.181  21.056  0.00  0.00    +0.000 A 
ENDBRANCH   1  25
TORSDOF 1
ENDMDL
MODEL 3
REMARK VINA RESULT:      -8.9      1.392      3.898
REMARK  Name = 
REMARK  1 active torsions:
REMARK  status: ('A' for Active; 'I' for Inactive)
REMARK    1  A    between atoms: C_7  and  C_8
REMARK                            x       y       z     vdW  Elec       q    Type
REMARK                         _______ _______ _______ _____ _____    ______ ____
ROOT
ATOM      1  C   UNL     1       1.830   8.412  19.179  0.00  0.00    +0.000 A 
ATOM      2  N   UNL     1       1.721   7.357  19.964  0.00  0.00    +0.000 NA
ATOM      3  C   UNL     1       2.497   6.365  19.399  0.00  0.00    +0.000 A 
ATOM      4  C   UNL     1       2.717   5.033  19.815  0.00  0.00    +0.000 A 
ATOM      5  C   UNL     1       2.074   4.590  20.989  0.00  0.00    +0.000 A 
ATOM      6  C   UNL     1       2.279   3.297  21.453  0.00  0.00    +0.000 A 
ATOM      7  C   UNL     1       3.116   2.440  20.749  0.00  0.00    +0.000 A 
ATOM      8  C   UNL     1       3.745   2.872  19.573  0.00  0.00    +0.000 A 
ATOM      9  C   UNL     1       3.570   4.183  19.062  0.00  0.00    +0.000 A 
ATOM     10  C   UNL     1       4.198   4.687  17.869  0.00  0.00    +0.000 A 
ATOM     11  C   UNL     1       5.042   3.920  17.030  0.00  0.00    +0.000 A 
ATOM     12  C   UNL     1       5.655   4.459  15.892  0.00  0.00    +0.000 A 
ATOM     13  C   UNL     1       5.447   5.788  15.548  0.00  0.00    +0.000 A 
ATOM     14  C   UNL     1       4.611   6.580  16.328  0.00  0.00    +0.000 A 
ATOM     15  C   UNL     1       3.988   6.036  17.472  0.00  0.00    +0.000 A 
ATOM     16  C   UNL     1       3.130   6.834  18.258  0.00  0.00    +0.000 A 
ATOM     17  N   UNL     1       2.709   8.136  18.159  0.00  0.00    +0.000 N 
ATOM     18  H   UNL     1       2.967   8.787  17.433  0.00  0.00    +0.000 HD
ENDROOT
BRANCH   1  25
ATOM     19 BR   UNL     1      -0.323   8.708  21.700  0.00  0.00    +0.000 Br
ATOM     20  C   UNL     1       0.235   9.985  20.401  0.00  0.00    +0.000 A 
ATOM     21  C   UNL     1      -0.326  11.265  20.520  0.00  0.00    +0.000 A 
ATOM     22  C   UNL     1       0.044  12.285  19.646  0.00  0.00    +0.000 A 
ATOM     23  C   UNL     1       0.980  12.033  18.649  0.00  0.00    +0.000 A 
ATOM     24  C   UNL     1       1.543  10.760  18.530  0.00  0.00    +0.000 A 
ATOM     25  C   UNL     1       1.177   9.709  19.393  0.00  0.00    +0.000 A 
ENDBRANCH   1  25
TORSDOF 1
ENDMDL
MODEL 4
REMARK VINA RESULT:      -8.9      1.320      1.808
REMARK  Name = 
REMARK  1 active torsions:
REMARK  status: ('A' for Active; 'I' for Inactive)
REMARK    1  A    between atoms: C_7  and  C_8
REMARK                            x       y       z     vdW  Elec       q    Type
REMARK                         _______ _______ _______ _____ _____    ______ ____
ROOT
ATOM      1  C   UNL     1       1.681   8.375  19.411  0.00  0.00    +0.000 A 
ATOM      2  N   UNL     1       2.500   8.160  18.399  0.00  0.00    +0.000 NA
ATOM      3  C   UNL     1       2.972   6.871  18.542  0.00  0.00    +0.000 A 
ATOM      4  C   UNL     1       3.890   6.145  17.751  0.00  0.00    +0.000 A 
ATOM      5  C   UNL     1       4.441   6.782  16.621  0.00  0.00    +0.000 A 
ATOM      6  C   UNL     1       5.330   6.102  15.797  0.00  0.00    +0.000 A 
ATOM      7  C   UNL     1       5.677   4.790  16.099  0.00  0.00    +0.000 A 
ATOM      8  C   UNL     1       5.142   4.159  17.230  0.00  0.00    +0.000 A 
ATOM      9  C   UNL     1       4.230   4.810  18.098  0.00  0.00    +0.000 A 
ATOM     10  C   UNL     1       3.640   4.210  19.265  0.00  0.00    +0.000 A 
ATOM     11  C   UNL     1       3.928   2.900  19.718  0.00  0.00    +0.000 A 
ATOM     12  C   UNL     1       3.309   2.345  20.844  0.00  0.00    +0.000 A 
ATOM     13  C   UNL     1       2.376   3.080  21.564  0.00  0.00    +0.000 A 
ATOM     14  C   UNL     1       2.071   4.380  21.173  0.00  0.00    +0.000 A 
ATOM     15  C   UNL     1       2.699   4.942  20.041  0.00  0.00    +0.000 A 
ATOM     16  C   UNL     1       2.400   6.264  19.649  0.00  0.00    +0.000 A 
ATOM     17  N   UNL     1       1.572   7.229  20.163  0.00  0.00    +0.000 N 
ATOM     18  H   UNL     1       0.996   7.137  20.986  0.00  0.00    +0.000 HD
ENDROOT
BRANCH   1  25
ATOM     19 BR   UNL     1       1.108   9.265  22.566  0.00  0.00    +0.000 Br
ATOM     20  C   UNL     1       0.606  10.114  20.937  0.00  0.00    +0.000 A 
ATOM     21  C   UNL     1      -0.103  11.317  21.067  0.00  0.00    +0.000 A 
ATOM     22  C   UNL     1      -0.485  12.040  19.939  0.00  0.00    +0.000 A 
ATOM     23  C   UNL     1      -0.156  11.567  18.673  0.00  0.00    +0.000 A 
ATOM     24  C   UNL     1       0.552  10.371  18.540  0.00  0.00    +0.000 A 
ATOM     25  C   UNL     1       0.939   9.616  19.664  0.00  0.00    +0.000 A 
ENDBRANCH   1  25
TORSDOF 1
ENDMDL
MODEL 5
REMARK VINA RESULT:      -8.9      1.098      1.173
REMARK  Name = 
REMARK  1 active torsions:
REMARK  status: ('A' for Active; 'I' for Inactive)
REMARK    1  A    between atoms: C_7  and  C_8
REMARK                            x       y       z     vdW  Elec       q    Type
REMARK                         _______ _______ _______ _____ _____    ______ ____
ROOT
ATOM      1  C   UNL     1       1.698   7.633  19.975  0.00  0.00    +0.000 A 
ATOM      2  N   UNL     1       2.540   7.788  18.971  0.00  0.00    +0.000 NA
ATOM      3  C   UNL     1       2.914   6.520  18.573  0.00  0.00    +0.000 A 
ATOM      4  C   UNL     1       3.810   6.112  17.561  0.00  0.00    +0.000 A 
ATOM      5  C   UNL     1       4.450   7.110  16.798  0.00  0.00    +0.000 A 
ATOM      6  C   UNL     1       5.322   6.758  15.774  0.00  0.00    +0.000 A 
ATOM      7  C   UNL     1       5.563   5.415  15.511  0.00  0.00    +0.000 A 
ATOM      8  C   UNL     1       4.940   4.421  16.277  0.00  0.00    +0.000 A 
ATOM      9  C   UNL     1       4.041   4.729  17.329  0.00  0.00    +0.000 A 
ATOM     10  C   UNL     1       3.363   3.753  18.139  0.00  0.00    +0.000 A 
ATOM     11  C   UNL     1       3.540   2.354  18.013  0.00  0.00    +0.000 A 
ATOM     12  C   UNL     1       2.838   1.437  18.805  0.00  0.00    +0.000 A 
ATOM     13  C   UNL     1       1.931   1.885  19.757  0.00  0.00    +0.000 A 
ATOM     14  C   UNL     1       1.734   3.250  19.934  0.00  0.00    +0.000 A 
ATOM     15  C   UNL     1       2.445   4.175  19.140  0.00  0.00    +0.000 A 
ATOM     16  C   UNL     1       2.257   5.560  19.327  0.00  0.00    +0.000 A 
ATOM     17  N   UNL     1       1.478   6.293  20.187  0.00  0.00    +0.000 N 
ATOM     18  H   UNL     1       0.865   5.918  20.894  0.00  0.00    +0.000 HD
ENDROOT
BRANCH   1  25
ATOM     19 BR   UNL     1       0.163  10.024  18.242  0.00  0.00    +0.000 Br
ATOM     20  C   UNL     1       0.363   9.802  20.123  0.00  0.00    +0.000 A 
ATOM     21  C   UNL     1      -0.242  10.783  20.923  0.00  0.00    +0.000 A 
ATOM     22  C   UNL     1      -0.190  10.695  22.313  0.00  0.00    +0.000 A 
ATOM     23  C   UNL     1       0.464   9.624  22.912  0.00  0.00    +0.000 A 
ATOM     24  C   UNL     1       1.065   8.645  22.118  0.00  0.00    +0.000 A 
ATOM     25  C   UNL     1       1.036   8.717  20.712  0.00  0.00    +0.000 A 
ENDBRANCH   1  25
TORSDOF 1
ENDMDL
MODEL 6
REMARK VINA RESULT:      -8.7      1.907      4.139
REMARK  Name = 
REMARK  1 active torsions:
REMARK  status: ('A' for Active; 'I' for Inactive)
REMARK    1  A    between atoms: C_7  and  C_8
REMARK                            x       y       z     vdW  Elec       q    Type
REMARK                         _______ _______ _______ _____ _____    ______ ____
ROOT
ATOM      1  C   UNL     1       2.212   8.090  18.597  0.00  0.00    +0.000 A 
ATOM      2  N   UNL     1       1.722   6.948  19.040  0.00  0.00    +0.000 NA
ATOM      3  C   UNL     1       2.471   5.946  18.455  0.00  0.00    +0.000 A 
ATOM      4  C   UNL     1       2.358   4.543  18.566  0.00  0.00    +0.000 A 
ATOM      5  C   UNL     1       1.344   4.023  19.397  0.00  0.00    +0.000 A 
ATOM      6  C   UNL     1       1.208   2.649  19.559  0.00  0.00    +0.000 A 
ATOM      7  C   UNL     1       2.074   1.791  18.892  0.00  0.00    +0.000 A 
ATOM      8  C   UNL     1       3.073   2.305  18.054  0.00  0.00    +0.000 A 
ATOM      9  C   UNL     1       3.254   3.697  17.859  0.00  0.00    +0.000 A 
ATOM     10  C   UNL     1       4.268   4.283  17.024  0.00  0.00    +0.000 A 
ATOM     11  C   UNL     1       5.193   3.536  16.255  0.00  0.00    +0.000 A 
ATOM     12  C   UNL     1       6.182   4.147  15.475  0.00  0.00    +0.000 A 
ATOM     13  C   UNL     1       6.286   5.531  15.433  0.00  0.00    +0.000 A 
ATOM     14  C   UNL     1       5.389   6.312  16.155  0.00  0.00    +0.000 A 
ATOM     15  C   UNL     1       4.388   5.697  16.937  0.00  0.00    +0.000 A 
ATOM     16  C   UNL     1       3.469   6.487  17.660  0.00  0.00    +0.000 A 
ATOM     17  N   UNL     1       3.296   7.841  17.789  0.00  0.00    +0.000 N 
ATOM     18  H   UNL     1       3.848   8.554  17.335  0.00  0.00    +0.000 HD
ENDROOT
BRANCH   1  25
ATOM     19 BR   UNL     1       0.550   8.454  21.457  0.00  0.00    +0.000 Br
ATOM     20  C   UNL     1       0.999   9.737  20.123  0.00  0.00    +0.000 A 
ATOM     21  C   UNL     1       0.588  11.054  20.376  0.00  0.00    +0.000 A 
ATOM     22  C   UNL     1       0.899  12.077  19.483  0.00  0.00    +0.000 A 
ATOM     23  C   UNL     1       1.626  11.792  18.333  0.00  0.00    +0.000 A 
ATOM     24  C   UNL     1       2.039  10.482  18.079  0.00  0.00    +0.000 A 
ATOM     25  C   UNL     1       1.728   9.428  18.960  0.00  0.00    +0.000 A 
ENDBRANCH   1  25
TORSDOF 1
ENDMDL
MODEL 7
REMARK VINA RESULT:      -8.6      1.853      2.459
REMARK  Name = 
REMARK  1 active torsions:
REMARK  status: ('A' for Active; 'I' for Inactive)
REMARK    1  A    between atoms: C_7  and  C_8
REMARK                            x       y       z     vdW  Elec       q    Type
REMARK                         _______ _______ _______ _____ _____    ______ ____
ROOT
ATOM      1  C   UNL     1       2.204   8.214  18.641  0.00  0.00    +0.000 A 
ATOM      2  N   UNL     1       3.174   7.957  17.784  0.00  0.00    +0.000 NA
ATOM      3  C   UNL     1       3.315   6.584  17.751  0.00  0.00    +0.000 A 
ATOM      4  C   UNL     1       4.218   5.779  17.022  0.00  0.00    +0.000 A 
ATOM      5  C   UNL     1       5.142   6.421  16.172  0.00  0.00    +0.000 A 
ATOM      6  C   UNL     1       6.034   5.672  15.414  0.00  0.00    +0.000 A 
ATOM      7  C   UNL     1       6.015   4.285  15.505  0.00  0.00    +0.000 A 
ATOM      8  C   UNL     1       5.108   3.645  16.360  0.00  0.00    +0.000 A 
ATOM      9  C   UNL     1       4.177   4.365  17.150  0.00  0.00    +0.000 A 
ATOM     10  C   UNL     1       3.215   3.763  18.034  0.00  0.00    +0.000 A 
ATOM     11  C   UNL     1       3.104   2.369  18.259  0.00  0.00    +0.000 A 
ATOM     12  C   UNL     1       2.135   1.823  19.109  0.00  0.00    +0.000 A 
ATOM     13  C   UNL     1       1.236   2.651  19.769  0.00  0.00    +0.000 A 
ATOM     14  C   UNL     1       1.314   4.029  19.598  0.00  0.00    +0.000 A 
ATOM     15  C   UNL     1       2.295   4.581  18.746  0.00  0.00    +0.000 A 
ATOM     16  C   UNL     1       2.384   5.979  18.581  0.00  0.00    +0.000 A 
ATOM     17  N   UNL     1       1.682   7.032  19.110  0.00  0.00    +0.000 N 
ATOM     18  H   UNL     1       0.923   6.964  19.770  0.00  0.00    +0.000 HD
ENDROOT
BRANCH   1  25
ATOM     19 BR   UNL     1       0.480   8.567  21.466  0.00  0.00    +0.000 Br
ATOM     20  C   UNL     1       0.949   9.853  20.140  0.00  0.00    +0.000 A 
ATOM     21  C   UNL     1       0.524  11.167  20.384  0.00  0.00    +0.000 A 
ATOM     22  C   UNL     1       0.847  12.192  19.498  0.00  0.00    +0.000 A 
ATOM     23  C   UNL     1       1.600  11.911  18.363  0.00  0.00    +0.000 A 
ATOM     24  C   UNL     1       2.027  10.604  18.119  0.00  0.00    +0.000 A 
ATOM     25  C   UNL     1       1.704   9.548  18.993  0.00  0.00    +0.000 A 
ENDBRANCH   1  25
TORSDOF 1
ENDMDL
MODEL 8
REMARK VINA RESULT:      -8.4      1.819      2.488
REMARK  Name = 
REMARK  1 active torsions:
REMARK  status: ('A' for Active; 'I' for Inactive)
REMARK    1  A    between atoms: C_7  and  C_8
REMARK                            x       y       z     vdW  Elec       q    Type
REMARK                         _______ _______ _______ _____ _____    ______ ____
ROOT
ATOM      1  C   UNL     1       2.244   9.018  18.543  0.00  0.00    +0.000 A 
ATOM      2  N   UNL     1       3.052   8.557  17.608  0.00  0.00    +0.000 NA
ATOM      3  C   UNL     1       3.249   7.218  17.885  0.00  0.00    +0.000 A 
ATOM      4  C   UNL     1       4.041   6.258  17.218  0.00  0.00    +0.000 A 
ATOM      5  C   UNL     1       4.764   6.669  16.079  0.00  0.00    +0.000 A 
ATOM      6  C   UNL     1       5.539   5.756  15.374  0.00  0.00    +0.000 A 
ATOM      7  C   UNL     1       5.601   4.435  15.802  0.00  0.00    +0.000 A 
ATOM      8  C   UNL     1       4.896   4.027  16.942  0.00  0.00    +0.000 A 
ATOM      9  C   UNL     1       4.090   4.920  17.692  0.00  0.00    +0.000 A 
ATOM     10  C   UNL     1       3.334   4.556  18.861  0.00  0.00    +0.000 A 
ATOM     11  C   UNL     1       3.332   3.262  19.436  0.00  0.00    +0.000 A 
ATOM     12  C   UNL     1       2.560   2.944  20.559  0.00  0.00    +0.000 A 
ATOM     13  C   UNL     1       1.758   3.910  21.154  0.00  0.00    +0.000 A 
ATOM     14  C   UNL     1       1.739   5.202  20.641  0.00  0.00    +0.000 A 
ATOM     15  C   UNL     1       2.522   5.525  19.511  0.00  0.00    +0.000 A 
ATOM     16  C   UNL     1       2.514   6.838  18.997  0.00  0.00    +0.000 A 
ATOM     17  N   UNL     1       1.871   7.990  19.375  0.00  0.00    +0.000 N 
ATOM     18  H   UNL     1       1.248   8.088  20.163  0.00  0.00    +0.000 HD
ENDROOT
BRANCH   1  25
ATOM     19 BR   UNL     1      -0.338   9.639  20.549  0.00  0.00    +0.000 Br
ATOM     20  C   UNL     1       0.666  10.814  19.435  0.00  0.00    +0.000 A 
ATOM     21  C   UNL     1       0.283  12.163  19.465  0.00  0.00    +0.000 A 
ATOM     22  C   UNL     1       0.976  13.113  18.719  0.00  0.00    +0.000 A 
ATOM     23  C   UNL     1       2.059  12.721  17.940  0.00  0.00    +0.000 A 
ATOM     24  C   UNL     1       2.445  11.379  17.909  0.00  0.00    +0.000 A 
ATOM     25  C   UNL     1       1.754  10.398  18.646  0.00  0.00    +0.000 A 
ENDBRANCH   1  25
TORSDOF 1
ENDMDL
MODEL 9
REMARK VINA RESULT:      -8.3      1.348      3.700
REMARK  Name = 
REMARK  1 active torsions:
REMARK  status: ('A' for Active; 'I' for Inactive)
REMARK    1  A    between atoms: C_7  and  C_8
REMARK                            x       y       z     vdW  Elec       q    Type
REMARK                         _______ _______ _______ _____ _____    ______ ____
ROOT
ATOM      1  C   UNL     1       1.485   8.925  19.381  0.00  0.00    +0.000 A 
ATOM      2  N   UNL     1       1.391   7.838  20.122  0.00  0.00    +0.000 NA
ATOM      3  C   UNL     1       2.192   6.884  19.525  0.00  0.00    +0.000 A 
ATOM      4  C   UNL     1       2.436   5.542  19.891  0.00  0.00    +0.000 A 
ATOM      5  C   UNL     1       1.794   5.041  21.042  0.00  0.00    +0.000 A 
ATOM      6  C   UNL     1       2.021   3.734  21.457  0.00  0.00    +0.000 A 
ATOM      7  C   UNL     1       2.881   2.922  20.726  0.00  0.00    +0.000 A 
ATOM      8  C   UNL     1       3.508   3.413  19.573  0.00  0.00    +0.000 A 
ATOM      9  C   UNL     1       3.311   4.739  19.112  0.00  0.00    +0.000 A 
ATOM     10  C   UNL     1       3.937   5.301  17.945  0.00  0.00    +0.000 A 
ATOM     11  C   UNL     1       4.802   4.585  17.083  0.00  0.00    +0.000 A 
ATOM     12  C   UNL     1       5.411   5.180  15.972  0.00  0.00    +0.000 A 
ATOM     13  C   UNL     1       5.179   6.517  15.678  0.00  0.00    +0.000 A 
ATOM     14  C   UNL     1       4.322   7.261  16.482  0.00  0.00    +0.000 A 
ATOM     15  C   UNL     1       3.702   6.660  17.599  0.00  0.00    +0.000 A 
ATOM     16  C   UNL     1       2.822   7.409  18.408  0.00  0.00    +0.000 A 
ATOM     17  N   UNL     1       2.376   8.706  18.357  0.00  0.00    +0.000 N 
ATOM     18  H   UNL     1       2.626   9.390  17.659  0.00  0.00    +0.000 HD
ENDROOT
BRANCH   1  25
ATOM     19 BR   UNL     1      -1.135   9.735  17.495  0.00  0.00    +0.000 Br
ATOM     20  C   UNL     1      -0.302  10.686  18.920  0.00  0.00    +0.000 A 
ATOM     21  C   UNL     1      -0.881  11.919  19.255  0.00  0.00    +0.000 A 
ATOM     22  C   UNL     1      -0.375  12.678  20.307  0.00  0.00    +0.000 A 
ATOM     23  C   UNL     1       0.713  12.207  21.035  0.00  0.00    +0.000 A 
ATOM     24  C   UNL     1       1.290  10.979  20.706  0.00  0.00    +0.000 A 
ATOM     25  C   UNL     1       0.804  10.199  19.640  0.00  0.00    +0.000 A 
ENDBRANCH   1  25
TORSDOF 1
ENDMDL
