MODEL 1
REMARK VINA RESULT:      -7.3      0.000      0.000
REMARK  Name = 
REMARK  5 active torsions:
REMARK  status: ('A' for Active; 'I' for Inactive)
REMARK    1  A    between atoms: C_1  and  S_2
REMARK    2  A    between atoms: S_2  and  C_3
REMARK    3  A    between atoms: C_6  and  C_7
REMARK    4  A    between atoms: C_8  and  C_9
REMARK    5  A    between atoms: N_11  and  C_12
REMARK                            x       y       z     vdW  Elec       q    Type
REMARK                         _______ _______ _______ _____ _____    ______ ____
ROOT
ATOM      1  C   UNL     1       8.870   9.594  18.692  0.00  0.00    +0.000 C 
ATOM      2  C   UNL     1       8.221   9.084  17.633  0.00  0.00    +0.000 C 
ENDROOT
BRANCH   1   6
ATOM      3  C   UNL     1      10.282  13.627  18.980  0.00  0.00    +0.000 A 
ATOM      4  C   UNL     1       9.427  13.231  17.951  0.00  0.00    +0.000 A 
ATOM      5  C   UNL     1       8.985  11.908  17.876  0.00  0.00    +0.000 A 
ATOM      6  C   UNL     1       9.406  10.954  18.812  0.00  0.00    +0.000 A 
ATOM      7  C   UNL     1      10.269  11.355  19.838  0.00  0.00    +0.000 A 
ATOM      8  C   UNL     1      10.712  12.681  19.914  0.00  0.00    +0.000 A 
BRANCH   3  10
ATOM      9  C   UNL     1      11.371  15.575  17.394  0.00  0.00    +0.000 C 
ATOM     10  S   UNL     1      10.839  15.314  19.108  0.00  0.00    +0.000 S 
ENDBRANCH   3  10
ENDBRANCH   1   6
BRANCH   2  11
ATOM     11  C   UNL     1       7.674   7.704  17.761  0.00  0.00    +0.000 C 
ATOM     12  O   UNL     1       8.087   6.954  18.639  0.00  0.00    +0.000 OA
ATOM     13  N   UNL     1       6.721   7.401  16.810  0.00  0.00    +0.000 N 
ATOM     14  H   UNL     1       6.586   8.050  16.046  0.00  0.00    +0.000 HD
BRANCH  13  15
ATOM     15  C   UNL     1       5.967   6.205  16.761  0.00  0.00    +0.000 A 
ATOM     16  C   UNL     1       6.351   5.089  16.013  0.00  0.00    +0.000 A 
ATOM     17  C   UNL     1       5.563   3.936  15.988  0.00  0.00    +0.000 A 
ATOM     18  C   UNL     1       4.378   3.887  16.715  0.00  0.00    +0.000 A 
ATOM     19  C   UNL     1       3.992   4.986  17.481  0.00  0.00    +0.000 A 
ATOM     20  C   UNL     1       4.788   6.138  17.513  0.00  0.00    +0.000 A 
ENDBRANCH  13  15
ENDBRANCH   2  11
TORSDOF 4
ENDMDL
MODEL 2
REMARK VINA RESULT:      -7.3      0.878      1.422
REMARK  Name = 
REMARK  5 active torsions:
REMARK  status: ('A' for Active; 'I' for Inactive)
REMARK    1  A    between atoms: C_1  and  S_2
REMARK    2  A    between atoms: S_2  and  C_3
REMARK    3  A    between atoms: C_6  and  C_7
REMARK    4  A    between atoms: C_8  and  C_9
REMARK    5  A    between atoms: N_11  and  C_12
REMARK                            x       y       z     vdW  Elec       q    Type
REMARK                         _______ _______ _______ _____ _____    ______ ____
ROOT
ATOM      1  C   UNL     1       9.021   9.417  18.934  0.00  0.00    +0.000 C 
ATOM      2  C   UNL     1       8.303   9.025  17.869  0.00  0.00    +0.000 C 
ENDROOT
BRANCH   1   6
ATOM      3  C   UNL     1      10.664  13.343  19.405  0.00  0.00    +0.000 A 
ATOM      4  C   UNL     1      10.527  12.762  18.144  0.00  0.00    +0.000 A 
ATOM      5  C   UNL     1       9.994  11.478  18.017  0.00  0.00    +0.000 A 
ATOM      6  C   UNL     1       9.609  10.743  19.148  0.00  0.00    +0.000 A 
ATOM      7  C   UNL     1       9.755  11.328  20.411  0.00  0.00    +0.000 A 
ATOM      8  C   UNL     1      10.289  12.616  20.537  0.00  0.00    +0.000 A 
BRANCH   3  10
ATOM      9  C   UNL     1       9.813  15.847  20.115  0.00  0.00    +0.000 C 
ATOM     10  S   UNL     1      11.321  14.989  19.587  0.00  0.00    +0.000 S 
ENDBRANCH   3  10
ENDBRANCH   1   6
BRANCH   2  11
ATOM     11  C   UNL     1       7.716   7.655  17.902  0.00  0.00    +0.000 C 
ATOM     12  O   UNL     1       8.114   6.831  18.718  0.00  0.00    +0.000 OA
ATOM     13  N   UNL     1       6.746   7.451  16.941  0.00  0.00    +0.000 N 
ATOM     14  H   UNL     1       6.625   8.158  16.228  0.00  0.00    +0.000 HD
BRANCH  13  15
ATOM     15  C   UNL     1       5.956   6.285  16.812  0.00  0.00    +0.000 A 
ATOM     16  C   UNL     1       4.726   6.121  17.455  0.00  0.00    +0.000 A 
ATOM     17  C   UNL     1       3.990   4.943  17.306  0.00  0.00    +0.000 A 
ATOM     18  C   UNL     1       4.478   3.914  16.508  0.00  0.00    +0.000 A 
ATOM     19  C   UNL     1       5.694   4.071  15.845  0.00  0.00    +0.000 A 
ATOM     20  C   UNL     1       6.427   5.257  15.987  0.00  0.00    +0.000 A 
ENDBRANCH  13  15
ENDBRANCH   2  11
TORSDOF 4
ENDMDL
MODEL 3
REMARK VINA RESULT:      -7.0      0.785      1.718
REMARK  Name = 
REMARK  5 active torsions:
REMARK  status: ('A' for Active; 'I' for Inactive)
REMARK    1  A    between atoms: C_1  and  S_2
REMARK    2  A    between atoms: S_2  and  C_3
REMARK    3  A    between atoms: C_6  and  C_7
REMARK    4  A    between atoms: C_8  and  C_9
REMARK    5  A    between atoms: N_11  and  C_12
REMARK                            x       y       z     vdW  Elec       q    Type
REMARK                         _______ _______ _______ _____ _____    ______ ____
ROOT
ATOM      1  C   UNL     1       8.716   9.492  18.508  0.00  0.00    +0.000 C 
ATOM      2  C   UNL     1       7.947   9.002  17.522  0.00  0.00    +0.000 C 
ENDROOT
BRANCH   1   6
ATOM      3  C   UNL     1      10.545  13.358  18.720  0.00  0.00    +0.000 A 
ATOM      4  C   UNL     1      11.089  12.262  19.390  0.00  0.00    +0.000 A 
ATOM      5  C   UNL     1      10.470  11.012  19.310  0.00  0.00    +0.000 A 
ATOM      6  C   UNL     1       9.287  10.841  18.579  0.00  0.00    +0.000 A 
ATOM      7  C   UNL     1       8.742  11.945  17.914  0.00  0.00    +0.000 A 
ATOM      8  C   UNL     1       9.363  13.198  17.994  0.00  0.00    +0.000 A 
BRANCH   3  10
ATOM      9  C   UNL     1      10.176  15.799  19.904  0.00  0.00    +0.000 C 
ATOM     10  S   UNL     1      11.331  14.955  18.791  0.00  0.00    +0.000 S 
ENDBRANCH   3  10
ENDBRANCH   1   6
BRANCH   2  11
ATOM     11  C   UNL     1       7.392   7.631  17.700  0.00  0.00    +0.000 C 
ATOM     12  O   UNL     1       7.927   6.841  18.470  0.00  0.00    +0.000 OA
ATOM     13  N   UNL     1       6.281   7.383  16.917  0.00  0.00    +0.000 N 
ATOM     14  H   UNL     1       6.037   8.061  16.209  0.00  0.00    +0.000 HD
BRANCH  13  15
ATOM     15  C   UNL     1       5.496   6.207  16.962  0.00  0.00    +0.000 A 
ATOM     16  C   UNL     1       4.548   5.959  17.958  0.00  0.00    +0.000 A 
ATOM     17  C   UNL     1       3.807   4.775  17.964  0.00  0.00    +0.000 A 
ATOM     18  C   UNL     1       4.007   3.824  16.970  0.00  0.00    +0.000 A 
ATOM     19  C   UNL     1       4.936   4.066  15.960  0.00  0.00    +0.000 A 
ATOM     20  C   UNL     1       5.671   5.258  15.948  0.00  0.00    +0.000 A 
ENDBRANCH  13  15
ENDBRANCH   2  11
TORSDOF 4
ENDMDL
MODEL 4
REMARK VINA RESULT:      -6.8      1.255      1.456
REMARK  Name = 
REMARK  5 active torsions:
REMARK  status: ('A' for Active; 'I' for Inactive)
REMARK    1  A    between atoms: C_1  and  S_2
REMARK    2  A    between atoms: S_2  and  C_3
REMARK    3  A    between atoms: C_6  and  C_7
REMARK    4  A    between atoms: C_8  and  C_9
REMARK    5  A    between atoms: N_11  and  C_12
REMARK                            x       y       z     vdW  Elec       q    Type
REMARK                         _______ _______ _______ _____ _____    ______ ____
ROOT
ATOM      1  C   UNL     1       8.627   8.832  18.555  0.00  0.00    +0.000 C 
ATOM      2  C   UNL     1       7.689   8.635  17.615  0.00  0.00    +0.000 C 
ENDROOT
BRANCH   1   6
ATOM      3  C   UNL     1      10.125  12.683  19.681  0.00  0.00    +0.000 A 
ATOM      4  C   UNL     1       9.933  12.345  18.341  0.00  0.00    +0.000 A 
ATOM      5  C   UNL     1       9.448  11.080  17.999  0.00  0.00    +0.000 A 
ATOM      6  C   UNL     1       9.169  10.125  18.987  0.00  0.00    +0.000 A 
ATOM      7  C   UNL     1       9.370  10.467  20.329  0.00  0.00    +0.000 A 
ATOM      8  C   UNL     1       9.855  11.735  20.671  0.00  0.00    +0.000 A 
BRANCH   3  10
ATOM      9  C   UNL     1      11.367  14.837  18.533  0.00  0.00    +0.000 C 
ATOM     10  S   UNL     1      10.720  14.298  20.140  0.00  0.00    +0.000 S 
ENDBRANCH   3  10
ENDBRANCH   1   6
BRANCH   2  11
ATOM     11  C   UNL     1       7.212   7.240  17.400  0.00  0.00    +0.000 C 
ATOM     12  O   UNL     1       7.921   6.426  16.818  0.00  0.00    +0.000 OA
ATOM     13  N   UNL     1       5.944   7.011  17.895  0.00  0.00    +0.000 N 
ATOM     14  H   UNL     1       5.405   7.806  18.210  0.00  0.00    +0.000 HD
BRANCH  13  15
ATOM     15  C   UNL     1       5.291   5.757  17.921  0.00  0.00    +0.000 A 
ATOM     16  C   UNL     1       4.587   5.239  16.829  0.00  0.00    +0.000 A 
ATOM     17  C   UNL     1       3.949   3.999  16.911  0.00  0.00    +0.000 A 
ATOM     18  C   UNL     1       4.008   3.262  18.088  0.00  0.00    +0.000 A 
ATOM     19  C   UNL     1       4.722   3.757  19.178  0.00  0.00    +0.000 A 
ATOM     20  C   UNL     1       5.371   4.995  19.092  0.00  0.00    +0.000 A 
ENDBRANCH  13  15
ENDBRANCH   2  11
TORSDOF 4
ENDMDL
MODEL 5
REMARK VINA RESULT:      -6.8      1.513      1.940
REMARK  Name = 
REMARK  5 active torsions:
REMARK  status: ('A' for Active; 'I' for Inactive)
REMARK    1  A    between atoms: C_1  and  S_2
REMARK    2  A    between atoms: S_2  and  C_3
REMARK    3  A    between atoms: C_6  and  C_7
REMARK    4  A    between atoms: C_8  and  C_9
REMARK    5  A    between atoms: N_11  and  C_12
REMARK                            x       y       z     vdW  Elec       q    Type
REMARK                         _______ _______ _______ _____ _____    ______ ____
ROOT
ATOM      1  C   UNL     1       8.353   8.551  18.436  0.00  0.00    +0.000 C 
ATOM      2  C   UNL     1       7.643   8.155  17.368  0.00  0.00    +0.000 C 
ENDROOT
BRANCH   1   6
ATOM      3  C   UNL     1       9.729  12.554  19.080  0.00  0.00    +0.000 A 
ATOM      4  C   UNL     1       9.053  12.201  17.912  0.00  0.00    +0.000 A 
ATOM      5  C   UNL     1       8.619  10.886  17.723  0.00  0.00    +0.000 A 
ATOM      6  C   UNL     1       8.872   9.900  18.686  0.00  0.00    +0.000 A 
ATOM      7  C   UNL     1       9.556  10.259  19.853  0.00  0.00    +0.000 A 
ATOM      8  C   UNL     1       9.991  11.576  20.042  0.00  0.00    +0.000 A 
BRANCH   3  10
ATOM      9  C   UNL     1      10.306  14.234  21.164  0.00  0.00    +0.000 C 
ATOM     10  S   UNL     1      10.271  14.230  19.351  0.00  0.00    +0.000 S 
ENDBRANCH   3  10
ENDBRANCH   1   6
BRANCH   2  11
ATOM     11  C   UNL     1       7.130   6.756  17.362  0.00  0.00    +0.000 C 
ATOM     12  O   UNL     1       7.836   5.840  16.956  0.00  0.00    +0.000 OA
ATOM     13  N   UNL     1       5.834   6.645  17.825  0.00  0.00    +0.000 N 
ATOM     14  H   UNL     1       5.308   7.495  17.978  0.00  0.00    +0.000 HD
BRANCH  13  15
ATOM     15  C   UNL     1       5.139   5.430  18.024  0.00  0.00    +0.000 A 
ATOM     16  C   UNL     1       5.301   4.633  19.161  0.00  0.00    +0.000 A 
ATOM     17  C   UNL     1       4.600   3.434  19.303  0.00  0.00    +0.000 A 
ATOM     18  C   UNL     1       3.724   3.017  18.306  0.00  0.00    +0.000 A 
ATOM     19  C   UNL     1       3.538   3.810  17.175  0.00  0.00    +0.000 A 
ATOM     20  C   UNL     1       4.234   5.018  17.038  0.00  0.00    +0.000 A 
ENDBRANCH  13  15
ENDBRANCH   2  11
TORSDOF 4
ENDMDL
MODEL 6
REMARK VINA RESULT:      -6.8      1.588      1.738
REMARK  Name = 
REMARK  5 active torsions:
REMARK  status: ('A' for Active; 'I' for Inactive)
REMARK    1  A    between atoms: C_1  and  S_2
REMARK    2  A    between atoms: S_2  and  C_3
REMARK    3  A    between atoms: C_6  and  C_7
REMARK    4  A    between atoms: C_8  and  C_9
REMARK    5  A    between atoms: N_11  and  C_12
REMARK                            x       y       z     vdW  Elec       q    Type
REMARK                         _______ _______ _______ _____ _____    ______ ____
ROOT
ATOM      1  C   UNL     1       8.111   9.076  18.026  0.00  0.00    +0.000 C 
ATOM      2  C   UNL     1       8.273   7.751  18.174  0.00  0.00    +0.000 C 
ENDROOT
BRANCH   1   6
ATOM      3  C   UNL     1      10.703  12.233  19.310  0.00  0.00    +0.000 A 
ATOM      4  C   UNL     1      10.493  11.975  17.955  0.00  0.00    +0.000 A 
ATOM      5  C   UNL     1       9.647  10.936  17.562  0.00  0.00    +0.000 A 
ATOM      6  C   UNL     1       9.015  10.123  18.513  0.00  0.00    +0.000 A 
ATOM      7  C   UNL     1       9.235  10.382  19.871  0.00  0.00    +0.000 A 
ATOM      8  C   UNL     1      10.082  11.425  20.264  0.00  0.00    +0.000 A 
BRANCH   3  10
ATOM      9  C   UNL     1      10.573  14.502  20.837  0.00  0.00    +0.000 C 
ATOM     10  S   UNL     1      11.760  13.569  19.833  0.00  0.00    +0.000 S 
ENDBRANCH   3  10
ENDBRANCH   1   6
BRANCH   2  11
ATOM     11  C   UNL     1       7.278   6.859  17.514  0.00  0.00    +0.000 C 
ATOM     12  O   UNL     1       7.439   6.508  16.350  0.00  0.00    +0.000 OA
ATOM     13  N   UNL     1       6.215   6.524  18.329  0.00  0.00    +0.000 N 
ATOM     14  H   UNL     1       6.121   7.008  19.212  0.00  0.00    +0.000 HD
BRANCH  13  15
ATOM     15  C   UNL     1       5.185   5.614  17.996  0.00  0.00    +0.000 A 
ATOM     16  C   UNL     1       5.431   4.316  17.539  0.00  0.00    +0.000 A 
ATOM     17  C   UNL     1       4.377   3.460  17.211  0.00  0.00    +0.000 A 
ATOM     18  C   UNL     1       3.062   3.893  17.338  0.00  0.00    +0.000 A 
ATOM     19  C   UNL     1       2.802   5.179  17.811  0.00  0.00    +0.000 A 
ATOM     20  C   UNL     1       3.859   6.033  18.150  0.00  0.00    +0.000 A 
ENDBRANCH  13  15
ENDBRANCH   2  11
TORSDOF 4
ENDMDL
MODEL 7
REMARK VINA RESULT:      -6.8      1.334      2.114
REMARK  Name = 
REMARK  5 active torsions:
REMARK  status: ('A' for Active; 'I' for Inactive)
REMARK    1  A    between atoms: C_1  and  S_2
REMARK    2  A    between atoms: S_2  and  C_3
REMARK    3  A    between atoms: C_6  and  C_7
REMARK    4  A    between atoms: C_8  and  C_9
REMARK    5  A    between atoms: N_11  and  C_12
REMARK                            x       y       z     vdW  Elec       q    Type
REMARK                         _______ _______ _______ _____ _____    ______ ____
ROOT
ATOM      1  C   UNL     1       8.321   8.557  18.451  0.00  0.00    +0.000 C 
ATOM      2  C   UNL     1       7.633   8.102  17.392  0.00  0.00    +0.000 C 
ENDROOT
BRANCH   1   6
ATOM      3  C   UNL     1       9.943  12.468  19.093  0.00  0.00    +0.000 A 
ATOM      4  C   UNL     1      10.051  11.471  20.063  0.00  0.00    +0.000 A 
ATOM      5  C   UNL     1       9.508  10.205  19.833  0.00  0.00    +0.000 A 
ATOM      6  C   UNL     1       8.830   9.919  18.639  0.00  0.00    +0.000 A 
ATOM      7  C   UNL     1       8.719  10.925  17.672  0.00  0.00    +0.000 A 
ATOM      8  C   UNL     1       9.264  12.193  17.904  0.00  0.00    +0.000 A 
BRANCH   3  10
ATOM      9  C   UNL     1       9.370  15.092  18.562  0.00  0.00    +0.000 C 
ATOM     10  S   UNL     1      10.649  14.082  19.358  0.00  0.00    +0.000 S 
ENDBRANCH   3  10
ENDBRANCH   1   6
BRANCH   2  11
ATOM     11  C   UNL     1       7.126   6.702  17.451  0.00  0.00    +0.000 C 
ATOM     12  O   UNL     1       7.875   5.762  17.208  0.00  0.00    +0.000 OA
ATOM     13  N   UNL     1       5.786   6.617  17.773  0.00  0.00    +0.000 N 
ATOM     14  H   UNL     1       5.246   7.471  17.792  0.00  0.00    +0.000 HD
BRANCH  13  15
ATOM     15  C   UNL     1       5.075   5.416  17.998  0.00  0.00    +0.000 A 
ATOM     16  C   UNL     1       5.084   4.740  19.222  0.00  0.00    +0.000 A 
ATOM     17  C   UNL     1       4.374   3.548  19.388  0.00  0.00    +0.000 A 
ATOM     18  C   UNL     1       3.643   3.020  18.330  0.00  0.00    +0.000 A 
ATOM     19  C   UNL     1       3.610   3.693  17.110  0.00  0.00    +0.000 A 
ATOM     20  C   UNL     1       4.313   4.893  16.947  0.00  0.00    +0.000 A 
ENDBRANCH  13  15
ENDBRANCH   2  11
TORSDOF 4
ENDMDL
MODEL 8
REMARK VINA RESULT:      -6.7      1.439      1.974
REMARK  Name = 
REMARK  5 active torsions:
REMARK  status: ('A' for Active; 'I' for Inactive)
REMARK    1  A    between atoms: C_1  and  S_2
REMARK    2  A    between atoms: S_2  and  C_3
REMARK    3  A    between atoms: C_6  and  C_7
REMARK    4  A    between atoms: C_8  and  C_9
REMARK    5  A    between atoms: N_11  and  C_12
REMARK                            x       y       z     vdW  Elec       q    Type
REMARK                         _______ _______ _______ _____ _____    ______ ____
ROOT
ATOM      1  C   UNL     1       7.871   9.221  17.854  0.00  0.00    +0.000 C 
ATOM      2  C   UNL     1       8.148   7.920  18.040  0.00  0.00    +0.000 C 
ENDROOT
BRANCH   1   6
ATOM      3  C   UNL     1      10.350  12.423  19.244  0.00  0.00    +0.000 A 
ATOM      4  C   UNL     1      10.330  11.189  19.894  0.00  0.00    +0.000 A 
ATOM      5  C   UNL     1       9.508  10.162  19.425  0.00  0.00    +0.000 A 
ATOM      6  C   UNL     1       8.677  10.357  18.313  0.00  0.00    +0.000 A 
ATOM      7  C   UNL     1       8.696  11.599  17.669  0.00  0.00    +0.000 A 
ATOM      8  C   UNL     1       9.521  12.628  18.139  0.00  0.00    +0.000 A 
BRANCH   3  10
ATOM      9  C   UNL     1      10.360  14.405  21.134  0.00  0.00    +0.000 C 
ATOM     10  S   UNL     1      11.408  13.739  19.813  0.00  0.00    +0.000 S 
ENDBRANCH   3  10
ENDBRANCH   1   6
BRANCH   2  11
ATOM     11  C   UNL     1       7.238   6.926  17.403  0.00  0.00    +0.000 C 
ATOM     12  O   UNL     1       7.500   6.467  16.297  0.00  0.00    +0.000 OA
ATOM     13  N   UNL     1       6.127   6.631  18.168  0.00  0.00    +0.000 N 
ATOM     14  H   UNL     1       5.948   7.196  18.987  0.00  0.00    +0.000 HD
BRANCH  13  15
ATOM     15  C   UNL     1       5.157   5.650  17.856  0.00  0.00    +0.000 A 
ATOM     16  C   UNL     1       5.482   4.390  17.344  0.00  0.00    +0.000 A 
ATOM     17  C   UNL     1       4.484   3.461  17.040  0.00  0.00    +0.000 A 
ATOM     18  C   UNL     1       3.147   3.782  17.247  0.00  0.00    +0.000 A 
ATOM     19  C   UNL     1       2.810   5.027  17.775  0.00  0.00    +0.000 A 
ATOM     20  C   UNL     1       3.811   5.954  18.090  0.00  0.00    +0.000 A 
ENDBRANCH  13  15
ENDBRANCH   2  11
TORSDOF 4
ENDMDL
MODEL 9
REMARK VINA RESULT:      -6.7      1.505      1.887
REMARK  Name = 
REMARK  5 active torsions:
REMARK  status: ('A' for Active; 'I' for Inactive)
REMARK    1  A    between atoms: C_1  and  S_2
REMARK    2  A    between atoms: S_2  and  C_3
REMARK    3  A    between atoms: C_6  and  C_7
REMARK    4  A    between atoms: C_8  and  C_9
REMARK    5  A    between atoms: N_11  and  C_12
REMARK                            x       y       z     vdW  Elec       q    Type
REMARK                         _______ _______ _______ _____ _____    ______ ____
ROOT
ATOM      1  C   UNL     1       7.909   8.979  17.885  0.00  0.00    +0.000 C 
ATOM      2  C   UNL     1       8.183   7.701  18.193  0.00  0.00    +0.000 C 
ENDROOT
BRANCH   1   6
ATOM      3  C   UNL     1      10.005  12.526  19.052  0.00  0.00    +0.000 A 
ATOM      4  C   UNL     1       9.149  12.520  17.951  0.00  0.00    +0.000 A 
ATOM      5  C   UNL     1       8.481  11.349  17.586  0.00  0.00    +0.000 A 
ATOM      6  C   UNL     1       8.673  10.159  18.302  0.00  0.00    +0.000 A 
ATOM      7  C   UNL     1       9.538  10.168  19.402  0.00  0.00    +0.000 A 
ATOM      8  C   UNL     1      10.207  11.343  19.767  0.00  0.00    +0.000 A 
BRANCH   3  10
ATOM      9  C   UNL     1      10.249  14.135  21.254  0.00  0.00    +0.000 C 
ATOM     10  S   UNL     1      10.849  14.015  19.547  0.00  0.00    +0.000 S 
ENDBRANCH   3  10
ENDBRANCH   1   6
BRANCH   2  11
ATOM     11  C   UNL     1       7.326   6.647  17.581  0.00  0.00    +0.000 C 
ATOM     12  O   UNL     1       7.568   6.230  16.454  0.00  0.00    +0.000 OA
ATOM     13  N   UNL     1       6.283   6.248  18.393  0.00  0.00    +0.000 N 
ATOM     14  H   UNL     1       6.100   6.783  19.232  0.00  0.00    +0.000 HD
BRANCH  13  15
ATOM     15  C   UNL     1       5.381   5.196  18.108  0.00  0.00    +0.000 A 
ATOM     16  C   UNL     1       4.673   5.101  16.907  0.00  0.00    +0.000 A 
ATOM     17  C   UNL     1       3.784   4.048  16.680  0.00  0.00    +0.000 A 
ATOM     18  C   UNL     1       3.595   3.074  17.654  0.00  0.00    +0.000 A 
ATOM     19  C   UNL     1       4.309   3.146  18.849  0.00  0.00    +0.000 A 
ATOM     20  C   UNL     1       5.208   4.196  19.072  0.00  0.00    +0.000 A 
ENDBRANCH  13  15
ENDBRANCH   2  11
TORSDOF 4
ENDMDL
