MODEL 1
REMARK VINA RESULT:      -8.0      0.000      0.000
REMARK  Name = 
REMARK  7 active torsions:
REMARK  status: ('A' for Active; 'I' for Inactive)
REMARK    1  A    between atoms: C_2  and  C_3
REMARK    2  A    between atoms: C_3  and  O_4
REMARK    3  A    between atoms: O_4  and  C_5
REMARK    4  A    between atoms: C_8  and  C_9
REMARK    5  A    between atoms: N_11  and  C_12
REMARK    6  A    between atoms: C_16  and  C_17
REMARK    7  A    between atoms: C_17  and  C_18
REMARK                            x       y       z     vdW  Elec       q    Type
REMARK                         _______ _______ _______ _____ _____    ______ ____
ROOT
ATOM      1  C   UNL     1       2.585   6.287  18.360  0.00  0.00    +0.000 A 
ATOM      2  C   UNL     1       1.772   5.197  18.039  0.00  0.00    +0.000 A 
ATOM      3  C   UNL     1       2.279   4.108  17.340  0.00  0.00    +0.000 A 
ATOM      4  C   UNL     1       3.617   4.090  16.959  0.00  0.00    +0.000 A 
ATOM      5  C   UNL     1       4.473   5.171  17.248  0.00  0.00    +0.000 A 
ATOM      6  C   UNL     1       3.928   6.276  17.945  0.00  0.00    +0.000 A 
ENDROOT
BRANCH   5   7
ATOM      7  C   UNL     1       5.960   5.159  16.761  0.00  0.00    +0.000 C 
ATOM      8  C   UNL     1       6.742   4.254  17.758  0.00  0.00    +0.000 C 
ATOM      9  C   UNL     1       8.112   4.709  18.211  0.00  0.00    +0.000 C 
ATOM     10  S   UNL     1       8.103   6.404  18.794  0.00  0.00    +0.000 S 
ATOM     11  C   UNL     1       7.263   7.137  17.483  0.00  0.00    +0.000 C 
ATOM     12  N   UNL     1       7.485   8.469  17.368  0.00  0.00    +0.000 N 
ATOM     13  N   UNL     1       6.437   6.559  16.706  0.00  0.00    +0.000 NA
ATOM     14  H   UNL     1       7.845   8.908  18.208  0.00  0.00    +0.000 HD
ATOM     15  H   UNL     1       6.708   8.958  16.940  0.00  0.00    +0.000 HD
BRANCH   7  16
ATOM     16  C   UNL     1       6.064   4.576  15.285  0.00  0.00    +0.000 C 
ATOM     17  F   UNL     1       6.022   3.223  15.241  0.00  0.00    +0.000 F 
ATOM     18  F   UNL     1       5.058   5.014  14.484  0.00  0.00    +0.000 F 
ATOM     19  F   UNL     1       7.215   4.942  14.665  0.00  0.00    +0.000 F 
ENDBRANCH   7  16
ENDBRANCH   5   7
BRANCH   1  22
ATOM     20  C   UNL     1       1.810   8.648  18.540  0.00  0.00    +0.000 C 
ATOM     21  O   UNL     1       1.926   8.955  17.347  0.00  0.00    +0.000 OA
ATOM     22  N   UNL     1       2.102   7.406  19.085  0.00  0.00    +0.000 N 
ATOM     23  H   UNL     1       1.848   7.280  20.061  0.00  0.00    +0.000 HD
BRANCH  20  27
ATOM     24  C   UNL     1       0.313  11.446  21.248  0.00  0.00    +0.000 A 
ATOM     25  C   UNL     1       0.755  11.849  19.986  0.00  0.00    +0.000 A 
ATOM     26  N   UNL     1       1.259  10.988  19.052  0.00  0.00    +0.000 NA
ATOM     27  C   UNL     1       1.306   9.692  19.465  0.00  0.00    +0.000 A 
ATOM     28  C   UNL     1       0.889   9.299  20.735  0.00  0.00    +0.000 A 
ATOM     29  N   UNL     1       0.387  10.164  21.655  0.00  0.00    +0.000 NA
BRANCH  24  30
ATOM     30  O   UNL     1      -0.192  12.391  22.109  0.00  0.00    +0.000 OA
BRANCH  30  31
ATOM     31  C   UNL     1      -1.222  11.877  22.968  0.00  0.00    +0.000 C 
BRANCH  31  33
ATOM     32  C   UNL     1      -3.686  12.764  21.911  0.00  0.00    +0.000 C 
ATOM     33  C   UNL     1      -2.547  12.354  22.400  0.00  0.00    +0.000 C 
ENDBRANCH  31  33
ENDBRANCH  30  31
ENDBRANCH  24  30
ENDBRANCH  20  27
ENDBRANCH   1  22
TORSDOF 7
ENDMDL
MODEL 2
REMARK VINA RESULT:      -8.0      1.015      1.246
REMARK  Name = 
REMARK  7 active torsions:
REMARK  status: ('A' for Active; 'I' for Inactive)
REMARK    1  A    between atoms: C_2  and  C_3
REMARK    2  A    between atoms: C_3  and  O_4
REMARK    3  A    between atoms: O_4  and  C_5
REMARK    4  A    between atoms: C_8  and  C_9
REMARK    5  A    between atoms: N_11  and  C_12
REMARK    6  A    between atoms: C_16  and  C_17
REMARK    7  A    between atoms: C_17  and  C_18
REMARK                            x       y       z     vdW  Elec       q    Type
REMARK                         _______ _______ _______ _____ _____    ______ ____
ROOT
ATOM      1  C   UNL     1       2.567   6.344  18.243  0.00  0.00    +0.000 A 
ATOM      2  C   UNL     1       1.776   5.222  17.986  0.00  0.00    +0.000 A 
ATOM      3  C   UNL     1       2.307   4.100  17.359  0.00  0.00    +0.000 A 
ATOM      4  C   UNL     1       3.646   4.084  16.985  0.00  0.00    +0.000 A 
ATOM      5  C   UNL     1       4.481   5.196  17.211  0.00  0.00    +0.000 A 
ATOM      6  C   UNL     1       3.912   6.332  17.836  0.00  0.00    +0.000 A 
ENDROOT
BRANCH   5   7
ATOM      7  C   UNL     1       5.970   5.182  16.733  0.00  0.00    +0.000 C 
ATOM      8  C   UNL     1       6.741   4.256  17.720  0.00  0.00    +0.000 C 
ATOM      9  C   UNL     1       8.111   4.696  18.188  0.00  0.00    +0.000 C 
ATOM     10  S   UNL     1       8.110   6.382  18.796  0.00  0.00    +0.000 S 
ATOM     11  C   UNL     1       7.282   7.140  17.492  0.00  0.00    +0.000 C 
ATOM     12  N   UNL     1       7.514   8.472  17.398  0.00  0.00    +0.000 N 
ATOM     13  N   UNL     1       6.457   6.580  16.701  0.00  0.00    +0.000 NA
ATOM     14  H   UNL     1       7.872   8.896  18.248  0.00  0.00    +0.000 HD
ATOM     15  H   UNL     1       6.743   8.973  16.974  0.00  0.00    +0.000 HD
BRANCH   7  16
ATOM     16  C   UNL     1       6.079   4.621  15.248  0.00  0.00    +0.000 C 
ATOM     17  F   UNL     1       5.070   5.035  14.445  0.00  0.00    +0.000 F 
ATOM     18  F   UNL     1       7.231   4.999  14.636  0.00  0.00    +0.000 F 
ATOM     19  F   UNL     1       6.068   3.264  15.206  0.00  0.00    +0.000 F 
ENDBRANCH   7  16
ENDBRANCH   5   7
BRANCH   1  22
ATOM     20  C   UNL     1       1.635   7.550  20.215  0.00  0.00    +0.000 C 
ATOM     21  O   UNL     1       1.643   6.603  21.011  0.00  0.00    +0.000 OA
ATOM     22  N   UNL     1       2.060   7.497  18.895  0.00  0.00    +0.000 N 
ATOM     23  H   UNL     1       2.095   8.387  18.405  0.00  0.00    +0.000 HD
BRANCH  20  27
ATOM     24  C   UNL     1       0.212  11.139  21.795  0.00  0.00    +0.000 A 
ATOM     25  C   UNL     1       0.335  10.973  20.413  0.00  0.00    +0.000 A 
ATOM     26  N   UNL     1       0.795   9.827  19.829  0.00  0.00    +0.000 NA
ATOM     27  C   UNL     1       1.142   8.856  20.716  0.00  0.00    +0.000 A 
ATOM     28  C   UNL     1       1.043   9.036  22.094  0.00  0.00    +0.000 A 
ATOM     29  N   UNL     1       0.582  10.179  22.665  0.00  0.00    +0.000 NA
BRANCH  24  30
ATOM     30  O   UNL     1      -0.277  12.328  22.280  0.00  0.00    +0.000 OA
BRANCH  30  31
ATOM     31  C   UNL     1      -1.446  12.162  23.100  0.00  0.00    +0.000 C 
BRANCH  31  33
ATOM     32  C   UNL     1      -3.675  12.780  21.479  0.00  0.00    +0.000 C 
ATOM     33  C   UNL     1      -2.645  12.494  22.228  0.00  0.00    +0.000 C 
ENDBRANCH  31  33
ENDBRANCH  30  31
ENDBRANCH  24  30
ENDBRANCH  20  27
ENDBRANCH   1  22
TORSDOF 7
ENDMDL
MODEL 3
REMARK VINA RESULT:      -7.8      0.817      1.361
REMARK  Name = 
REMARK  7 active torsions:
REMARK  status: ('A' for Active; 'I' for Inactive)
REMARK    1  A    between atoms: C_2  and  C_3
REMARK    2  A    between atoms: C_3  and  O_4
REMARK    3  A    between atoms: O_4  and  C_5
REMARK    4  A    between atoms: C_8  and  C_9
REMARK    5  A    between atoms: N_11  and  C_12
REMARK    6  A    between atoms: C_16  and  C_17
REMARK    7  A    between atoms: C_17  and  C_18
REMARK                            x       y       z     vdW  Elec       q    Type
REMARK                         _______ _______ _______ _____ _____    ______ ____
ROOT
ATOM      1  C   UNL     1       2.518   6.219  18.253  0.00  0.00    +0.000 A 
ATOM      2  C   UNL     1       1.750   5.081  17.995  0.00  0.00    +0.000 A 
ATOM      3  C   UNL     1       2.302   3.975  17.359  0.00  0.00    +0.000 A 
ATOM      4  C   UNL     1       3.639   3.990  16.976  0.00  0.00    +0.000 A 
ATOM      5  C   UNL     1       4.450   5.120  17.202  0.00  0.00    +0.000 A 
ATOM      6  C   UNL     1       3.860   6.239  17.836  0.00  0.00    +0.000 A 
ENDROOT
BRANCH   5   7
ATOM      7  C   UNL     1       5.936   5.141  16.713  0.00  0.00    +0.000 C 
ATOM      8  C   UNL     1       6.734   4.229  17.690  0.00  0.00    +0.000 C 
ATOM      9  C   UNL     1       8.097   4.696  18.152  0.00  0.00    +0.000 C 
ATOM     10  S   UNL     1       8.063   6.379  18.769  0.00  0.00    +0.000 S 
ATOM     11  C   UNL     1       7.209   7.125  17.474  0.00  0.00    +0.000 C 
ATOM     12  N   UNL     1       7.410   8.463  17.385  0.00  0.00    +0.000 N 
ATOM     13  N   UNL     1       6.391   6.550  16.686  0.00  0.00    +0.000 NA
ATOM     14  H   UNL     1       7.764   8.890  18.234  0.00  0.00    +0.000 HD
ATOM     15  H   UNL     1       6.625   8.947  16.969  0.00  0.00    +0.000 HD
BRANCH   7  16
ATOM     16  C   UNL     1       6.047   4.591  15.225  0.00  0.00    +0.000 C 
ATOM     17  F   UNL     1       7.196   4.954  14.606  0.00  0.00    +0.000 F 
ATOM     18  F   UNL     1       5.999   3.234  15.171  0.00  0.00    +0.000 F 
ATOM     19  F   UNL     1       5.033   5.028  14.435  0.00  0.00    +0.000 F 
ENDBRANCH   7  16
ENDBRANCH   5   7
BRANCH   1  22
ATOM     20  C   UNL     1       1.870   8.623  18.359  0.00  0.00    +0.000 C 
ATOM     21  O   UNL     1       2.205   8.938  17.211  0.00  0.00    +0.000 OA
ATOM     22  N   UNL     1       1.989   7.357  18.914  0.00  0.00    +0.000 N 
ATOM     23  H   UNL     1       1.566   7.234  19.830  0.00  0.00    +0.000 HD
BRANCH  20  27
ATOM     24  C   UNL     1       0.278  11.740  20.630  0.00  0.00    +0.000 A 
ATOM     25  C   UNL     1       0.468  10.476  21.195  0.00  0.00    +0.000 A 
ATOM     26  N   UNL     1       0.981   9.412  20.510  0.00  0.00    +0.000 NA
ATOM     27  C   UNL     1       1.283   9.684  19.212  0.00  0.00    +0.000 A 
ATOM     28  C   UNL     1       1.067  10.939  18.644  0.00  0.00    +0.000 A 
ATOM     29  N   UNL     1       0.558  11.992  19.336  0.00  0.00    +0.000 NA
BRANCH  24  30
ATOM     30  O   UNL     1      -0.231  12.748  21.411  0.00  0.00    +0.000 OA
BRANCH  30  31
ATOM     31  C   UNL     1      -0.976  12.264  22.540  0.00  0.00    +0.000 C 
BRANCH  31  33
ATOM     32  C   UNL     1      -1.654  14.518  24.100  0.00  0.00    +0.000 C 
ATOM     33  C   UNL     1      -1.341  13.477  23.380  0.00  0.00    +0.000 C 
ENDBRANCH  31  33
ENDBRANCH  30  31
ENDBRANCH  24  30
ENDBRANCH  20  27
ENDBRANCH   1  22
TORSDOF 7
ENDMDL
MODEL 4
REMARK VINA RESULT:      -7.8      0.881      1.165
REMARK  Name = 
REMARK  7 active torsions:
REMARK  status: ('A' for Active; 'I' for Inactive)
REMARK    1  A    between atoms: C_2  and  C_3
REMARK    2  A    between atoms: C_3  and  O_4
REMARK    3  A    between atoms: O_4  and  C_5
REMARK    4  A    between atoms: C_8  and  C_9
REMARK    5  A    between atoms: N_11  and  C_12
REMARK    6  A    between atoms: C_16  and  C_17
REMARK    7  A    between atoms: C_17  and  C_18
REMARK                            x       y       z     vdW  Elec       q    Type
REMARK                         _______ _______ _______ _____ _____    ______ ____
ROOT
ATOM      1  C   UNL     1       2.580   5.717  18.523  0.00  0.00    +0.000 A 
ATOM      2  C   UNL     1       1.826   4.652  18.023  0.00  0.00    +0.000 A 
ATOM      3  C   UNL     1       2.385   3.727  17.150  0.00  0.00    +0.000 A 
ATOM      4  C   UNL     1       3.717   3.851  16.767  0.00  0.00    +0.000 A 
ATOM      5  C   UNL     1       4.514   4.915  17.232  0.00  0.00    +0.000 A 
ATOM      6  C   UNL     1       3.916   5.853  18.108  0.00  0.00    +0.000 A 
ENDROOT
BRANCH   5   7
ATOM      7  C   UNL     1       5.993   5.071  16.746  0.00  0.00    +0.000 C 
ATOM      8  C   UNL     1       6.871   4.252  17.737  0.00  0.00    +0.000 C 
ATOM      9  C   UNL     1       8.182   4.853  18.194  0.00  0.00    +0.000 C 
ATOM     10  S   UNL     1       7.985   6.532  18.789  0.00  0.00    +0.000 S 
ATOM     11  C   UNL     1       7.069   7.177  17.483  0.00  0.00    +0.000 C 
ATOM     12  N   UNL     1       7.142   8.526  17.377  0.00  0.00    +0.000 N 
ATOM     13  N   UNL     1       6.311   6.516  16.701  0.00  0.00    +0.000 NA
ATOM     14  H   UNL     1       7.451   8.996  18.221  0.00  0.00    +0.000 HD
ATOM     15  H   UNL     1       6.316   8.929  16.952  0.00  0.00    +0.000 HD
BRANCH   7  16
ATOM     16  C   UNL     1       6.160   4.514  15.266  0.00  0.00    +0.000 C 
ATOM     17  F   UNL     1       6.087   3.164  15.192  0.00  0.00    +0.000 F 
ATOM     18  F   UNL     1       5.210   4.993  14.423  0.00  0.00    +0.000 F 
ATOM     19  F   UNL     1       7.352   4.862  14.715  0.00  0.00    +0.000 F 
ENDBRANCH   7  16
ENDBRANCH   5   7
BRANCH   1  22
ATOM     20  C   UNL     1       1.798   8.002  19.135  0.00  0.00    +0.000 C 
ATOM     21  O   UNL     1       2.008   8.550  18.046  0.00  0.00    +0.000 OA
ATOM     22  N   UNL     1       2.044   6.668  19.427  0.00  0.00    +0.000 N 
ATOM     23  H   UNL     1       1.713   6.345  20.332  0.00  0.00    +0.000 HD
BRANCH  20  27
ATOM     24  C   UNL     1       0.161  10.496  22.051  0.00  0.00    +0.000 A 
ATOM     25  C   UNL     1       0.888   9.361  22.417  0.00  0.00    +0.000 A 
ATOM     26  N   UNL     1       1.449   8.500  21.516  0.00  0.00    +0.000 NA
ATOM     27  C   UNL     1       1.225   8.838  20.217  0.00  0.00    +0.000 A 
ATOM     28  C   UNL     1       0.476   9.957  19.857  0.00  0.00    +0.000 A 
ATOM     29  N   UNL     1      -0.075  10.808  20.761  0.00  0.00    +0.000 NA
BRANCH  24  30
ATOM     30  O   UNL     1      -0.348  11.306  23.037  0.00  0.00    +0.000 OA
BRANCH  30  31
ATOM     31  C   UNL     1      -1.059  12.443  22.521  0.00  0.00    +0.000 C 
BRANCH  31  33
ATOM     32  C   UNL     1      -3.570  12.494  23.811  0.00  0.00    +0.000 C 
ATOM     33  C   UNL     1      -2.410  12.470  23.215  0.00  0.00    +0.000 C 
ENDBRANCH  31  33
ENDBRANCH  30  31
ENDBRANCH  24  30
ENDBRANCH  20  27
ENDBRANCH   1  22
TORSDOF 7
ENDMDL
MODEL 5
REMARK VINA RESULT:      -7.8      4.806      9.694
REMARK  Name = 
REMARK  7 active torsions:
REMARK  status: ('A' for Active; 'I' for Inactive)
REMARK    1  A    between atoms: C_2  and  C_3
REMARK    2  A    between atoms: C_3  and  O_4
REMARK    3  A    between atoms: O_4  and  C_5
REMARK    4  A    between atoms: C_8  and  C_9
REMARK    5  A    between atoms: N_11  and  C_12
REMARK    6  A    between atoms: C_16  and  C_17
REMARK    7  A    between atoms: C_17  and  C_18
REMARK                            x       y       z     vdW  Elec       q    Type
REMARK                         _______ _______ _______ _____ _____    ______ ____
ROOT
ATOM      1  C   UNL     1       1.453   8.483  19.867  0.00  0.00    +0.000 A 
ATOM      2  C   UNL     1       1.165   8.133  21.189  0.00  0.00    +0.000 A 
ATOM      3  C   UNL     1       0.336   8.925  21.974  0.00  0.00    +0.000 A 
ATOM      4  C   UNL     1      -0.227  10.081  21.442  0.00  0.00    +0.000 A 
ATOM      5  C   UNL     1       0.043  10.482  20.119  0.00  0.00    +0.000 A 
ATOM      6  C   UNL     1       0.905   9.667  19.345  0.00  0.00    +0.000 A 
ENDROOT
BRANCH   5   7
ATOM      7  C   UNL     1      -0.552  11.814  19.556  0.00  0.00    +0.000 C 
ATOM      8  C   UNL     1      -1.759  12.179  20.470  0.00  0.00    +0.000 C 
ATOM      9  C   UNL     1      -3.020  12.696  19.814  0.00  0.00    +0.000 C 
ATOM     10  S   UNL     1      -3.562  11.646  18.466  0.00  0.00    +0.000 S 
ATOM     11  C   UNL     1      -2.069  11.492  17.625  0.00  0.00    +0.000 C 
ATOM     12  N   UNL     1      -2.209  11.156  16.319  0.00  0.00    +0.000 N 
ATOM     13  N   UNL     1      -0.908  11.595  18.135  0.00  0.00    +0.000 NA
ATOM     14  H   UNL     1      -3.108  10.746  16.086  0.00  0.00    +0.000 HD
ATOM     15  H   UNL     1      -1.411  10.646  15.961  0.00  0.00    +0.000 HD
BRANCH   7  16
ATOM     16  C   UNL     1       0.536  12.975  19.586  0.00  0.00    +0.000 C 
ATOM     17  F   UNL     1       0.983  13.319  18.355  0.00  0.00    +0.000 F 
ATOM     18  F   UNL     1       0.060  14.115  20.150  0.00  0.00    +0.000 F 
ATOM     19  F   UNL     1       1.633  12.635  20.309  0.00  0.00    +0.000 F 
ENDBRANCH   7  16
ENDBRANCH   5   7
BRANCH   1  22
ATOM     20  C   UNL     1       2.576   6.348  19.242  0.00  0.00    +0.000 C 
ATOM     21  O   UNL     1       2.154   5.656  20.176  0.00  0.00    +0.000 OA
ATOM     22  N   UNL     1       2.283   7.689  19.036  0.00  0.00    +0.000 N 
ATOM     23  H   UNL     1       2.617   8.085  18.162  0.00  0.00    +0.000 HD
BRANCH  20  27
ATOM     24  C   UNL     1       5.036   4.323  16.548  0.00  0.00    +0.000 A 
ATOM     25  C   UNL     1       5.097   5.715  16.655  0.00  0.00    +0.000 A 
ATOM     26  N   UNL     1       4.320   6.441  17.513  0.00  0.00    +0.000 NA
ATOM     27  C   UNL     1       3.462   5.688  18.253  0.00  0.00    +0.000 A 
ATOM     28  C   UNL     1       3.385   4.302  18.123  0.00  0.00    +0.000 A 
ATOM     29  N   UNL     1       4.165   3.590  17.269  0.00  0.00    +0.000 NA
BRANCH  24  30
ATOM     30  O   UNL     1       5.873   3.687  15.664  0.00  0.00    +0.000 OA
BRANCH  30  31
ATOM     31  C   UNL     1       6.327   4.543  14.604  0.00  0.00    +0.000 C 
BRANCH  31  33
ATOM     32  C   UNL     1       5.720   3.231  12.178  0.00  0.00    +0.000 C 
ATOM     33  C   UNL     1       6.000   3.837  13.299  0.00  0.00    +0.000 C 
ENDBRANCH  31  33
ENDBRANCH  30  31
ENDBRANCH  24  30
ENDBRANCH  20  27
ENDBRANCH   1  22
TORSDOF 7
ENDMDL
MODEL 6
REMARK VINA RESULT:      -7.7      4.788      9.748
REMARK  Name = 
REMARK  7 active torsions:
REMARK  status: ('A' for Active; 'I' for Inactive)
REMARK    1  A    between atoms: C_2  and  C_3
REMARK    2  A    between atoms: C_3  and  O_4
REMARK    3  A    between atoms: O_4  and  C_5
REMARK    4  A    between atoms: C_8  and  C_9
REMARK    5  A    between atoms: N_11  and  C_12
REMARK    6  A    between atoms: C_16  and  C_17
REMARK    7  A    between atoms: C_17  and  C_18
REMARK                            x       y       z     vdW  Elec       q    Type
REMARK                         _______ _______ _______ _____ _____    ______ ____
ROOT
ATOM      1  C   UNL     1       1.623   8.594  19.538  0.00  0.00    +0.000 A 
ATOM      2  C   UNL     1       1.343   8.054  20.796  0.00  0.00    +0.000 A 
ATOM      3  C   UNL     1       0.459   8.684  21.665  0.00  0.00    +0.000 A 
ATOM      4  C   UNL     1      -0.166   9.866  21.280  0.00  0.00    +0.000 A 
ATOM      5  C   UNL     1       0.094  10.456  20.028  0.00  0.00    +0.000 A 
ATOM      6  C   UNL     1       1.011   9.804  19.169  0.00  0.00    +0.000 A 
ENDROOT
BRANCH   5   7
ATOM      7  C   UNL     1      -0.574  11.815  19.636  0.00  0.00    +0.000 C 
ATOM      8  C   UNL     1      -1.784  12.004  20.597  0.00  0.00    +0.000 C 
ATOM      9  C   UNL     1      -3.079  12.533  20.020  0.00  0.00    +0.000 C 
ATOM     10  S   UNL     1      -3.588  11.628  18.559  0.00  0.00    +0.000 S 
ATOM     11  C   UNL     1      -2.102  11.653  17.693  0.00  0.00    +0.000 C 
ATOM     12  N   UNL     1      -2.244  11.471  16.357  0.00  0.00    +0.000 N 
ATOM     13  N   UNL     1      -0.939  11.751  18.202  0.00  0.00    +0.000 NA
ATOM     14  H   UNL     1      -3.124  11.047  16.084  0.00  0.00    +0.000 HD
ATOM     15  H   UNL     1      -1.427  11.049  15.933  0.00  0.00    +0.000 HD
BRANCH   7  16
ATOM     16  C   UNL     1       0.455  13.016  19.798  0.00  0.00    +0.000 C 
ATOM     17  F   UNL     1       1.279  13.162  18.733  0.00  0.00    +0.000 F 
ATOM     18  F   UNL     1      -0.167  14.212  19.963  0.00  0.00    +0.000 F 
ATOM     19  F   UNL     1       1.259  12.866  20.883  0.00  0.00    +0.000 F 
ENDBRANCH   7  16
ENDBRANCH   5   7
BRANCH   1  22
ATOM     20  C   UNL     1       2.891   6.634  18.665  0.00  0.00    +0.000 C 
ATOM     21  O   UNL     1       2.514   5.804  19.501  0.00  0.00    +0.000 OA
ATOM     22  N   UNL     1       2.508   7.967  18.625  0.00  0.00    +0.000 N 
ATOM     23  H   UNL     1       2.817   8.492  17.811  0.00  0.00    +0.000 HD
BRANCH  20  27
ATOM     24  C   UNL     1       5.504   5.488  15.621  0.00  0.00    +0.000 A 
ATOM     25  C   UNL     1       4.876   4.526  16.416  0.00  0.00    +0.000 A 
ATOM     26  N   UNL     1       4.012   4.830  17.430  0.00  0.00    +0.000 NA
ATOM     27  C   UNL     1       3.823   6.165  17.612  0.00  0.00    +0.000 A 
ATOM     28  C   UNL     1       4.473   7.122  16.835  0.00  0.00    +0.000 A 
ATOM     29  N   UNL     1       5.329   6.808  15.827  0.00  0.00    +0.000 NA
BRANCH  24  30
ATOM     30  O   UNL     1       6.344   5.075  14.616  0.00  0.00    +0.000 OA
BRANCH  30  31
ATOM     31  C   UNL     1       6.253   3.666  14.350  0.00  0.00    +0.000 C 
BRANCH  31  33
ATOM     32  C   UNL     1       5.013   3.388  11.828  0.00  0.00    +0.000 C 
ATOM     33  C   UNL     1       5.586   3.516  12.994  0.00  0.00    +0.000 C 
ENDBRANCH  31  33
ENDBRANCH  30  31
ENDBRANCH  24  30
ENDBRANCH  20  27
ENDBRANCH   1  22
TORSDOF 7
ENDMDL
MODEL 7
REMARK VINA RESULT:      -7.7      1.131      1.401
REMARK  Name = 
REMARK  7 active torsions:
REMARK  status: ('A' for Active; 'I' for Inactive)
REMARK    1  A    between atoms: C_2  and  C_3
REMARK    2  A    between atoms: C_3  and  O_4
REMARK    3  A    between atoms: O_4  and  C_5
REMARK    4  A    between atoms: C_8  and  C_9
REMARK    5  A    between atoms: N_11  and  C_12
REMARK    6  A    between atoms: C_16  and  C_17
REMARK    7  A    between atoms: C_17  and  C_18
REMARK                            x       y       z     vdW  Elec       q    Type
REMARK                         _______ _______ _______ _____ _____    ______ ____
ROOT
ATOM      1  C   UNL     1       2.515   6.585  18.105  0.00  0.00    +0.000 A 
ATOM      2  C   UNL     1       1.741   5.425  18.012  0.00  0.00    +0.000 A 
ATOM      3  C   UNL     1       2.289   4.233  17.554  0.00  0.00    +0.000 A 
ATOM      4  C   UNL     1       3.630   4.183  17.187  0.00  0.00    +0.000 A 
ATOM      5  C   UNL     1       4.448   5.328  17.250  0.00  0.00    +0.000 A 
ATOM      6  C   UNL     1       3.861   6.534  17.703  0.00  0.00    +0.000 A 
ENDROOT
BRANCH   5   7
ATOM      7  C   UNL     1       5.938   5.266  16.779  0.00  0.00    +0.000 C 
ATOM      8  C   UNL     1       6.678   4.331  17.780  0.00  0.00    +0.000 C 
ATOM      9  C   UNL     1       8.058   4.737  18.250  0.00  0.00    +0.000 C 
ATOM     10  S   UNL     1       8.101   6.429  18.840  0.00  0.00    +0.000 S 
ATOM     11  C   UNL     1       7.301   7.196  17.523  0.00  0.00    +0.000 C 
ATOM     12  N   UNL     1       7.571   8.520  17.416  0.00  0.00    +0.000 N 
ATOM     13  N   UNL     1       6.464   6.650  16.735  0.00  0.00    +0.000 NA
ATOM     14  H   UNL     1       7.936   8.943  18.262  0.00  0.00    +0.000 HD
ATOM     15  H   UNL     1       6.816   9.037  16.982  0.00  0.00    +0.000 HD
BRANCH   7  16
ATOM     16  C   UNL     1       6.038   4.686  15.302  0.00  0.00    +0.000 C 
ATOM     17  F   UNL     1       5.033   5.102  14.495  0.00  0.00    +0.000 F 
ATOM     18  F   UNL     1       7.193   5.043  14.683  0.00  0.00    +0.000 F 
ATOM     19  F   UNL     1       6.011   3.329  15.276  0.00  0.00    +0.000 F 
ENDBRANCH   7  16
ENDBRANCH   5   7
BRANCH   1  22
ATOM     20  C   UNL     1       1.590   8.060  19.888  0.00  0.00    +0.000 C 
ATOM     21  O   UNL     1       1.641   7.249  20.820  0.00  0.00    +0.000 OA
ATOM     22  N   UNL     1       1.989   7.812  18.582  0.00  0.00    +0.000 N 
ATOM     23  H   UNL     1       1.989   8.616  17.959  0.00  0.00    +0.000 HD
BRANCH  20  27
ATOM     24  C   UNL     1       0.108  11.818  20.929  0.00  0.00    +0.000 A 
ATOM     25  C   UNL     1       0.158  11.422  19.590  0.00  0.00    +0.000 A 
ATOM     26  N   UNL     1       0.633  10.209  19.178  0.00  0.00    +0.000 NA
ATOM     27  C   UNL     1       1.071   9.415  20.192  0.00  0.00    +0.000 A 
ATOM     28  C   UNL     1       1.044   9.825  21.524  0.00  0.00    +0.000 A 
ATOM     29  N   UNL     1       0.568  11.033  21.923  0.00  0.00    +0.000 NA
BRANCH  24  30
ATOM     30  O   UNL     1      -0.403  13.055  21.238  0.00  0.00    +0.000 OA
BRANCH  30  31
ATOM     31  C   UNL     1      -1.640  12.987  21.965  0.00  0.00    +0.000 C 
BRANCH  31  33
ATOM     32  C   UNL     1      -1.343  14.632  24.241  0.00  0.00    +0.000 C 
ATOM     33  C   UNL     1      -1.480  13.872  23.190  0.00  0.00    +0.000 C 
ENDBRANCH  31  33
ENDBRANCH  30  31
ENDBRANCH  24  30
ENDBRANCH  20  27
ENDBRANCH   1  22
TORSDOF 7
ENDMDL
MODEL 8
REMARK VINA RESULT:      -7.7      4.288      9.448
REMARK  Name = 
REMARK  7 active torsions:
REMARK  status: ('A' for Active; 'I' for Inactive)
REMARK    1  A    between atoms: C_2  and  C_3
REMARK    2  A    between atoms: C_3  and  O_4
REMARK    3  A    between atoms: O_4  and  C_5
REMARK    4  A    between atoms: C_8  and  C_9
REMARK    5  A    between atoms: N_11  and  C_12
REMARK    6  A    between atoms: C_16  and  C_17
REMARK    7  A    between atoms: C_17  and  C_18
REMARK                            x       y       z     vdW  Elec       q    Type
REMARK                         _______ _______ _______ _____ _____    ______ ____
ROOT
ATOM      1  C   UNL     1       1.980   7.982  19.479  0.00  0.00    +0.000 A 
ATOM      2  C   UNL     1       1.632   7.536  20.756  0.00  0.00    +0.000 A 
ATOM      3  C   UNL     1       0.649   8.183  21.497  0.00  0.00    +0.000 A 
ATOM      4  C   UNL     1      -0.006   9.288  20.964  0.00  0.00    +0.000 A 
ATOM      5  C   UNL     1       0.319   9.784  19.686  0.00  0.00    +0.000 A 
ATOM      6  C   UNL     1       1.335   9.117  18.959  0.00  0.00    +0.000 A 
ENDROOT
BRANCH   5   7
ATOM      7  C   UNL     1      -0.389  11.061  19.126  0.00  0.00    +0.000 C 
ATOM      8  C   UNL     1       0.718  11.911  18.434  0.00  0.00    +0.000 C 
ATOM      9  C   UNL     1       0.703  13.409  18.642  0.00  0.00    +0.000 C 
ATOM     10  S   UNL     1       0.578  13.851  20.374  0.00  0.00    +0.000 S 
ATOM     11  C   UNL     1      -0.736  12.834  20.821  0.00  0.00    +0.000 C 
ATOM     12  N   UNL     1      -1.394  13.246  21.931  0.00  0.00    +0.000 N 
ATOM     13  N   UNL     1      -1.065  11.743  20.253  0.00  0.00    +0.000 NA
ATOM     14  H   UNL     1      -0.868  13.887  22.516  0.00  0.00    +0.000 HD
ATOM     15  H   UNL     1      -1.827  12.481  22.434  0.00  0.00    +0.000 HD
BRANCH   7  16
ATOM     16  C   UNL     1      -1.519  10.666  18.079  0.00  0.00    +0.000 C 
ATOM     17  F   UNL     1      -2.459   9.838  18.595  0.00  0.00    +0.000 F 
ATOM     18  F   UNL     1      -2.186  11.749  17.605  0.00  0.00    +0.000 F 
ATOM     19  F   UNL     1      -1.014  10.036  16.987  0.00  0.00    +0.000 F 
ENDBRANCH   7  16
ENDBRANCH   5   7
BRANCH   1  22
ATOM     20  C   UNL     1       2.844   6.070  18.136  0.00  0.00    +0.000 C 
ATOM     21  O   UNL     1       1.859   5.329  18.243  0.00  0.00    +0.000 OA
ATOM     22  N   UNL     1       2.966   7.335  18.692  0.00  0.00    +0.000 N 
ATOM     23  H   UNL     1       3.792   7.860  18.419  0.00  0.00    +0.000 HD
BRANCH  20  27
ATOM     24  C   UNL     1       6.081   4.836  15.811  0.00  0.00    +0.000 A 
ATOM     25  C   UNL     1       5.222   3.896  16.385  0.00  0.00    +0.000 A 
ATOM     26  N   UNL     1       4.146   4.229  17.158  0.00  0.00    +0.000 NA
ATOM     27  C   UNL     1       3.988   5.568  17.336  0.00  0.00    +0.000 A 
ATOM     28  C   UNL     1       4.864   6.502  16.784  0.00  0.00    +0.000 A 
ATOM     29  N   UNL     1       5.930   6.159  16.015  0.00  0.00    +0.000 NA
BRANCH  24  30
ATOM     30  O   UNL     1       7.127   4.395  15.036  0.00  0.00    +0.000 OA
BRANCH  30  31
ATOM     31  C   UNL     1       7.095   4.918  13.698  0.00  0.00    +0.000 C 
BRANCH  31  33
ATOM     32  C   UNL     1       5.769   3.000  12.104  0.00  0.00    +0.000 C 
ATOM     33  C   UNL     1       6.382   3.886  12.841  0.00  0.00    +0.000 C 
ENDBRANCH  31  33
ENDBRANCH  30  31
ENDBRANCH  24  30
ENDBRANCH  20  27
ENDBRANCH   1  22
TORSDOF 7
ENDMDL
MODEL 9
REMARK VINA RESULT:      -7.6      4.780      9.719
REMARK  Name = 
REMARK  7 active torsions:
REMARK  status: ('A' for Active; 'I' for Inactive)
REMARK    1  A    between atoms: C_2  and  C_3
REMARK    2  A    between atoms: C_3  and  O_4
REMARK    3  A    between atoms: O_4  and  C_5
REMARK    4  A    between atoms: C_8  and  C_9
REMARK    5  A    between atoms: N_11  and  C_12
REMARK    6  A    between atoms: C_16  and  C_17
REMARK    7  A    between atoms: C_17  and  C_18
REMARK                            x       y       z     vdW  Elec       q    Type
REMARK                         _______ _______ _______ _____ _____    ______ ____
ROOT
ATOM      1  C   UNL     1       1.337   8.622  20.342  0.00  0.00    +0.000 A 
ATOM      2  C   UNL     1       1.117   8.455  21.712  0.00  0.00    +0.000 A 
ATOM      3  C   UNL     1       0.308   9.337  22.420  0.00  0.00    +0.000 A 
ATOM      4  C   UNL     1      -0.301  10.400  21.761  0.00  0.00    +0.000 A 
ATOM      5  C   UNL     1      -0.100  10.617  20.384  0.00  0.00    +0.000 A 
ATOM      6  C   UNL     1       0.742   9.715  19.690  0.00  0.00    +0.000 A 
ENDROOT
BRANCH   5   7
ATOM      7  C   UNL     1      -0.747  11.850  19.671  0.00  0.00    +0.000 C 
ATOM      8  C   UNL     1      -2.058  12.170  20.448  0.00  0.00    +0.000 C 
ATOM      9  C   UNL     1      -3.292  12.528  19.649  0.00  0.00    +0.000 C 
ATOM     10  S   UNL     1      -3.621  11.344  18.344  0.00  0.00    +0.000 S 
ATOM     11  C   UNL     1      -2.049  11.265  17.648  0.00  0.00    +0.000 C 
ATOM     12  N   UNL     1      -2.041  10.828  16.365  0.00  0.00    +0.000 N 
ATOM     13  N   UNL     1      -0.951  11.503  18.247  0.00  0.00    +0.000 NA
ATOM     14  H   UNL     1      -2.878  10.326  16.088  0.00  0.00    +0.000 HD
ATOM     15  H   UNL     1      -1.175  10.367  16.116  0.00  0.00    +0.000 HD
BRANCH   7  16
ATOM     16  C   UNL     1       0.236  13.101  19.706  0.00  0.00    +0.000 C 
ATOM     17  F   UNL     1       0.047  13.958  18.675  0.00  0.00    +0.000 F 
ATOM     18  F   UNL     1       0.098  13.835  20.840  0.00  0.00    +0.000 F 
ATOM     19  F   UNL     1       1.542  12.733  19.662  0.00  0.00    +0.000 F 
ENDBRANCH   7  16
ENDBRANCH   5   7
BRANCH   1  22
ATOM     20  C   UNL     1       2.274   6.371  19.829  0.00  0.00    +0.000 C 
ATOM     21  O   UNL     1       1.703   5.742  20.728  0.00  0.00    +0.000 OA
ATOM     22  N   UNL     1       2.144   7.731  19.590  0.00  0.00    +0.000 N 
ATOM     23  H   UNL     1       2.590   8.076  18.745  0.00  0.00    +0.000 HD
BRANCH  20  27
ATOM     24  C   UNL     1       4.739   4.346  17.140  0.00  0.00    +0.000 A 
ATOM     25  C   UNL     1       4.305   3.722  18.312  0.00  0.00    +0.000 A 
ATOM     26  N   UNL     1       3.501   4.326  19.236  0.00  0.00    +0.000 NA
ATOM     27  C   UNL     1       3.164   5.605  18.923  0.00  0.00    +0.000 A 
ATOM     28  C   UNL     1       3.621   6.234  17.765  0.00  0.00    +0.000 A 
ATOM     29  N   UNL     1       4.419   5.623  16.851  0.00  0.00    +0.000 NA
BRANCH  24  30
ATOM     30  O   UNL     1       5.535   3.644  16.268  0.00  0.00    +0.000 OA
BRANCH  30  31
ATOM     31  C   UNL     1       6.353   4.492  15.446  0.00  0.00    +0.000 C 
BRANCH  31  33
ATOM     32  C   UNL     1       6.071   3.575  12.790  0.00  0.00    +0.000 C 
ATOM     33  C   UNL     1       6.202   3.998  14.017  0.00  0.00    +0.000 C 
ENDBRANCH  31  33
ENDBRANCH  30  31
ENDBRANCH  24  30
ENDBRANCH  20  27
ENDBRANCH   1  22
TORSDOF 7
ENDMDL
