MODEL 1
REMARK VINA RESULT:      -7.9      0.000      0.000
REMARK  Name = 
REMARK  8 active torsions:
REMARK  status: ('A' for Active; 'I' for Inactive)
REMARK    1  A    between atoms: C_1  and  C_2
REMARK    2  A    between atoms: C_2  and  C_3
REMARK    3  A    between atoms: C_3  and  N_4
REMARK    4  A    between atoms: C_9  and  C_10
REMARK    5  A    between atoms: C_13  and  C_14
REMARK    6  A    between atoms: N_19  and  C_20
REMARK    7  A    between atoms: C_20  and  C_21
REMARK    8  A    between atoms: C_21  and  C_22
REMARK                            x       y       z     vdW  Elec       q    Type
REMARK                         _______ _______ _______ _____ _____    ______ ____
ROOT
ATOM      1  N   UNL     1       4.515   5.084  18.272  0.00  0.00    +0.000 N 
ATOM      2  C   UNL     1       3.926   6.342  18.100  0.00  0.00    +0.000 A 
ATOM      3  O   UNL     1       4.251   7.149  17.238  0.00  0.00    +0.000 OA
ATOM      4  C   UNL     1       2.901   6.616  19.059  0.00  0.00    +0.000 A 
ATOM      5  N   UNL     1       2.225   7.792  19.255  0.00  0.00    +0.000 N 
ATOM      6  C   UNL     1       1.443   7.697  20.391  0.00  0.00    +0.000 A 
ATOM      7  C   UNL     1       1.506   6.365  20.790  0.00  0.00    +0.000 A 
ATOM      8  C   UNL     1       2.477   5.720  19.995  0.00  0.00    +0.000 A 
ATOM      9  N   UNL     1       3.043   4.454  20.073  0.00  0.00    +0.000 N 
ATOM     10  C   UNL     1       4.130   4.136  19.240  0.00  0.00    +0.000 A 
ATOM     11  O   UNL     1       4.733   3.061  19.356  0.00  0.00    +0.000 OA
ATOM     12  H   UNL     1       2.382   8.634  18.716  0.00  0.00    +0.000 HD
ENDROOT
BRANCH   6  13
ATOM     13  C   UNL     1       0.799   8.844  21.047  0.00  0.00    +0.000 A 
ATOM     14  C   UNL     1       0.417   8.825  22.393  0.00  0.00    +0.000 A 
ATOM     15  C   UNL     1      -0.235   9.927  22.970  0.00  0.00    +0.000 A 
ATOM     16  C   UNL     1      -0.521  11.067  22.210  0.00  0.00    +0.000 A 
ATOM     17  C   UNL     1      -1.219  12.253  22.810  0.00  0.00    +0.000 C 
ATOM     18  C   UNL     1      -0.147  11.090  20.865  0.00  0.00    +0.000 A 
ATOM     19  C   UNL     1       0.507   9.993  20.294  0.00  0.00    +0.000 A 
ENDBRANCH   6  13
BRANCH   1  20
ATOM     20  C   UNL     1       5.627   4.733  17.393  0.00  0.00    +0.000 C 
BRANCH  20  22
ATOM     21  C   UNL     1       5.648   4.843  14.866  0.00  0.00    +0.000 C 
ATOM     22  C   UNL     1       5.149   4.085  16.088  0.00  0.00    +0.000 C 
ENDBRANCH  20  22
ENDBRANCH   1  20
BRANCH   9  23
ATOM     23  C   UNL     1       2.635   3.490  21.100  0.00  0.00    +0.000 C 
BRANCH  23  24
ATOM     24  C   UNL     1       1.255   2.862  20.873  0.00  0.00    +0.000 C 
ATOM     25  C   UNL     1       0.957   2.510  19.424  0.00  0.00    +0.000 C 
ENDBRANCH  23  24
ENDBRANCH   9  23
TORSDOF 5
ENDMDL
MODEL 2
REMARK VINA RESULT:      -7.9      0.220      1.006
REMARK  Name = 
REMARK  8 active torsions:
REMARK  status: ('A' for Active; 'I' for Inactive)
REMARK    1  A    between atoms: C_1  and  C_2
REMARK    2  A    between atoms: C_2  and  C_3
REMARK    3  A    between atoms: C_3  and  N_4
REMARK    4  A    between atoms: C_9  and  C_10
REMARK    5  A    between atoms: C_13  and  C_14
REMARK    6  A    between atoms: N_19  and  C_20
REMARK    7  A    between atoms: C_20  and  C_21
REMARK    8  A    between atoms: C_21  and  C_22
REMARK                            x       y       z     vdW  Elec       q    Type
REMARK                         _______ _______ _______ _____ _____    ______ ____
ROOT
ATOM      1  N   UNL     1       4.642   5.012  18.333  0.00  0.00    +0.000 N 
ATOM      2  C   UNL     1       4.046   6.258  18.109  0.00  0.00    +0.000 A 
ATOM      3  O   UNL     1       4.392   7.048  17.241  0.00  0.00    +0.000 OA
ATOM      4  C   UNL     1       2.983   6.541  19.024  0.00  0.00    +0.000 A 
ATOM      5  N   UNL     1       2.286   7.713  19.166  0.00  0.00    +0.000 N 
ATOM      6  C   UNL     1       1.464   7.635  20.275  0.00  0.00    +0.000 A 
ATOM      7  C   UNL     1       1.528   6.313  20.709  0.00  0.00    +0.000 A 
ATOM      8  C   UNL     1       2.535   5.662  19.965  0.00  0.00    +0.000 A 
ATOM      9  N   UNL     1       3.113   4.406  20.094  0.00  0.00    +0.000 N 
ATOM     10  C   UNL     1       4.234   4.082  19.309  0.00  0.00    +0.000 A 
ATOM     11  O   UNL     1       4.845   3.018  19.473  0.00  0.00    +0.000 OA
ATOM     12  H   UNL     1       2.453   8.544  18.613  0.00  0.00    +0.000 HD
ENDROOT
BRANCH   6  13
ATOM     13  C   UNL     1       0.783   8.789  20.879  0.00  0.00    +0.000 A 
ATOM     14  C   UNL     1       0.523   9.966  20.168  0.00  0.00    +0.000 A 
ATOM     15  C   UNL     1      -0.092  11.062  20.796  0.00  0.00    +0.000 A 
ATOM     16  C   UNL     1      -0.455  11.003  22.146  0.00  0.00    +0.000 A 
ATOM     17  C   UNL     1      -1.111  12.165  22.832  0.00  0.00    +0.000 C 
ATOM     18  C   UNL     1      -0.193   9.833  22.861  0.00  0.00    +0.000 A 
ATOM     19  C   UNL     1       0.415   8.741  22.233  0.00  0.00    +0.000 A 
ENDBRANCH   6  13
BRANCH   1  20
ATOM     20  C   UNL     1       5.790   4.655  17.504  0.00  0.00    +0.000 C 
BRANCH  20  22
ATOM     21  C   UNL     1       6.265   4.326  15.041  0.00  0.00    +0.000 C 
ATOM     22  C   UNL     1       5.369   3.944  16.211  0.00  0.00    +0.000 C 
ENDBRANCH  20  22
ENDBRANCH   1  20
BRANCH   9  23
ATOM     23  C   UNL     1       2.679   3.461  21.129  0.00  0.00    +0.000 C 
BRANCH  23  24
ATOM     24  C   UNL     1       1.307   2.826  20.877  0.00  0.00    +0.000 C 
ATOM     25  C   UNL     1       1.037   2.472  19.423  0.00  0.00    +0.000 C 
ENDBRANCH  23  24
ENDBRANCH   9  23
TORSDOF 5
ENDMDL
MODEL 3
REMARK VINA RESULT:      -7.3      1.523      2.074
REMARK  Name = 
REMARK  8 active torsions:
REMARK  status: ('A' for Active; 'I' for Inactive)
REMARK    1  A    between atoms: C_1  and  C_2
REMARK    2  A    between atoms: C_2  and  C_3
REMARK    3  A    between atoms: C_3  and  N_4
REMARK    4  A    between atoms: C_9  and  C_10
REMARK    5  A    between atoms: C_13  and  C_14
REMARK    6  A    between atoms: N_19  and  C_20
REMARK    7  A    between atoms: C_20  and  C_21
REMARK    8  A    between atoms: C_21  and  C_22
REMARK                            x       y       z     vdW  Elec       q    Type
REMARK                         _______ _______ _______ _____ _____    ______ ____
ROOT
ATOM      1  N   UNL     1       5.334   5.258  17.384  0.00  0.00    +0.000 N 
ATOM      2  C   UNL     1       4.737   6.420  16.883  0.00  0.00    +0.000 A 
ATOM      3  O   UNL     1       5.094   7.002  15.866  0.00  0.00    +0.000 OA
ATOM      4  C   UNL     1       3.660   6.891  17.698  0.00  0.00    +0.000 A 
ATOM      5  N   UNL     1       2.957   8.061  17.569  0.00  0.00    +0.000 N 
ATOM      6  C   UNL     1       2.120   8.224  18.657  0.00  0.00    +0.000 A 
ATOM      7  C   UNL     1       2.181   7.030  19.371  0.00  0.00    +0.000 A 
ATOM      8  C   UNL     1       3.201   6.237  18.803  0.00  0.00    +0.000 A 
ATOM      9  N   UNL     1       3.781   5.044  19.213  0.00  0.00    +0.000 N 
ATOM     10  C   UNL     1       4.915   4.562  18.534  0.00  0.00    +0.000 A 
ATOM     11  O   UNL     1       5.526   3.565  18.937  0.00  0.00    +0.000 OA
ATOM     12  H   UNL     1       3.130   8.751  16.849  0.00  0.00    +0.000 HD
ENDROOT
BRANCH   6  13
ATOM     13  C   UNL     1       1.426   9.478  18.983  0.00  0.00    +0.000 A 
ATOM     14  C   UNL     1       1.733  10.692  18.358  0.00  0.00    +0.000 A 
ATOM     15  C   UNL     1       1.076  11.876  18.730  0.00  0.00    +0.000 A 
ATOM     16  C   UNL     1       0.102  11.869  19.735  0.00  0.00    +0.000 A 
ATOM     17  C   UNL     1      -0.608  13.126  20.145  0.00  0.00    +0.000 C 
ATOM     18  C   UNL     1      -0.205  10.662  20.364  0.00  0.00    +0.000 A 
ATOM     19  C   UNL     1       0.447   9.483  19.989  0.00  0.00    +0.000 A 
ENDBRANCH   6  13
BRANCH   1  20
ATOM     20  C   UNL     1       6.495   4.734  16.669  0.00  0.00    +0.000 C 
BRANCH  20  22
ATOM     21  C   UNL     1       6.457   4.318  14.174  0.00  0.00    +0.000 C 
ATOM     22  C   UNL     1       6.095   3.768  15.547  0.00  0.00    +0.000 C 
ENDBRANCH  20  22
ENDBRANCH   1  20
BRANCH   9  23
ATOM     23  C   UNL     1       3.335   4.348  20.424  0.00  0.00    +0.000 C 
BRANCH  23  24
ATOM     24  C   UNL     1       2.177   3.366  20.206  0.00  0.00    +0.000 C 
ATOM     25  C   UNL     1       1.544   2.850  21.489  0.00  0.00    +0.000 C 
ENDBRANCH  23  24
ENDBRANCH   9  23
TORSDOF 5
ENDMDL
MODEL 4
REMARK VINA RESULT:      -7.3      1.312      1.574
REMARK  Name = 
REMARK  8 active torsions:
REMARK  status: ('A' for Active; 'I' for Inactive)
REMARK    1  A    between atoms: C_1  and  C_2
REMARK    2  A    between atoms: C_2  and  C_3
REMARK    3  A    between atoms: C_3  and  N_4
REMARK    4  A    between atoms: C_9  and  C_10
REMARK    5  A    between atoms: C_13  and  C_14
REMARK    6  A    between atoms: N_19  and  C_20
REMARK    7  A    between atoms: C_20  and  C_21
REMARK    8  A    between atoms: C_21  and  C_22
REMARK                            x       y       z     vdW  Elec       q    Type
REMARK                         _______ _______ _______ _____ _____    ______ ____
ROOT
ATOM      1  N   UNL     1       5.364   5.227  17.483  0.00  0.00    +0.000 N 
ATOM      2  C   UNL     1       4.726   6.399  17.058  0.00  0.00    +0.000 A 
ATOM      3  O   UNL     1       5.070   7.065  16.090  0.00  0.00    +0.000 OA
ATOM      4  C   UNL     1       3.624   6.768  17.892  0.00  0.00    +0.000 A 
ATOM      5  N   UNL     1       2.877   7.917  17.838  0.00  0.00    +0.000 N 
ATOM      6  C   UNL     1       2.024   7.969  18.924  0.00  0.00    +0.000 A 
ATOM      7  C   UNL     1       2.125   6.731  19.553  0.00  0.00    +0.000 A 
ATOM      8  C   UNL     1       3.181   6.021  18.942  0.00  0.00    +0.000 A 
ATOM      9  N   UNL     1       3.803   4.825  19.274  0.00  0.00    +0.000 N 
ATOM     10  C   UNL     1       4.961   4.436  18.576  0.00  0.00    +0.000 A 
ATOM     11  O   UNL     1       5.607   3.437  18.915  0.00  0.00    +0.000 OA
ATOM     12  H   UNL     1       3.029   8.662  17.170  0.00  0.00    +0.000 HD
ENDROOT
BRANCH   6  13
ATOM     13  C   UNL     1       1.278   9.170  19.330  0.00  0.00    +0.000 A 
ATOM     14  C   UNL     1       0.959   9.443  20.665  0.00  0.00    +0.000 A 
ATOM     15  C   UNL     1       0.208  10.579  21.005  0.00  0.00    +0.000 A 
ATOM     16  C   UNL     1      -0.242  11.462  20.016  0.00  0.00    +0.000 A 
ATOM     17  C   UNL     1      -1.048  12.680  20.362  0.00  0.00    +0.000 C 
ATOM     18  C   UNL     1       0.069  11.192  18.682  0.00  0.00    +0.000 A 
ATOM     19  C   UNL     1       0.822  10.062  18.346  0.00  0.00    +0.000 A 
ENDBRANCH   6  13
BRANCH   1  20
ATOM     20  C   UNL     1       6.551   4.801  16.747  0.00  0.00    +0.000 C 
BRANCH  20  22
ATOM     21  C   UNL     1       6.581   4.533  14.231  0.00  0.00    +0.000 C 
ATOM     22  C   UNL     1       6.200   3.894  15.561  0.00  0.00    +0.000 C 
ENDBRANCH  20  22
ENDBRANCH   1  20
BRANCH   9  23
ATOM     23  C   UNL     1       3.373   4.027  20.427  0.00  0.00    +0.000 C 
BRANCH  23  24
ATOM     24  C   UNL     1       2.364   2.921  20.098  0.00  0.00    +0.000 C 
ATOM     25  C   UNL     1       0.911   3.314  20.318  0.00  0.00    +0.000 C 
ENDBRANCH  23  24
ENDBRANCH   9  23
TORSDOF 5
ENDMDL
MODEL 5
REMARK VINA RESULT:      -7.3      1.935      2.277
REMARK  Name = 
REMARK  8 active torsions:
REMARK  status: ('A' for Active; 'I' for Inactive)
REMARK    1  A    between atoms: C_1  and  C_2
REMARK    2  A    between atoms: C_2  and  C_3
REMARK    3  A    between atoms: C_3  and  N_4
REMARK    4  A    between atoms: C_9  and  C_10
REMARK    5  A    between atoms: C_13  and  C_14
REMARK    6  A    between atoms: N_19  and  C_20
REMARK    7  A    between atoms: C_20  and  C_21
REMARK    8  A    between atoms: C_21  and  C_22
REMARK                            x       y       z     vdW  Elec       q    Type
REMARK                         _______ _______ _______ _____ _____    ______ ____
ROOT
ATOM      1  N   UNL     1       5.191   5.304  17.498  0.00  0.00    +0.000 N 
ATOM      2  C   UNL     1       4.706   6.468  16.890  0.00  0.00    +0.000 A 
ATOM      3  O   UNL     1       5.162   6.958  15.865  0.00  0.00    +0.000 OA
ATOM      4  C   UNL     1       3.616   7.059  17.604  0.00  0.00    +0.000 A 
ATOM      5  N   UNL     1       3.004   8.261  17.360  0.00  0.00    +0.000 N 
ATOM      6  C   UNL     1       2.115   8.547  18.381  0.00  0.00    +0.000 A 
ATOM      7  C   UNL     1       2.053   7.401  19.168  0.00  0.00    +0.000 A 
ATOM      8  C   UNL     1       3.048   6.509  18.716  0.00  0.00    +0.000 A 
ATOM      9  N   UNL     1       3.520   5.310  19.234  0.00  0.00    +0.000 N 
ATOM     10  C   UNL     1       4.657   4.713  18.659  0.00  0.00    +0.000 A 
ATOM     11  O   UNL     1       5.173   3.707  19.160  0.00  0.00    +0.000 OA
ATOM     12  H   UNL     1       3.266   8.890  16.612  0.00  0.00    +0.000 HD
ENDROOT
BRANCH   6  13
ATOM     13  C   UNL     1       1.491   9.862  18.585  0.00  0.00    +0.000 A 
ATOM     14  C   UNL     1       0.178  10.008  19.049  0.00  0.00    +0.000 A 
ATOM     15  C   UNL     1      -0.395  11.281  19.189  0.00  0.00    +0.000 A 
ATOM     16  C   UNL     1       0.330  12.433  18.863  0.00  0.00    +0.000 A 
ATOM     17  C   UNL     1      -0.269  13.802  19.005  0.00  0.00    +0.000 C 
ATOM     18  C   UNL     1       1.638  12.293  18.395  0.00  0.00    +0.000 A 
ATOM     19  C   UNL     1       2.209  11.024  18.261  0.00  0.00    +0.000 A 
ENDBRANCH   6  13
BRANCH   1  20
ATOM     20  C   UNL     1       6.354   4.662  16.892  0.00  0.00    +0.000 C 
BRANCH  20  22
ATOM     21  C   UNL     1       6.339   4.084  14.429  0.00  0.00    +0.000 C 
ATOM     22  C   UNL     1       5.956   3.629  15.831  0.00  0.00    +0.000 C 
ENDBRANCH  20  22
ENDBRANCH   1  20
BRANCH   9  23
ATOM     23  C   UNL     1       2.956   4.723  20.453  0.00  0.00    +0.000 C 
BRANCH  23  24
ATOM     24  C   UNL     1       1.582   4.067  20.270  0.00  0.00    +0.000 C 
ATOM     25  C   UNL     1       1.457   2.689  20.901  0.00  0.00    +0.000 C 
ENDBRANCH  23  24
ENDBRANCH   9  23
TORSDOF 5
ENDMDL
MODEL 6
REMARK VINA RESULT:      -7.2      1.347      1.586
REMARK  Name = 
REMARK  8 active torsions:
REMARK  status: ('A' for Active; 'I' for Inactive)
REMARK    1  A    between atoms: C_1  and  C_2
REMARK    2  A    between atoms: C_2  and  C_3
REMARK    3  A    between atoms: C_3  and  N_4
REMARK    4  A    between atoms: C_9  and  C_10
REMARK    5  A    between atoms: C_13  and  C_14
REMARK    6  A    between atoms: N_19  and  C_20
REMARK    7  A    between atoms: C_20  and  C_21
REMARK    8  A    between atoms: C_21  and  C_22
REMARK                            x       y       z     vdW  Elec       q    Type
REMARK                         _______ _______ _______ _____ _____    ______ ____
ROOT
ATOM      1  N   UNL     1       3.830   6.386  17.922  0.00  0.00    +0.000 N 
ATOM      2  C   UNL     1       3.123   7.592  17.859  0.00  0.00    +0.000 A 
ATOM      3  O   UNL     1       3.233   8.416  16.961  0.00  0.00    +0.000 OA
ATOM      4  C   UNL     1       2.254   7.788  18.978  0.00  0.00    +0.000 A 
ATOM      5  N   UNL     1       1.528   8.908  19.292  0.00  0.00    +0.000 N 
ATOM      6  C   UNL     1       0.957   8.758  20.543  0.00  0.00    +0.000 A 
ATOM      7  C   UNL     1       1.192   7.438  20.917  0.00  0.00    +0.000 A 
ATOM      8  C   UNL     1       2.065   6.867  19.966  0.00  0.00    +0.000 A 
ATOM      9  N   UNL     1       2.736   5.651  19.939  0.00  0.00    +0.000 N 
ATOM     10  C   UNL     1       3.691   5.416  18.933  0.00  0.00    +0.000 A 
ATOM     11  O   UNL     1       4.388   4.394  18.940  0.00  0.00    +0.000 OA
ATOM     12  H   UNL     1       1.524   9.756  18.740  0.00  0.00    +0.000 HD
ENDROOT
BRANCH   6  13
ATOM     13  C   UNL     1       0.342   9.854  21.305  0.00  0.00    +0.000 A 
ATOM     14  C   UNL     1      -0.471   9.631  22.422  0.00  0.00    +0.000 A 
ATOM     15  C   UNL     1      -1.075  10.704  23.096  0.00  0.00    +0.000 A 
ATOM     16  C   UNL     1      -0.880  12.021  22.664  0.00  0.00    +0.000 A 
ATOM     17  C   UNL     1      -1.519  13.180  23.372  0.00  0.00    +0.000 C 
ATOM     18  C   UNL     1      -0.074  12.250  21.548  0.00  0.00    +0.000 A 
ATOM     19  C   UNL     1       0.531  11.179  20.880  0.00  0.00    +0.000 A 
ENDBRANCH   6  13
BRANCH   1  20
ATOM     20  C   UNL     1       4.804   6.120  16.866  0.00  0.00    +0.000 C 
BRANCH  20  22
ATOM     21  C   UNL     1       7.264   5.771  17.346  0.00  0.00    +0.000 C 
ATOM     22  C   UNL     1       6.154   6.794  17.143  0.00  0.00    +0.000 C 
ENDBRANCH  20  22
ENDBRANCH   1  20
BRANCH   9  23
ATOM     23  C   UNL     1       2.584   4.665  21.013  0.00  0.00    +0.000 C 
BRANCH  23  24
ATOM     24  C   UNL     1       1.399   3.708  20.838  0.00  0.00    +0.000 C 
ATOM     25  C   UNL     1       1.424   2.503  21.765  0.00  0.00    +0.000 C 
ENDBRANCH  23  24
ENDBRANCH   9  23
TORSDOF 5
ENDMDL
MODEL 7
REMARK VINA RESULT:      -7.2      2.016      2.522
REMARK  Name = 
REMARK  8 active torsions:
REMARK  status: ('A' for Active; 'I' for Inactive)
REMARK    1  A    between atoms: C_1  and  C_2
REMARK    2  A    between atoms: C_2  and  C_3
REMARK    3  A    between atoms: C_3  and  N_4
REMARK    4  A    between atoms: C_9  and  C_10
REMARK    5  A    between atoms: C_13  and  C_14
REMARK    6  A    between atoms: N_19  and  C_20
REMARK    7  A    between atoms: C_20  and  C_21
REMARK    8  A    between atoms: C_21  and  C_22
REMARK                            x       y       z     vdW  Elec       q    Type
REMARK                         _______ _______ _______ _____ _____    ______ ____
ROOT
ATOM      1  N   UNL     1       4.952   5.230  17.912  0.00  0.00    +0.000 N 
ATOM      2  C   UNL     1       4.527   6.373  17.225  0.00  0.00    +0.000 A 
ATOM      3  O   UNL     1       5.037   6.793  16.194  0.00  0.00    +0.000 OA
ATOM      4  C   UNL     1       3.431   7.033  17.863  0.00  0.00    +0.000 A 
ATOM      5  N   UNL     1       2.866   8.238  17.532  0.00  0.00    +0.000 N 
ATOM      6  C   UNL     1       1.949   8.605  18.500  0.00  0.00    +0.000 A 
ATOM      7  C   UNL     1       1.821   7.505  19.344  0.00  0.00    +0.000 A 
ATOM      8  C   UNL     1       2.804   6.561  18.979  0.00  0.00    +0.000 A 
ATOM      9  N   UNL     1       3.218   5.379  19.578  0.00  0.00    +0.000 N 
ATOM     10  C   UNL     1       4.357   4.719  19.081  0.00  0.00    +0.000 A 
ATOM     11  O   UNL     1       4.822   3.726  19.654  0.00  0.00    +0.000 OA
ATOM     12  H   UNL     1       3.176   8.817  16.762  0.00  0.00    +0.000 HD
ENDROOT
BRANCH   6  13
ATOM     13  C   UNL     1       1.359   9.947  18.609  0.00  0.00    +0.000 A 
ATOM     14  C   UNL     1       0.016  10.153  18.943  0.00  0.00    +0.000 A 
ATOM     15  C   UNL     1      -0.519  11.450  18.994  0.00  0.00    +0.000 A 
ATOM     16  C   UNL     1       0.277  12.565  18.708  0.00  0.00    +0.000 A 
ATOM     17  C   UNL     1      -0.280  13.958  18.756  0.00  0.00    +0.000 C 
ATOM     18  C   UNL     1       1.616  12.365  18.370  0.00  0.00    +0.000 A 
ATOM     19  C   UNL     1       2.149  11.072  18.324  0.00  0.00    +0.000 A 
ENDBRANCH   6  13
BRANCH   1  20
ATOM     20  C   UNL     1       6.117   4.522  17.387  0.00  0.00    +0.000 C 
BRANCH  20  22
ATOM     21  C   UNL     1       7.702   5.685  18.979  0.00  0.00    +0.000 C 
ATOM     22  C   UNL     1       7.404   5.345  17.525  0.00  0.00    +0.000 C 
ENDBRANCH  20  22
ENDBRANCH   1  20
BRANCH   9  23
ATOM     23  C   UNL     1       2.590   4.876  20.804  0.00  0.00    +0.000 C 
BRANCH  23  24
ATOM     24  C   UNL     1       1.365   3.984  20.574  0.00  0.00    +0.000 C 
ATOM     25  C   UNL     1       1.374   2.690  21.373  0.00  0.00    +0.000 C 
ENDBRANCH  23  24
ENDBRANCH   9  23
TORSDOF 5
ENDMDL
MODEL 8
REMARK VINA RESULT:      -7.1      1.528      2.023
REMARK  Name = 
REMARK  8 active torsions:
REMARK  status: ('A' for Active; 'I' for Inactive)
REMARK    1  A    between atoms: C_1  and  C_2
REMARK    2  A    between atoms: C_2  and  C_3
REMARK    3  A    between atoms: C_3  and  N_4
REMARK    4  A    between atoms: C_9  and  C_10
REMARK    5  A    between atoms: C_13  and  C_14
REMARK    6  A    between atoms: N_19  and  C_20
REMARK    7  A    between atoms: C_20  and  C_21
REMARK    8  A    between atoms: C_21  and  C_22
REMARK                            x       y       z     vdW  Elec       q    Type
REMARK                         _______ _______ _______ _____ _____    ______ ____
ROOT
ATOM      1  N   UNL     1       5.559   4.819  16.765  0.00  0.00    +0.000 N 
ATOM      2  C   UNL     1       5.321   6.188  16.930  0.00  0.00    +0.000 A 
ATOM      3  O   UNL     1       6.112   7.072  16.630  0.00  0.00    +0.000 OA
ATOM      4  C   UNL     1       4.046   6.466  17.517  0.00  0.00    +0.000 A 
ATOM      5  N   UNL     1       3.559   7.678  17.933  0.00  0.00    +0.000 N 
ATOM      6  C   UNL     1       2.363   7.494  18.602  0.00  0.00    +0.000 A 
ATOM      7  C   UNL     1       2.025   6.156  18.425  0.00  0.00    +0.000 A 
ATOM      8  C   UNL     1       3.119   5.510  17.810  0.00  0.00    +0.000 A 
ATOM      9  N   UNL     1       3.377   4.170  17.554  0.00  0.00    +0.000 N 
ATOM     10  C   UNL     1       4.646   3.794  17.078  0.00  0.00    +0.000 A 
ATOM     11  O   UNL     1       4.951   2.602  16.944  0.00  0.00    +0.000 OA
ATOM     12  H   UNL     1       4.069   8.549  17.866  0.00  0.00    +0.000 HD
ENDROOT
BRANCH   6  13
ATOM     13  C   UNL     1       1.703   8.530  19.410  0.00  0.00    +0.000 A 
ATOM     14  C   UNL     1       1.385   8.344  20.760  0.00  0.00    +0.000 A 
ATOM     15  C   UNL     1       0.715   9.343  21.484  0.00  0.00    +0.000 A 
ATOM     16  C   UNL     1       0.347  10.546  20.871  0.00  0.00    +0.000 A 
ATOM     17  C   UNL     1      -0.371  11.624  21.630  0.00  0.00    +0.000 C 
ATOM     18  C   UNL     1       0.657  10.736  19.523  0.00  0.00    +0.000 A 
ATOM     19  C   UNL     1       1.329   9.741  18.805  0.00  0.00    +0.000 A 
ENDBRANCH   6  13
BRANCH   1  20
ATOM     20  C   UNL     1       6.864   4.419  16.244  0.00  0.00    +0.000 C 
BRANCH  20  22
ATOM     21  C   UNL     1       6.199   3.907  13.858  0.00  0.00    +0.000 C 
ATOM     22  C   UNL     1       7.036   4.796  14.768  0.00  0.00    +0.000 C 
ENDBRANCH  20  22
ENDBRANCH   1  20
BRANCH   9  23
ATOM     23  C   UNL     1       2.414   3.120  17.904  0.00  0.00    +0.000 C 
BRANCH  23  24
ATOM     24  C   UNL     1       2.438   2.698  19.378  0.00  0.00    +0.000 C 
ATOM     25  C   UNL     1       1.137   2.953  20.123  0.00  0.00    +0.000 C 
ENDBRANCH  23  24
ENDBRANCH   9  23
TORSDOF 5
ENDMDL
MODEL 9
REMARK VINA RESULT:      -7.1      1.587      2.250
REMARK  Name = 
REMARK  8 active torsions:
REMARK  status: ('A' for Active; 'I' for Inactive)
REMARK    1  A    between atoms: C_1  and  C_2
REMARK    2  A    between atoms: C_2  and  C_3
REMARK    3  A    between atoms: C_3  and  N_4
REMARK    4  A    between atoms: C_9  and  C_10
REMARK    5  A    between atoms: C_13  and  C_14
REMARK    6  A    between atoms: N_19  and  C_20
REMARK    7  A    between atoms: C_20  and  C_21
REMARK    8  A    between atoms: C_21  and  C_22
REMARK                            x       y       z     vdW  Elec       q    Type
REMARK                         _______ _______ _______ _____ _____    ______ ____
ROOT
ATOM      1  N   UNL     1       5.451   4.905  16.806  0.00  0.00    +0.000 N 
ATOM      2  C   UNL     1       5.240   6.285  16.900  0.00  0.00    +0.000 A 
ATOM      3  O   UNL     1       6.057   7.137  16.574  0.00  0.00    +0.000 OA
ATOM      4  C   UNL     1       3.960   6.619  17.445  0.00  0.00    +0.000 A 
ATOM      5  N   UNL     1       3.491   7.860  17.791  0.00  0.00    +0.000 N 
ATOM      6  C   UNL     1       2.278   7.734  18.443  0.00  0.00    +0.000 A 
ATOM      7  C   UNL     1       1.914   6.395  18.324  0.00  0.00    +0.000 A 
ATOM      8  C   UNL     1       3.006   5.698  17.765  0.00  0.00    +0.000 A 
ATOM      9  N   UNL     1       3.240   4.342  17.580  0.00  0.00    +0.000 N 
ATOM     10  C   UNL     1       4.509   3.916  17.149  0.00  0.00    +0.000 A 
ATOM     11  O   UNL     1       4.791   2.713  17.080  0.00  0.00    +0.000 OA
ATOM     12  H   UNL     1       4.022   8.715  17.693  0.00  0.00    +0.000 HD
ENDROOT
BRANCH   6  13
ATOM     13  C   UNL     1       1.625   8.822  19.185  0.00  0.00    +0.000 A 
ATOM     14  C   UNL     1       1.351  10.067  18.609  0.00  0.00    +0.000 A 
ATOM     15  C   UNL     1       0.764  11.094  19.366  0.00  0.00    +0.000 A 
ATOM     16  C   UNL     1       0.444  10.897  20.714  0.00  0.00    +0.000 A 
ATOM     17  C   UNL     1      -0.181  11.985  21.538  0.00  0.00    +0.000 C 
ATOM     18  C   UNL     1       0.719   9.658  21.295  0.00  0.00    +0.000 A 
ATOM     19  C   UNL     1       1.299   8.635  20.538  0.00  0.00    +0.000 A 
ENDBRANCH   6  13
BRANCH   1  20
ATOM     20  C   UNL     1       6.757   4.453  16.334  0.00  0.00    +0.000 C 
BRANCH  20  22
ATOM     21  C   UNL     1       6.100   3.933  13.947  0.00  0.00    +0.000 C 
ATOM     22  C   UNL     1       6.981   4.783  14.853  0.00  0.00    +0.000 C 
ENDBRANCH  20  22
ENDBRANCH   1  20
BRANCH   9  23
ATOM     23  C   UNL     1       2.247   3.331  17.959  0.00  0.00    +0.000 C 
BRANCH  23  24
ATOM     24  C   UNL     1       2.293   2.913  19.434  0.00  0.00    +0.000 C 
ATOM     25  C   UNL     1       1.064   3.312  20.236  0.00  0.00    +0.000 C 
ENDBRANCH  23  24
ENDBRANCH   9  23
TORSDOF 5
ENDMDL
