MODEL 1
REMARK VINA RESULT:      -7.2      0.000      0.000
REMARK  Name = 
REMARK  6 active torsions:
REMARK  status: ('A' for Active; 'I' for Inactive)
REMARK    1  A    between atoms: C_1  and  O_2
REMARK    2  A    between atoms: O_2  and  C_3
REMARK    3  A    between atoms: C_6  and  C_7
REMARK    4  A    between atoms: C_7  and  N_8
REMARK    5  A    between atoms: N_8  and  C_9
REMARK    6  A    between atoms: C_9  and  C_10
REMARK                            x       y       z     vdW  Elec       q    Type
REMARK                         _______ _______ _______ _____ _____    ______ ____
ROOT
ATOM      1  N   UNL     1       4.406   3.072  17.098  0.00  0.00    +0.000 NA
ATOM      2  H   UNL     1       4.840   3.199  17.996  0.00  0.00    +0.000 HD
ENDROOT
BRANCH   1   3
ATOM      3  C   UNL     1       4.940   4.018  16.103  0.00  0.00    +0.000 C 
BRANCH   3   7
ATOM      4  C   UNL     1       7.613   6.790  18.047  0.00  0.00    +0.000 A 
ATOM      5  C   UNL     1       6.646   7.246  17.145  0.00  0.00    +0.000 A 
ATOM      6  C   UNL     1       5.707   6.365  16.629  0.00  0.00    +0.000 A 
ATOM      7  C   UNL     1       5.852   4.976  16.830  0.00  0.00    +0.000 A 
ATOM      8  C   UNL     1       6.853   4.509  17.663  0.00  0.00    +0.000 A 
ATOM      9  C   UNL     1       7.743   5.424  18.273  0.00  0.00    +0.000 A 
BRANCH   4  11
ATOM     10  C   UNL     1       8.231   9.064  18.023  0.00  0.00    +0.000 C 
ATOM     11  O   UNL     1       8.374   7.762  18.636  0.00  0.00    +0.000 OA
ENDBRANCH   4  11
ENDBRANCH   3   7
ENDBRANCH   1   3
BRANCH   1  12
ATOM     12  C   UNL     1       2.964   3.291  17.285  0.00  0.00    +0.000 C 
BRANCH  12  13
ATOM     13  C   UNL     1       2.682   3.603  18.740  0.00  0.00    +0.000 A 
ATOM     14  C   UNL     1       2.410   2.406  19.552  0.00  0.00    +0.000 A 
ATOM     15  C   UNL     1       1.861   2.558  20.809  0.00  0.00    +0.000 A 
ATOM     16  C   UNL     1       1.689   3.852  21.258  0.00  0.00    +0.000 A 
ATOM     17  C   UNL     1       1.950   5.029  20.449  0.00  0.00    +0.000 A 
ATOM     18  C   UNL     1       1.487   6.163  20.882  0.00  0.00    +0.000 A 
ATOM     19  C   UNL     1       1.504   7.325  20.013  0.00  0.00    +0.000 A 
ATOM     20  C   UNL     1       2.618   7.571  19.333  0.00  0.00    +0.000 A 
ATOM     21  C   UNL     1       2.980   6.392  18.749  0.00  0.00    +0.000 A 
ATOM     22  C   UNL     1       2.563   4.898  19.275  0.00  0.00    +0.000 A 
ENDBRANCH  12  13
ENDBRANCH   1  12
TORSDOF 5
ENDMDL
MODEL 2
REMARK VINA RESULT:      -7.1      2.734      4.637
REMARK  Name = 
REMARK  6 active torsions:
REMARK  status: ('A' for Active; 'I' for Inactive)
REMARK    1  A    between atoms: C_1  and  O_2
REMARK    2  A    between atoms: O_2  and  C_3
REMARK    3  A    between atoms: C_6  and  C_7
REMARK    4  A    between atoms: C_7  and  N_8
REMARK    5  A    between atoms: N_8  and  C_9
REMARK    6  A    between atoms: C_9  and  C_10
REMARK                            x       y       z     vdW  Elec       q    Type
REMARK                         _______ _______ _______ _____ _____    ______ ____
ROOT
ATOM      1  N   UNL     1       6.820   4.394  18.200  0.00  0.00    +0.000 NA
ATOM      2  H   UNL     1       7.607   4.031  18.710  0.00  0.00    +0.000 HD
ENDROOT
BRANCH   1   3
ATOM      3  C   UNL     1       7.241   5.381  17.190  0.00  0.00    +0.000 C 
BRANCH   3   7
ATOM      4  C   UNL     1       6.235   3.894  13.268  0.00  0.00    +0.000 A 
ATOM      5  C   UNL     1       7.232   4.861  13.429  0.00  0.00    +0.000 A 
ATOM      6  C   UNL     1       7.640   5.234  14.702  0.00  0.00    +0.000 A 
ATOM      7  C   UNL     1       6.908   4.813  15.832  0.00  0.00    +0.000 A 
ATOM      8  C   UNL     1       5.870   3.911  15.675  0.00  0.00    +0.000 A 
ATOM      9  C   UNL     1       5.529   3.451  14.382  0.00  0.00    +0.000 A 
BRANCH   4  11
ATOM     10  C   UNL     1       4.655   3.142  11.691  0.00  0.00    +0.000 C 
ATOM     11  O   UNL     1       6.033   3.464  11.985  0.00  0.00    +0.000 OA
ENDBRANCH   4  11
ENDBRANCH   3   7
ENDBRANCH   1   3
BRANCH   1  12
ATOM     12  C   UNL     1       5.926   5.022  19.183  0.00  0.00    +0.000 C 
BRANCH  12  13
ATOM     13  C   UNL     1       4.532   5.136  18.603  0.00  0.00    +0.000 A 
ATOM     14  C   UNL     1       4.129   6.523  18.317  0.00  0.00    +0.000 A 
ATOM     15  C   UNL     1       2.801   6.797  18.062  0.00  0.00    +0.000 A 
ATOM     16  C   UNL     1       1.946   5.716  18.002  0.00  0.00    +0.000 A 
ATOM     17  C   UNL     1       2.346   4.351  18.293  0.00  0.00    +0.000 A 
ATOM     18  C   UNL     1       1.400   3.479  18.473  0.00  0.00    +0.000 A 
ATOM     19  C   UNL     1       1.724   2.166  18.998  0.00  0.00    +0.000 A 
ATOM     20  C   UNL     1       2.770   1.533  18.477  0.00  0.00    +0.000 A 
ATOM     21  C   UNL     1       3.797   2.434  18.464  0.00  0.00    +0.000 A 
ATOM     22  C   UNL     1       3.636   4.064  18.449  0.00  0.00    +0.000 A 
ENDBRANCH  12  13
ENDBRANCH   1  12
TORSDOF 5
ENDMDL
MODEL 3
REMARK VINA RESULT:      -7.1      0.859      1.613
REMARK  Name = 
REMARK  6 active torsions:
REMARK  status: ('A' for Active; 'I' for Inactive)
REMARK    1  A    between atoms: C_1  and  O_2
REMARK    2  A    between atoms: O_2  and  C_3
REMARK    3  A    between atoms: C_6  and  C_7
REMARK    4  A    between atoms: C_7  and  N_8
REMARK    5  A    between atoms: N_8  and  C_9
REMARK    6  A    between atoms: C_9  and  C_10
REMARK                            x       y       z     vdW  Elec       q    Type
REMARK                         _______ _______ _______ _____ _____    ______ ____
ROOT
ATOM      1  N   UNL     1       4.038   3.214  17.352  0.00  0.00    +0.000 NA
ATOM      2  H   UNL     1       4.462   3.394  18.246  0.00  0.00    +0.000 HD
ENDROOT
BRANCH   1   3
ATOM      3  C   UNL     1       4.869   3.722  16.248  0.00  0.00    +0.000 C 
BRANCH   3   7
ATOM      4  C   UNL     1       7.457   6.697  17.999  0.00  0.00    +0.000 A 
ATOM      5  C   UNL     1       7.096   5.553  18.718  0.00  0.00    +0.000 A 
ATOM      6  C   UNL     1       6.375   4.542  18.101  0.00  0.00    +0.000 A 
ATOM      7  C   UNL     1       5.812   4.750  16.825  0.00  0.00    +0.000 A 
ATOM      8  C   UNL     1       6.103   5.913  16.133  0.00  0.00    +0.000 A 
ATOM      9  C   UNL     1       6.930   6.896  16.727  0.00  0.00    +0.000 A 
BRANCH   4  11
ATOM     10  C   UNL     1       8.283   8.900  18.125  0.00  0.00    +0.000 C 
ATOM     11  O   UNL     1       8.318   7.548  18.637  0.00  0.00    +0.000 OA
ENDBRANCH   4  11
ENDBRANCH   3   7
ENDBRANCH   1   3
BRANCH   1  12
ATOM     12  C   UNL     1       2.731   3.887  17.357  0.00  0.00    +0.000 C 
BRANCH  12  13
ATOM     13  C   UNL     1       2.591   4.717  18.615  0.00  0.00    +0.000 A 
ATOM     14  C   UNL     1       2.295   3.916  19.814  0.00  0.00    +0.000 A 
ATOM     15  C   UNL     1       1.862   4.555  20.958  0.00  0.00    +0.000 A 
ATOM     16  C   UNL     1       1.825   5.934  20.921  0.00  0.00    +0.000 A 
ATOM     17  C   UNL     1       2.110   6.719  19.734  0.00  0.00    +0.000 A 
ATOM     18  C   UNL     1       1.771   7.973  19.754  0.00  0.00    +0.000 A 
ATOM     19  C   UNL     1       1.806   8.747  18.527  0.00  0.00    +0.000 A 
ATOM     20  C   UNL     1       2.878   8.626  17.752  0.00  0.00    +0.000 A 
ATOM     21  C   UNL     1       3.101   7.286  17.611  0.00  0.00    +0.000 A 
ATOM     22  C   UNL     1       2.615   6.122  18.657  0.00  0.00    +0.000 A 
ENDBRANCH  12  13
ENDBRANCH   1  12
TORSDOF 5
ENDMDL
MODEL 4
REMARK VINA RESULT:      -6.9      2.624      4.387
REMARK  Name = 
REMARK  6 active torsions:
REMARK  status: ('A' for Active; 'I' for Inactive)
REMARK    1  A    between atoms: C_1  and  O_2
REMARK    2  A    between atoms: O_2  and  C_3
REMARK    3  A    between atoms: C_6  and  C_7
REMARK    4  A    between atoms: C_7  and  N_8
REMARK    5  A    between atoms: N_8  and  C_9
REMARK    6  A    between atoms: C_9  and  C_10
REMARK                            x       y       z     vdW  Elec       q    Type
REMARK                         _______ _______ _______ _____ _____    ______ ____
ROOT
ATOM      1  N   UNL     1       6.596   4.148  18.333  0.00  0.00    +0.000 NA
ATOM      2  H   UNL     1       7.181   3.520  18.857  0.00  0.00    +0.000 HD
ENDROOT
BRANCH   1   3
ATOM      3  C   UNL     1       7.385   4.969  17.399  0.00  0.00    +0.000 C 
BRANCH   3   7
ATOM      4  C   UNL     1       6.186   4.009  13.368  0.00  0.00    +0.000 A 
ATOM      5  C   UNL     1       7.288   4.836  13.606  0.00  0.00    +0.000 A 
ATOM      6  C   UNL     1       7.745   5.030  14.901  0.00  0.00    +0.000 A 
ATOM      7  C   UNL     1       6.979   4.582  15.998  0.00  0.00    +0.000 A 
ATOM      8  C   UNL     1       5.844   3.824  15.772  0.00  0.00    +0.000 A 
ATOM      9  C   UNL     1       5.442   3.538  14.446  0.00  0.00    +0.000 A 
BRANCH   4  11
ATOM     10  C   UNL     1       4.620   3.158  11.827  0.00  0.00    +0.000 C 
ATOM     11  O   UNL     1       5.926   3.737  12.053  0.00  0.00    +0.000 OA
ENDBRANCH   4  11
ENDBRANCH   3   7
ENDBRANCH   1   3
BRANCH   1  12
ATOM     12  C   UNL     1       5.909   5.007  19.308  0.00  0.00    +0.000 C 
BRANCH  12  13
ATOM     13  C   UNL     1       4.441   5.111  18.950  0.00  0.00    +0.000 A 
ATOM     14  C   UNL     1       4.142   6.219  18.028  0.00  0.00    +0.000 A 
ATOM     15  C   UNL     1       2.830   6.605  17.848  0.00  0.00    +0.000 A 
ATOM     16  C   UNL     1       1.867   5.850  18.487  0.00  0.00    +0.000 A 
ATOM     17  C   UNL     1       2.168   4.764  19.402  0.00  0.00    +0.000 A 
ATOM     18  C   UNL     1       1.196   4.324  20.143  0.00  0.00    +0.000 A 
ATOM     19  C   UNL     1       1.482   3.415  21.237  0.00  0.00    +0.000 A 
ATOM     20  C   UNL     1       2.305   2.400  20.997  0.00  0.00    +0.000 A 
ATOM     21  C   UNL     1       3.396   2.930  20.370  0.00  0.00    +0.000 A 
ATOM     22  C   UNL     1       3.420   4.325  19.512  0.00  0.00    +0.000 A 
ENDBRANCH  12  13
ENDBRANCH   1  12
TORSDOF 5
ENDMDL
MODEL 5
REMARK VINA RESULT:      -6.9      3.450      6.422
REMARK  Name = 
REMARK  6 active torsions:
REMARK  status: ('A' for Active; 'I' for Inactive)
REMARK    1  A    between atoms: C_1  and  O_2
REMARK    2  A    between atoms: O_2  and  C_3
REMARK    3  A    between atoms: C_6  and  C_7
REMARK    4  A    between atoms: C_7  and  N_8
REMARK    5  A    between atoms: N_8  and  C_9
REMARK    6  A    between atoms: C_9  and  C_10
REMARK                            x       y       z     vdW  Elec       q    Type
REMARK                         _______ _______ _______ _____ _____    ______ ____
ROOT
ATOM      1  N   UNL     1       1.951   7.808  18.017  0.00  0.00    +0.000 NA
ATOM      2  H   UNL     1       1.514   7.474  17.175  0.00  0.00    +0.000 HD
ENDROOT
BRANCH   1   3
ATOM      3  C   UNL     1       1.742   9.254  18.196  0.00  0.00    +0.000 C 
BRANCH   3   7
ATOM      4  C   UNL     1      -0.168   9.946  22.002  0.00  0.00    +0.000 A 
ATOM      5  C   UNL     1      -0.345  10.841  20.943  0.00  0.00    +0.000 A 
ATOM      6  C   UNL     1       0.163  10.542  19.687  0.00  0.00    +0.000 A 
ATOM      7  C   UNL     1       1.044   9.453  19.520  0.00  0.00    +0.000 A 
ATOM      8  C   UNL     1       1.285   8.602  20.584  0.00  0.00    +0.000 A 
ATOM      9  C   UNL     1       0.677   8.853  21.836  0.00  0.00    +0.000 A 
BRANCH   4  11
ATOM     10  C   UNL     1      -1.634  11.459  23.057  0.00  0.00    +0.000 C 
ATOM     11  O   UNL     1      -0.857  10.242  23.146  0.00  0.00    +0.000 OA
ENDBRANCH   4  11
ENDBRANCH   3   7
ENDBRANCH   1   3
BRANCH   1  12
ATOM     12  C   UNL     1       3.386   7.512  17.899  0.00  0.00    +0.000 C 
BRANCH  12  13
ATOM     13  C   UNL     1       3.597   6.013  17.885  0.00  0.00    +0.000 A 
ATOM     14  C   UNL     1       4.527   5.563  16.835  0.00  0.00    +0.000 A 
ATOM     15  C   UNL     1       4.588   4.221  16.523  0.00  0.00    +0.000 A 
ATOM     16  C   UNL     1       3.826   3.369  17.296  0.00  0.00    +0.000 A 
ATOM     17  C   UNL     1       2.904   3.818  18.324  0.00  0.00    +0.000 A 
ATOM     18  C   UNL     1       2.051   2.950  18.778  0.00  0.00    +0.000 A 
ATOM     19  C   UNL     1       0.956   3.392  19.623  0.00  0.00    +0.000 A 
ATOM     20  C   UNL     1       1.239   4.241  20.605  0.00  0.00    +0.000 A 
ATOM     21  C   UNL     1       1.994   5.233  20.050  0.00  0.00    +0.000 A 
ATOM     22  C   UNL     1       2.904   5.096  18.695  0.00  0.00    +0.000 A 
ENDBRANCH  12  13
ENDBRANCH   1  12
TORSDOF 5
ENDMDL
MODEL 6
REMARK VINA RESULT:      -6.8      0.480      1.149
REMARK  Name = 
REMARK  6 active torsions:
REMARK  status: ('A' for Active; 'I' for Inactive)
REMARK    1  A    between atoms: C_1  and  O_2
REMARK    2  A    between atoms: O_2  and  C_3
REMARK    3  A    between atoms: C_6  and  C_7
REMARK    4  A    between atoms: C_7  and  N_8
REMARK    5  A    between atoms: N_8  and  C_9
REMARK    6  A    between atoms: C_9  and  C_10
REMARK                            x       y       z     vdW  Elec       q    Type
REMARK                         _______ _______ _______ _____ _____    ______ ____
ROOT
ATOM      1  N   UNL     1       3.800   4.133  16.599  0.00  0.00    +0.000 NA
ATOM      2  H   UNL     1       3.299   4.188  15.729  0.00  0.00    +0.000 HD
ENDROOT
BRANCH   1   3
ATOM      3  C   UNL     1       5.206   3.748  16.390  0.00  0.00    +0.000 C 
BRANCH   3   7
ATOM      4  C   UNL     1       7.598   6.937  18.038  0.00  0.00    +0.000 A 
ATOM      5  C   UNL     1       7.727   5.629  18.516  0.00  0.00    +0.000 A 
ATOM      6  C   UNL     1       7.053   4.591  17.891  0.00  0.00    +0.000 A 
ATOM      7  C   UNL     1       6.068   4.868  16.920  0.00  0.00    +0.000 A 
ATOM      8  C   UNL     1       5.880   6.171  16.493  0.00  0.00    +0.000 A 
ATOM      9  C   UNL     1       6.649   7.214  17.060  0.00  0.00    +0.000 A 
BRANCH   4  11
ATOM     10  C   UNL     1       8.300   9.186  18.052  0.00  0.00    +0.000 C 
ATOM     11  O   UNL     1       8.439   7.856  18.603  0.00  0.00    +0.000 OA
ENDBRANCH   4  11
ENDBRANCH   3   7
ENDBRANCH   1   3
BRANCH   1  12
ATOM     12  C   UNL     1       3.114   3.126  17.422  0.00  0.00    +0.000 C 
BRANCH  12  13
ATOM     13  C   UNL     1       2.962   3.643  18.837  0.00  0.00    +0.000 A 
ATOM     14  C   UNL     1       2.907   2.574  19.848  0.00  0.00    +0.000 A 
ATOM     15  C   UNL     1       2.487   2.879  21.126  0.00  0.00    +0.000 A 
ATOM     16  C   UNL     1       2.231   4.209  21.393  0.00  0.00    +0.000 A 
ATOM     17  C   UNL     1       2.278   5.258  20.391  0.00  0.00    +0.000 A 
ATOM     18  C   UNL     1       1.750   6.403  20.703  0.00  0.00    +0.000 A 
ATOM     19  C   UNL     1       1.550   7.407  19.674  0.00  0.00    +0.000 A 
ATOM     20  C   UNL     1       2.551   7.635  18.831  0.00  0.00    +0.000 A 
ATOM     21  C   UNL     1       2.967   6.412  18.390  0.00  0.00    +0.000 A 
ATOM     22  C   UNL     1       2.769   4.992  19.183  0.00  0.00    +0.000 A 
ENDBRANCH  12  13
ENDBRANCH   1  12
TORSDOF 5
ENDMDL
MODEL 7
REMARK VINA RESULT:      -6.7      2.363      4.185
REMARK  Name = 
REMARK  6 active torsions:
REMARK  status: ('A' for Active; 'I' for Inactive)
REMARK    1  A    between atoms: C_1  and  O_2
REMARK    2  A    between atoms: O_2  and  C_3
REMARK    3  A    between atoms: C_6  and  C_7
REMARK    4  A    between atoms: C_7  and  N_8
REMARK    5  A    between atoms: N_8  and  C_9
REMARK    6  A    between atoms: C_9  and  C_10
REMARK                            x       y       z     vdW  Elec       q    Type
REMARK                         _______ _______ _______ _____ _____    ______ ____
ROOT
ATOM      1  N   UNL     1       3.789   5.731  19.878  0.00  0.00    +0.000 NA
ATOM      2  H   UNL     1       4.087   6.511  19.317  0.00  0.00    +0.000 HD
ENDROOT
BRANCH   1   3
ATOM      3  C   UNL     1       4.003   4.452  19.181  0.00  0.00    +0.000 C 
BRANCH   3   7
ATOM      4  C   UNL     1       6.815   5.015  15.959  0.00  0.00    +0.000 A 
ATOM      5  C   UNL     1       5.455   4.823  15.693  0.00  0.00    +0.000 A 
ATOM      6  C   UNL     1       4.543   4.778  16.736  0.00  0.00    +0.000 A 
ATOM      7  C   UNL     1       4.995   4.699  18.070  0.00  0.00    +0.000 A 
ATOM      8  C   UNL     1       6.347   4.812  18.340  0.00  0.00    +0.000 A 
ATOM      9  C   UNL     1       7.265   4.968  17.274  0.00  0.00    +0.000 A 
BRANCH   4  11
ATOM     10  C   UNL     1       7.066   4.674  13.641  0.00  0.00    +0.000 C 
ATOM     11  O   UNL     1       7.606   5.228  14.863  0.00  0.00    +0.000 OA
ENDBRANCH   4  11
ENDBRANCH   3   7
ENDBRANCH   1   3
BRANCH   1  12
ATOM     12  C   UNL     1       2.358   5.927  20.154  0.00  0.00    +0.000 C 
BRANCH  12  13
ATOM     13  C   UNL     1       1.901   7.245  19.565  0.00  0.00    +0.000 A 
ATOM     14  C   UNL     1       2.444   7.505  18.221  0.00  0.00    +0.000 A 
ATOM     15  C   UNL     1       2.348   8.775  17.693  0.00  0.00    +0.000 A 
ATOM     16  C   UNL     1       1.654   9.707  18.439  0.00  0.00    +0.000 A 
ATOM     17  C   UNL     1       1.129   9.448  19.768  0.00  0.00    +0.000 A 
ATOM     18  C   UNL     1       0.750  10.475  20.468  0.00  0.00    +0.000 A 
ATOM     19  C   UNL     1       0.444  10.311  21.877  0.00  0.00    +0.000 A 
ATOM     20  C   UNL     1      -0.310   9.275  22.228  0.00  0.00    +0.000 A 
ATOM     21  C   UNL     1       0.225   8.182  21.609  0.00  0.00    +0.000 A 
ATOM     22  C   UNL     1       1.135   8.207  20.247  0.00  0.00    +0.000 A 
ENDBRANCH  12  13
ENDBRANCH   1  12
TORSDOF 5
ENDMDL
MODEL 8
REMARK VINA RESULT:      -6.7      2.609      4.604
REMARK  Name = 
REMARK  6 active torsions:
REMARK  status: ('A' for Active; 'I' for Inactive)
REMARK    1  A    between atoms: C_1  and  O_2
REMARK    2  A    between atoms: O_2  and  C_3
REMARK    3  A    between atoms: C_6  and  C_7
REMARK    4  A    between atoms: C_7  and  N_8
REMARK    5  A    between atoms: N_8  and  C_9
REMARK    6  A    between atoms: C_9  and  C_10
REMARK                            x       y       z     vdW  Elec       q    Type
REMARK                         _______ _______ _______ _____ _____    ______ ____
ROOT
ATOM      1  N   UNL     1       2.870   5.868  18.983  0.00  0.00    +0.000 NA
ATOM      2  H   UNL     1       2.118   5.243  18.748  0.00  0.00    +0.000 HD
ENDROOT
BRANCH   1   3
ATOM      3  C   UNL     1       4.097   5.129  19.325  0.00  0.00    +0.000 C 
BRANCH   3   7
ATOM      4  C   UNL     1       6.752   5.307  15.930  0.00  0.00    +0.000 A 
ATOM      5  C   UNL     1       7.208   4.842  17.167  0.00  0.00    +0.000 A 
ATOM      6  C   UNL     1       6.316   4.662  18.214  0.00  0.00    +0.000 A 
ATOM      7  C   UNL     1       4.997   5.153  18.114  0.00  0.00    +0.000 A 
ATOM      8  C   UNL     1       4.557   5.685  16.914  0.00  0.00    +0.000 A 
ATOM      9  C   UNL     1       5.443   5.765  15.814  0.00  0.00    +0.000 A 
BRANCH   4  11
ATOM     10  C   UNL     1       7.133   4.784  13.664  0.00  0.00    +0.000 C 
ATOM     11  O   UNL     1       7.668   5.276  14.914  0.00  0.00    +0.000 OA
ENDBRANCH   4  11
ENDBRANCH   3   7
ENDBRANCH   1   3
BRANCH   1  12
ATOM     12  C   UNL     1       2.420   6.666  20.132  0.00  0.00    +0.000 C 
BRANCH  12  13
ATOM     13  C   UNL     1       1.770   7.943  19.641  0.00  0.00    +0.000 A 
ATOM     14  C   UNL     1       2.211   8.343  18.295  0.00  0.00    +0.000 A 
ATOM     15  C   UNL     1       1.927   9.616  17.847  0.00  0.00    +0.000 A 
ATOM     16  C   UNL     1       1.154  10.407  18.674  0.00  0.00    +0.000 A 
ATOM     17  C   UNL     1       0.730  10.010  20.005  0.00  0.00    +0.000 A 
ATOM     18  C   UNL     1       0.254  10.939  20.779  0.00  0.00    +0.000 A 
ATOM     19  C   UNL     1       0.038  10.660  22.187  0.00  0.00    +0.000 A 
ATOM     20  C   UNL     1      -0.559   9.517  22.505  0.00  0.00    +0.000 A 
ATOM     21  C   UNL     1       0.084   8.539  21.801  0.00  0.00    +0.000 A 
ATOM     22  C   UNL     1       0.919   8.757  20.409  0.00  0.00    +0.000 A 
ENDBRANCH  12  13
ENDBRANCH   1  12
TORSDOF 5
ENDMDL
MODEL 9
REMARK VINA RESULT:      -6.6      4.662      7.724
REMARK  Name = 
REMARK  6 active torsions:
REMARK  status: ('A' for Active; 'I' for Inactive)
REMARK    1  A    between atoms: C_1  and  O_2
REMARK    2  A    between atoms: O_2  and  C_3
REMARK    3  A    between atoms: C_6  and  C_7
REMARK    4  A    between atoms: C_7  and  N_8
REMARK    5  A    between atoms: N_8  and  C_9
REMARK    6  A    between atoms: C_9  and  C_10
REMARK                            x       y       z     vdW  Elec       q    Type
REMARK                         _______ _______ _______ _____ _____    ______ ____
ROOT
ATOM      1  N   UNL     1       1.423   9.067  19.429  0.00  0.00    +0.000 NA
ATOM      2  H   UNL     1       2.328   9.432  19.184  0.00  0.00    +0.000 HD
ENDROOT
BRANCH   1   3
ATOM      3  C   UNL     1       0.621  10.061  20.162  0.00  0.00    +0.000 C 
BRANCH   3   7
ATOM      4  C   UNL     1      -2.607  11.227  17.550  0.00  0.00    +0.000 A 
ATOM      5  C   UNL     1      -1.657  10.289  17.134  0.00  0.00    +0.000 A 
ATOM      6  C   UNL     1      -0.704   9.822  18.027  0.00  0.00    +0.000 A 
ATOM      7  C   UNL     1      -0.543  10.446  19.282  0.00  0.00    +0.000 A 
ATOM      8  C   UNL     1      -1.434  11.429  19.674  0.00  0.00    +0.000 A 
ATOM      9  C   UNL     1      -2.473  11.825  18.799  0.00  0.00    +0.000 A 
BRANCH   4  11
ATOM     10  C   UNL     1      -4.936  11.291  17.199  0.00  0.00    +0.000 C 
ATOM     11  O   UNL     1      -3.611  11.486  16.656  0.00  0.00    +0.000 OA
ENDBRANCH   4  11
ENDBRANCH   3   7
ENDBRANCH   1   3
BRANCH   1  12
ATOM     12  C   UNL     1       1.654   7.882  20.267  0.00  0.00    +0.000 C 
BRANCH  12  13
ATOM     13  C   UNL     1       2.359   6.815  19.456  0.00  0.00    +0.000 A 
ATOM     14  C   UNL     1       3.258   7.361  18.426  0.00  0.00    +0.000 A 
ATOM     15  C   UNL     1       3.735   6.524  17.439  0.00  0.00    +0.000 A 
ATOM     16  C   UNL     1       3.402   5.189  17.544  0.00  0.00    +0.000 A 
ATOM     17  C   UNL     1       2.507   4.657  18.556  0.00  0.00    +0.000 A 
ATOM     18  C   UNL     1       2.058   3.450  18.377  0.00  0.00    +0.000 A 
ATOM     19  C   UNL     1       0.984   2.952  19.217  0.00  0.00    +0.000 A 
ATOM     20  C   UNL     1       1.073   3.167  20.525  0.00  0.00    +0.000 A 
ATOM     21  C   UNL     1       1.376   4.489  20.678  0.00  0.00    +0.000 A 
ATOM     22  C   UNL     1       2.116   5.434  19.562  0.00  0.00    +0.000 A 
ENDBRANCH  12  13
ENDBRANCH   1  12
TORSDOF 5
ENDMDL
