MODEL 1
REMARK VINA RESULT:      -6.9      0.000      0.000
REMARK  Name = 
REMARK  13 active torsions:
REMARK  status: ('A' for Active; 'I' for Inactive)
REMARK    1  A    between atoms: C_1  and  C_2
REMARK    2  A    between atoms: C_4  and  C_5
REMARK    3  A    between atoms: C_5  and  C_6
REMARK    4  A    between atoms: C_6  and  C_7
REMARK    5  A    between atoms: C_7  and  C_8
REMARK    6  A    between atoms: C_8  and  C_9
REMARK    7  A    between atoms: C_9  and  C_10
REMARK    8  A    between atoms: C_10  and  C_11
REMARK    9  A    between atoms: C_11  and  O_12
REMARK   10  A    between atoms: O_12  and  C_13
REMARK   11  A    between atoms: C_16  and  C_17
REMARK   12  A    between atoms: C_17  and  C_18
REMARK   13  A    between atoms: C_17  and  C_19
REMARK                            x       y       z     vdW  Elec       q    Type
REMARK                         _______ _______ _______ _____ _____    ______ ____
ROOT
ATOM      1  C   UNL     1       1.210   4.166  19.906  0.00  0.00    +0.000 C 
ENDROOT
BRANCH   1   2
ATOM      2  C   UNL     1       1.473   3.968  18.408  0.00  0.00    +0.000 C 
BRANCH   2   3
ATOM      3  C   UNL     1       2.043   2.583  18.103  0.00  0.00    +0.000 C 
BRANCH   3   4
ATOM      4  C   UNL     1       3.533   2.612  17.771  0.00  0.00    +0.000 C 
BRANCH   4   5
ATOM      5  C   UNL     1       3.858   3.908  17.031  0.00  0.00    +0.000 C 
BRANCH   5   6
ATOM      6  C   UNL     1       5.173   3.821  16.262  0.00  0.00    +0.000 C 
BRANCH   6  10
ATOM      7  C   UNL     1       8.196   7.152  18.664  0.00  0.00    +0.000 C 
ATOM      8  C   UNL     1       7.412   6.346  17.702  0.00  0.00    +0.000 A 
ATOM      9  C   UNL     1       6.605   5.215  17.961  0.00  0.00    +0.000 A 
ATOM     10  C   UNL     1       6.109   4.868  16.731  0.00  0.00    +0.000 A 
ATOM     11  O   UNL     1       6.586   5.729  15.793  0.00  0.00    +0.000 OA
ATOM     12  N   UNL     1       7.410   6.661  16.403  0.00  0.00    +0.000 NA
ENDBRANCH   6  10
ENDBRANCH   5   6
ENDBRANCH   4   5
ENDBRANCH   3   4
ENDBRANCH   2   3
ENDBRANCH   1   2
BRANCH   1  13
ATOM     13  C   UNL     1       2.365   4.881  20.601  0.00  0.00    +0.000 C 
BRANCH  13  14
ATOM     14  O   UNL     1       3.004   5.774  19.693  0.00  0.00    +0.000 OA
BRANCH  14  15
ATOM     15  C   UNL     1       2.377   6.986  19.551  0.00  0.00    +0.000 A 
ATOM     16  C   UNL     1       2.373   7.504  18.259  0.00  0.00    +0.000 A 
ATOM     17  C   UNL     1       1.760   8.730  17.989  0.00  0.00    +0.000 A 
ATOM     18  C   UNL     1       1.119   9.451  19.007  0.00  0.00    +0.000 A 
ATOM     19  C   UNL     1       1.126   8.921  20.303  0.00  0.00    +0.000 A 
ATOM     20  C   UNL     1       1.742   7.697  20.573  0.00  0.00    +0.000 A 
BRANCH  18  21
ATOM     21  C   UNL     1       0.413  10.756  18.689  0.00  0.00    +0.000 C 
ATOM     22  C   UNL     1      -1.022  10.503  18.219  0.00  0.00    +0.000 C 
ATOM     23  C   UNL     1       0.434  11.723  19.876  0.00  0.00    +0.000 C 
ENDBRANCH  18  21
ENDBRANCH  14  15
ENDBRANCH  13  14
ENDBRANCH   1  13
TORSDOF 10
ENDMDL
MODEL 2
REMARK VINA RESULT:      -6.9      1.457      2.358
REMARK  Name = 
REMARK  13 active torsions:
REMARK  status: ('A' for Active; 'I' for Inactive)
REMARK    1  A    between atoms: C_1  and  C_2
REMARK    2  A    between atoms: C_4  and  C_5
REMARK    3  A    between atoms: C_5  and  C_6
REMARK    4  A    between atoms: C_6  and  C_7
REMARK    5  A    between atoms: C_7  and  C_8
REMARK    6  A    between atoms: C_8  and  C_9
REMARK    7  A    between atoms: C_9  and  C_10
REMARK    8  A    between atoms: C_10  and  C_11
REMARK    9  A    between atoms: C_11  and  O_12
REMARK   10  A    between atoms: O_12  and  C_13
REMARK   11  A    between atoms: C_16  and  C_17
REMARK   12  A    between atoms: C_17  and  C_18
REMARK   13  A    between atoms: C_17  and  C_19
REMARK                            x       y       z     vdW  Elec       q    Type
REMARK                         _______ _______ _______ _____ _____    ______ ____
ROOT
ATOM      1  C   UNL     1       1.449   3.957  20.291  0.00  0.00    +0.000 C 
ENDROOT
BRANCH   1   2
ATOM      2  C   UNL     1       1.510   3.858  18.762  0.00  0.00    +0.000 C 
BRANCH   2   3
ATOM      3  C   UNL     1       2.662   2.972  18.288  0.00  0.00    +0.000 C 
BRANCH   3   4
ATOM      4  C   UNL     1       3.421   3.565  17.103  0.00  0.00    +0.000 C 
BRANCH   4   5
ATOM      5  C   UNL     1       4.744   4.149  17.594  0.00  0.00    +0.000 C 
BRANCH   5   6
ATOM      6  C   UNL     1       5.089   5.464  16.901  0.00  0.00    +0.000 C 
BRANCH   6  10
ATOM      7  C   UNL     1       7.031   4.079  12.394  0.00  0.00    +0.000 C 
ATOM      8  C   UNL     1       6.755   4.625  13.741  0.00  0.00    +0.000 A 
ATOM      9  C   UNL     1       5.559   4.544  14.490  0.00  0.00    +0.000 A 
ATOM     10  C   UNL     1       5.849   5.202  15.657  0.00  0.00    +0.000 A 
ATOM     11  O   UNL     1       7.130   5.652  15.616  0.00  0.00    +0.000 OA
ATOM     12  N   UNL     1       7.704   5.291  14.407  0.00  0.00    +0.000 NA
ENDBRANCH   6  10
ENDBRANCH   5   6
ENDBRANCH   4   5
ENDBRANCH   3   4
ENDBRANCH   2   3
ENDBRANCH   1   2
BRANCH   1  13
ATOM     13  C   UNL     1       1.954   5.306  20.798  0.00  0.00    +0.000 C 
BRANCH  13  14
ATOM     14  O   UNL     1       2.724   5.950  19.787  0.00  0.00    +0.000 OA
BRANCH  14  15
ATOM     15  C   UNL     1       2.256   7.185  19.416  0.00  0.00    +0.000 A 
ATOM     16  C   UNL     1       1.596   7.894  20.417  0.00  0.00    +0.000 A 
ATOM     17  C   UNL     1       1.081   9.166  20.162  0.00  0.00    +0.000 A 
ATOM     18  C   UNL     1       1.235   9.763  18.902  0.00  0.00    +0.000 A 
ATOM     19  C   UNL     1       1.902   9.045  17.902  0.00  0.00    +0.000 A 
ATOM     20  C   UNL     1       2.415   7.771  18.157  0.00  0.00    +0.000 A 
BRANCH  18  21
ATOM     21  C   UNL     1       0.714  11.167  18.654  0.00  0.00    +0.000 C 
ATOM     22  C   UNL     1      -0.459  11.489  19.585  0.00  0.00    +0.000 C 
ATOM     23  C   UNL     1       1.817  12.219  18.785  0.00  0.00    +0.000 C 
ENDBRANCH  18  21
ENDBRANCH  14  15
ENDBRANCH  13  14
ENDBRANCH   1  13
TORSDOF 10
ENDMDL
MODEL 3
REMARK VINA RESULT:      -6.8      1.914      3.624
REMARK  Name = 
REMARK  13 active torsions:
REMARK  status: ('A' for Active; 'I' for Inactive)
REMARK    1  A    between atoms: C_1  and  C_2
REMARK    2  A    between atoms: C_4  and  C_5
REMARK    3  A    between atoms: C_5  and  C_6
REMARK    4  A    between atoms: C_6  and  C_7
REMARK    5  A    between atoms: C_7  and  C_8
REMARK    6  A    between atoms: C_8  and  C_9
REMARK    7  A    between atoms: C_9  and  C_10
REMARK    8  A    between atoms: C_10  and  C_11
REMARK    9  A    between atoms: C_11  and  O_12
REMARK   10  A    between atoms: O_12  and  C_13
REMARK   11  A    between atoms: C_16  and  C_17
REMARK   12  A    between atoms: C_17  and  C_18
REMARK   13  A    between atoms: C_17  and  C_19
REMARK                            x       y       z     vdW  Elec       q    Type
REMARK                         _______ _______ _______ _____ _____    ______ ____
ROOT
ATOM      1  C   UNL     1       3.544   1.940  18.526  0.00  0.00    +0.000 C 
ENDROOT
BRANCH   1   2
ATOM      2  C   UNL     1       4.496   2.286  19.678  0.00  0.00    +0.000 C 
BRANCH   2   3
ATOM      3  C   UNL     1       4.879   3.766  19.682  0.00  0.00    +0.000 C 
BRANCH   3   4
ATOM      4  C   UNL     1       5.428   4.242  18.340  0.00  0.00    +0.000 C 
BRANCH   4   5
ATOM      5  C   UNL     1       5.123   5.729  18.171  0.00  0.00    +0.000 C 
BRANCH   5   6
ATOM      6  C   UNL     1       6.195   6.451  17.359  0.00  0.00    +0.000 C 
BRANCH   6  10
ATOM      7  C   UNL     1       6.150   3.741  13.039  0.00  0.00    +0.000 C 
ATOM      8  C   UNL     1       6.466   4.599  14.203  0.00  0.00    +0.000 A 
ATOM      9  C   UNL     1       5.617   4.976  15.269  0.00  0.00    +0.000 A 
ATOM     10  C   UNL     1       6.409   5.760  16.067  0.00  0.00    +0.000 A 
ATOM     11  O   UNL     1       7.649   5.854  15.519  0.00  0.00    +0.000 OA
ATOM     12  N   UNL     1       7.687   5.125  14.343  0.00  0.00    +0.000 NA
ENDBRANCH   6  10
ENDBRANCH   5   6
ENDBRANCH   4   5
ENDBRANCH   3   4
ENDBRANCH   2   3
ENDBRANCH   1   2
BRANCH   1  13
ATOM     13  C   UNL     1       2.199   1.424  19.030  0.00  0.00    +0.000 C 
BRANCH  13  14
ATOM     14  O   UNL     1       1.149   2.272  18.575  0.00  0.00    +0.000 OA
BRANCH  14  15
ATOM     15  C   UNL     1       1.365   3.610  18.790  0.00  0.00    +0.000 A 
ATOM     16  C   UNL     1       1.304   4.013  20.122  0.00  0.00    +0.000 A 
ATOM     17  C   UNL     1       1.513   5.350  20.466  0.00  0.00    +0.000 A 
ATOM     18  C   UNL     1       1.808   6.307  19.485  0.00  0.00    +0.000 A 
ATOM     19  C   UNL     1       1.871   5.892  18.149  0.00  0.00    +0.000 A 
ATOM     20  C   UNL     1       1.658   4.555  17.804  0.00  0.00    +0.000 A 
BRANCH  18  21
ATOM     21  C   UNL     1       2.083   7.746  19.880  0.00  0.00    +0.000 C 
ATOM     22  C   UNL     1       1.871   8.690  18.693  0.00  0.00    +0.000 C 
ATOM     23  C   UNL     1       1.238   8.182  21.079  0.00  0.00    +0.000 C 
ENDBRANCH  18  21
ENDBRANCH  14  15
ENDBRANCH  13  14
ENDBRANCH   1  13
TORSDOF 10
ENDMDL
MODEL 4
REMARK VINA RESULT:      -6.6      4.379      7.451
REMARK  Name = 
REMARK  13 active torsions:
REMARK  status: ('A' for Active; 'I' for Inactive)
REMARK    1  A    between atoms: C_1  and  C_2
REMARK    2  A    between atoms: C_4  and  C_5
REMARK    3  A    between atoms: C_5  and  C_6
REMARK    4  A    between atoms: C_6  and  C_7
REMARK    5  A    between atoms: C_7  and  C_8
REMARK    6  A    between atoms: C_8  and  C_9
REMARK    7  A    between atoms: C_9  and  C_10
REMARK    8  A    between atoms: C_10  and  C_11
REMARK    9  A    between atoms: C_11  and  O_12
REMARK   10  A    between atoms: O_12  and  C_13
REMARK   11  A    between atoms: C_16  and  C_17
REMARK   12  A    between atoms: C_17  and  C_18
REMARK   13  A    between atoms: C_17  and  C_19
REMARK                            x       y       z     vdW  Elec       q    Type
REMARK                         _______ _______ _______ _____ _____    ______ ____
ROOT
ATOM      1  C   UNL     1       7.518   5.925  17.706  0.00  0.00    +0.000 C 
ENDROOT
BRANCH   1   2
ATOM      2  C   UNL     1       7.543   7.436  17.448  0.00  0.00    +0.000 C 
BRANCH   2   3
ATOM      3  C   UNL     1       8.333   8.189  18.518  0.00  0.00    +0.000 C 
BRANCH   3   4
ATOM      4  C   UNL     1       8.509   9.671  18.196  0.00  0.00    +0.000 C 
BRANCH   4   5
ATOM      5  C   UNL     1       9.445  10.302  19.224  0.00  0.00    +0.000 C 
BRANCH   5   6
ATOM      6  C   UNL     1       9.809  11.741  18.870  0.00  0.00    +0.000 C 
BRANCH   6  10
ATOM      7  C   UNL     1       9.933  15.230  22.588  0.00  0.00    +0.000 C 
ATOM      8  C   UNL     1       9.698  14.061  21.711  0.00  0.00    +0.000 A 
ATOM      9  C   UNL     1      10.181  13.838  20.401  0.00  0.00    +0.000 A 
ATOM     10  C   UNL     1       9.676  12.610  20.062  0.00  0.00    +0.000 A 
ATOM     11  O   UNL     1       8.936  12.125  21.094  0.00  0.00    +0.000 OA
ATOM     12  N   UNL     1       8.947  13.039  22.135  0.00  0.00    +0.000 NA
ENDBRANCH   6  10
ENDBRANCH   5   6
ENDBRANCH   4   5
ENDBRANCH   3   4
ENDBRANCH   2   3
ENDBRANCH   1   2
BRANCH   1  13
ATOM     13  C   UNL     1       6.934   5.152  16.526  0.00  0.00    +0.000 C 
BRANCH  13  14
ATOM     14  O   UNL     1       5.650   5.671  16.191  0.00  0.00    +0.000 OA
BRANCH  14  15
ATOM     15  C   UNL     1       4.613   5.131  16.910  0.00  0.00    +0.000 A 
ATOM     16  C   UNL     1       3.777   6.056  17.531  0.00  0.00    +0.000 A 
ATOM     17  C   UNL     1       2.684   5.626  18.286  0.00  0.00    +0.000 A 
ATOM     18  C   UNL     1       2.394   4.261  18.417  0.00  0.00    +0.000 A 
ATOM     19  C   UNL     1       3.238   3.338  17.787  0.00  0.00    +0.000 A 
ATOM     20  C   UNL     1       4.333   3.767  17.034  0.00  0.00    +0.000 A 
BRANCH  18  21
ATOM     21  C   UNL     1       1.173   3.811  19.199  0.00  0.00    +0.000 C 
ATOM     22  C   UNL     1       0.779   2.380  18.824  0.00  0.00    +0.000 C 
ATOM     23  C   UNL     1       1.381   3.940  20.710  0.00  0.00    +0.000 C 
ENDBRANCH  18  21
ENDBRANCH  14  15
ENDBRANCH  13  14
ENDBRANCH   1  13
TORSDOF 10
ENDMDL
MODEL 5
REMARK VINA RESULT:      -6.5      3.564      6.553
REMARK  Name = 
REMARK  13 active torsions:
REMARK  status: ('A' for Active; 'I' for Inactive)
REMARK    1  A    between atoms: C_1  and  C_2
REMARK    2  A    between atoms: C_4  and  C_5
REMARK    3  A    between atoms: C_5  and  C_6
REMARK    4  A    between atoms: C_6  and  C_7
REMARK    5  A    between atoms: C_7  and  C_8
REMARK    6  A    between atoms: C_8  and  C_9
REMARK    7  A    between atoms: C_9  and  C_10
REMARK    8  A    between atoms: C_10  and  C_11
REMARK    9  A    between atoms: C_11  and  O_12
REMARK   10  A    between atoms: O_12  and  C_13
REMARK   11  A    between atoms: C_16  and  C_17
REMARK   12  A    between atoms: C_17  and  C_18
REMARK   13  A    between atoms: C_17  and  C_19
REMARK                            x       y       z     vdW  Elec       q    Type
REMARK                         _______ _______ _______ _____ _____    ______ ____
ROOT
ATOM      1  C   UNL     1       7.113   4.556  17.657  0.00  0.00    +0.000 C 
ENDROOT
BRANCH   1   2
ATOM      2  C   UNL     1       7.626   5.806  18.382  0.00  0.00    +0.000 C 
BRANCH   2   3
ATOM      3  C   UNL     1       7.056   7.092  17.785  0.00  0.00    +0.000 C 
BRANCH   3   4
ATOM      4  C   UNL     1       8.137   8.047  17.284  0.00  0.00    +0.000 C 
BRANCH   4   5
ATOM      5  C   UNL     1       7.987   9.392  17.991  0.00  0.00    +0.000 C 
BRANCH   5   6
ATOM      6  C   UNL     1       9.034   9.593  19.083  0.00  0.00    +0.000 C 
BRANCH   6  10
ATOM      7  C   UNL     1      11.181  13.987  17.638  0.00  0.00    +0.000 C 
ATOM      8  C   UNL     1      10.680  12.789  18.346  0.00  0.00    +0.000 A 
ATOM      9  C   UNL     1       9.875  11.744  17.839  0.00  0.00    +0.000 A 
ATOM     10  C   UNL     1       9.715  10.896  18.904  0.00  0.00    +0.000 A 
ATOM     11  O   UNL     1      10.376  11.395  19.981  0.00  0.00    +0.000 OA
ATOM     12  N   UNL     1      10.985  12.590  19.633  0.00  0.00    +0.000 NA
ENDBRANCH   6  10
ENDBRANCH   5   6
ENDBRANCH   4   5
ENDBRANCH   3   4
ENDBRANCH   2   3
ENDBRANCH   1   2
BRANCH   1  13
ATOM     13  C   UNL     1       6.489   4.894  16.305  0.00  0.00    +0.000 C 
BRANCH  13  14
ATOM     14  O   UNL     1       5.417   3.998  16.026  0.00  0.00    +0.000 OA
BRANCH  14  15
ATOM     15  C   UNL     1       4.448   3.950  16.996  0.00  0.00    +0.000 A 
ATOM     16  C   UNL     1       3.881   5.178  17.329  0.00  0.00    +0.000 A 
ATOM     17  C   UNL     1       2.880   5.255  18.300  0.00  0.00    +0.000 A 
ATOM     18  C   UNL     1       2.412   4.100  18.942  0.00  0.00    +0.000 A 
ATOM     19  C   UNL     1       2.985   2.870  18.598  0.00  0.00    +0.000 A 
ATOM     20  C   UNL     1       3.988   2.793  17.630  0.00  0.00    +0.000 A 
BRANCH  18  21
ATOM     21  C   UNL     1       1.288   4.194  19.957  0.00  0.00    +0.000 C 
ATOM     22  C   UNL     1       1.250   2.949  20.849  0.00  0.00    +0.000 C 
ATOM     23  C   UNL     1       1.386   5.465  20.804  0.00  0.00    +0.000 C 
ENDBRANCH  18  21
ENDBRANCH  14  15
ENDBRANCH  13  14
ENDBRANCH   1  13
TORSDOF 10
ENDMDL
MODEL 6
REMARK VINA RESULT:      -6.5      1.050      1.360
REMARK  Name = 
REMARK  13 active torsions:
REMARK  status: ('A' for Active; 'I' for Inactive)
REMARK    1  A    between atoms: C_1  and  C_2
REMARK    2  A    between atoms: C_4  and  C_5
REMARK    3  A    between atoms: C_5  and  C_6
REMARK    4  A    between atoms: C_6  and  C_7
REMARK    5  A    between atoms: C_7  and  C_8
REMARK    6  A    between atoms: C_8  and  C_9
REMARK    7  A    between atoms: C_9  and  C_10
REMARK    8  A    between atoms: C_10  and  C_11
REMARK    9  A    between atoms: C_11  and  O_12
REMARK   10  A    between atoms: O_12  and  C_13
REMARK   11  A    between atoms: C_16  and  C_17
REMARK   12  A    between atoms: C_17  and  C_18
REMARK   13  A    between atoms: C_17  and  C_19
REMARK                            x       y       z     vdW  Elec       q    Type
REMARK                         _______ _______ _______ _____ _____    ______ ____
ROOT
ATOM      1  C   UNL     1       1.262   3.060  19.246  0.00  0.00    +0.000 C 
ENDROOT
BRANCH   1   2
ATOM      2  C   UNL     1       2.442   2.118  19.513  0.00  0.00    +0.000 C 
BRANCH   2   3
ATOM      3  C   UNL     1       3.257   1.844  18.249  0.00  0.00    +0.000 C 
BRANCH   3   4
ATOM      4  C   UNL     1       3.195   2.990  17.241  0.00  0.00    +0.000 C 
BRANCH   4   5
ATOM      5  C   UNL     1       4.360   3.945  17.494  0.00  0.00    +0.000 C 
BRANCH   5   6
ATOM      6  C   UNL     1       4.645   4.841  16.293  0.00  0.00    +0.000 C 
BRANCH   6  10
ATOM      7  C   UNL     1       7.777   8.558  17.833  0.00  0.00    +0.000 C 
ATOM      8  C   UNL     1       7.128   7.378  17.221  0.00  0.00    +0.000 A 
ATOM      9  C   UNL     1       5.812   6.901  17.421  0.00  0.00    +0.000 A 
ATOM     10  C   UNL     1       5.730   5.796  16.614  0.00  0.00    +0.000 A 
ATOM     11  O   UNL     1       6.915   5.617  15.972  0.00  0.00    +0.000 OA
ATOM     12  N   UNL     1       7.799   6.612  16.355  0.00  0.00    +0.000 NA
ENDBRANCH   6  10
ENDBRANCH   5   6
ENDBRANCH   4   5
ENDBRANCH   3   4
ENDBRANCH   2   3
ENDBRANCH   1   2
BRANCH   1  13
ATOM     13  C   UNL     1       1.160   4.163  20.296  0.00  0.00    +0.000 C 
BRANCH  13  14
ATOM     14  O   UNL     1       2.306   5.007  20.230  0.00  0.00    +0.000 OA
BRANCH  14  15
ATOM     15  C   UNL     1       2.024   6.334  20.022  0.00  0.00    +0.000 A 
ATOM     16  C   UNL     1       2.304   6.806  18.742  0.00  0.00    +0.000 A 
ATOM     17  C   UNL     1       2.053   8.138  18.409  0.00  0.00    +0.000 A 
ATOM     18  C   UNL     1       1.497   9.021  19.346  0.00  0.00    +0.000 A 
ATOM     19  C   UNL     1       1.217   8.537  20.630  0.00  0.00    +0.000 A 
ATOM     20  C   UNL     1       1.470   7.205  20.964  0.00  0.00    +0.000 A 
BRANCH  18  21
ATOM     21  C   UNL     1       1.183  10.452  18.954  0.00  0.00    +0.000 C 
ATOM     22  C   UNL     1       2.164  10.958  17.892  0.00  0.00    +0.000 C 
ATOM     23  C   UNL     1      -0.263  10.613  18.479  0.00  0.00    +0.000 C 
ENDBRANCH  18  21
ENDBRANCH  14  15
ENDBRANCH  13  14
ENDBRANCH   1  13
TORSDOF 10
ENDMDL
MODEL 7
REMARK VINA RESULT:      -6.5      4.653      7.725
REMARK  Name = 
REMARK  13 active torsions:
REMARK  status: ('A' for Active; 'I' for Inactive)
REMARK    1  A    between atoms: C_1  and  C_2
REMARK    2  A    between atoms: C_4  and  C_5
REMARK    3  A    between atoms: C_5  and  C_6
REMARK    4  A    between atoms: C_6  and  C_7
REMARK    5  A    between atoms: C_7  and  C_8
REMARK    6  A    between atoms: C_8  and  C_9
REMARK    7  A    between atoms: C_9  and  C_10
REMARK    8  A    between atoms: C_10  and  C_11
REMARK    9  A    between atoms: C_11  and  O_12
REMARK   10  A    between atoms: O_12  and  C_13
REMARK   11  A    between atoms: C_16  and  C_17
REMARK   12  A    between atoms: C_17  and  C_18
REMARK   13  A    between atoms: C_17  and  C_19
REMARK                            x       y       z     vdW  Elec       q    Type
REMARK                         _______ _______ _______ _____ _____    ______ ____
ROOT
ATOM      1  C   UNL     1       7.634   6.954  17.559  0.00  0.00    +0.000 C 
ENDROOT
BRANCH   1   2
ATOM      2  C   UNL     1       8.297   8.011  18.451  0.00  0.00    +0.000 C 
BRANCH   2   3
ATOM      3  C   UNL     1       8.056   9.430  17.938  0.00  0.00    +0.000 C 
BRANCH   3   4
ATOM      4  C   UNL     1       9.270  10.339  18.109  0.00  0.00    +0.000 C 
BRANCH   4   5
ATOM      5  C   UNL     1       9.326  10.838  19.552  0.00  0.00    +0.000 C 
BRANCH   5   6
ATOM      6  C   UNL     1      10.622  11.583  19.858  0.00  0.00    +0.000 C 
BRANCH   6  10
ATOM      7  C   UNL     1      11.083  15.704  16.890  0.00  0.00    +0.000 C 
ATOM      8  C   UNL     1      10.813  14.716  17.958  0.00  0.00    +0.000 A 
ATOM      9  C   UNL     1      11.051  13.323  17.943  0.00  0.00    +0.000 A 
ATOM     10  C   UNL     1      10.629  12.897  19.175  0.00  0.00    +0.000 A 
ATOM     11  O   UNL     1      10.166  13.959  19.886  0.00  0.00    +0.000 OA
ATOM     12  N   UNL     1      10.278  15.107  19.119  0.00  0.00    +0.000 NA
ENDBRANCH   6  10
ENDBRANCH   5   6
ENDBRANCH   4   5
ENDBRANCH   3   4
ENDBRANCH   2   3
ENDBRANCH   1   2
BRANCH   1  13
ATOM     13  C   UNL     1       6.188   7.313  17.225  0.00  0.00    +0.000 C 
BRANCH  13  14
ATOM     14  O   UNL     1       5.622   6.317  16.378  0.00  0.00    +0.000 OA
BRANCH  14  15
ATOM     15  C   UNL     1       4.606   5.594  16.950  0.00  0.00    +0.000 A 
ATOM     16  C   UNL     1       3.717   6.333  17.728  0.00  0.00    +0.000 A 
ATOM     17  C   UNL     1       2.639   5.708  18.357  0.00  0.00    +0.000 A 
ATOM     18  C   UNL     1       2.416   4.332  18.203  0.00  0.00    +0.000 A 
ATOM     19  C   UNL     1       3.313   3.598  17.417  0.00  0.00    +0.000 A 
ATOM     20  C   UNL     1       4.393   4.222  16.790  0.00  0.00    +0.000 A 
BRANCH  18  21
ATOM     21  C   UNL     1       1.211   3.677  18.851  0.00  0.00    +0.000 C 
ATOM     22  C   UNL     1       1.292   2.151  18.741  0.00  0.00    +0.000 C 
ATOM     23  C   UNL     1       1.040   4.108  20.310  0.00  0.00    +0.000 C 
ENDBRANCH  18  21
ENDBRANCH  14  15
ENDBRANCH  13  14
ENDBRANCH   1  13
TORSDOF 10
ENDMDL
MODEL 8
REMARK VINA RESULT:      -6.5      0.921      1.532
REMARK  Name = 
REMARK  13 active torsions:
REMARK  status: ('A' for Active; 'I' for Inactive)
REMARK    1  A    between atoms: C_1  and  C_2
REMARK    2  A    between atoms: C_4  and  C_5
REMARK    3  A    between atoms: C_5  and  C_6
REMARK    4  A    between atoms: C_6  and  C_7
REMARK    5  A    between atoms: C_7  and  C_8
REMARK    6  A    between atoms: C_8  and  C_9
REMARK    7  A    between atoms: C_9  and  C_10
REMARK    8  A    between atoms: C_10  and  C_11
REMARK    9  A    between atoms: C_11  and  O_12
REMARK   10  A    between atoms: O_12  and  C_13
REMARK   11  A    between atoms: C_16  and  C_17
REMARK   12  A    between atoms: C_17  and  C_18
REMARK   13  A    between atoms: C_17  and  C_19
REMARK                            x       y       z     vdW  Elec       q    Type
REMARK                         _______ _______ _______ _____ _____    ______ ____
ROOT
ATOM      1  C   UNL     1       1.371   4.047  20.326  0.00  0.00    +0.000 C 
ENDROOT
BRANCH   1   2
ATOM      2  C   UNL     1       2.363   2.931  19.976  0.00  0.00    +0.000 C 
BRANCH   2   3
ATOM      3  C   UNL     1       1.858   2.049  18.835  0.00  0.00    +0.000 C 
BRANCH   3   4
ATOM      4  C   UNL     1       2.652   2.233  17.543  0.00  0.00    +0.000 C 
BRANCH   4   5
ATOM      5  C   UNL     1       3.855   3.133  17.816  0.00  0.00    +0.000 C 
BRANCH   5   6
ATOM      6  C   UNL     1       3.984   4.254  16.790  0.00  0.00    +0.000 C 
BRANCH   6  10
ATOM      7  C   UNL     1       7.946   7.086  18.303  0.00  0.00    +0.000 C 
ATOM      8  C   UNL     1       6.968   6.232  17.592  0.00  0.00    +0.000 A 
ATOM      9  C   UNL     1       5.741   5.721  18.071  0.00  0.00    +0.000 A 
ATOM     10  C   UNL     1       5.238   5.009  17.013  0.00  0.00    +0.000 A 
ATOM     11  O   UNL     1       6.103   5.084  15.967  0.00  0.00    +0.000 OA
ATOM     12  N   UNL     1       7.196   5.853  16.330  0.00  0.00    +0.000 NA
ENDBRANCH   6  10
ENDBRANCH   5   6
ENDBRANCH   4   5
ENDBRANCH   3   4
ENDBRANCH   2   3
ENDBRANCH   1   2
BRANCH   1  13
ATOM     13  C   UNL     1       2.078   5.313  20.804  0.00  0.00    +0.000 C 
BRANCH  13  14
ATOM     14  O   UNL     1       2.599   6.032  19.689  0.00  0.00    +0.000 OA
BRANCH  14  15
ATOM     15  C   UNL     1       2.107   7.306  19.554  0.00  0.00    +0.000 A 
ATOM     16  C   UNL     1       1.499   7.829  20.692  0.00  0.00    +0.000 A 
ATOM     17  C   UNL     1       0.966   9.120  20.679  0.00  0.00    +0.000 A 
ATOM     18  C   UNL     1       1.051   9.920  19.531  0.00  0.00    +0.000 A 
ATOM     19  C   UNL     1       1.668   9.387  18.393  0.00  0.00    +0.000 A 
ATOM     20  C   UNL     1       2.198   8.095  18.404  0.00  0.00    +0.000 A 
BRANCH  18  21
ATOM     21  C   UNL     1       0.513  11.339  19.548  0.00  0.00    +0.000 C 
ATOM     22  C   UNL     1       0.510  11.908  20.970  0.00  0.00    +0.000 C 
ATOM     23  C   UNL     1       1.286  12.257  18.598  0.00  0.00    +0.000 C 
ENDBRANCH  18  21
ENDBRANCH  14  15
ENDBRANCH  13  14
ENDBRANCH   1  13
TORSDOF 10
ENDMDL
MODEL 9
REMARK VINA RESULT:      -6.5      2.758      6.649
REMARK  Name = 
REMARK  13 active torsions:
REMARK  status: ('A' for Active; 'I' for Inactive)
REMARK    1  A    between atoms: C_1  and  C_2
REMARK    2  A    between atoms: C_4  and  C_5
REMARK    3  A    between atoms: C_5  and  C_6
REMARK    4  A    between atoms: C_6  and  C_7
REMARK    5  A    between atoms: C_7  and  C_8
REMARK    6  A    between atoms: C_8  and  C_9
REMARK    7  A    between atoms: C_9  and  C_10
REMARK    8  A    between atoms: C_10  and  C_11
REMARK    9  A    between atoms: C_11  and  O_12
REMARK   10  A    between atoms: O_12  and  C_13
REMARK   11  A    between atoms: C_16  and  C_17
REMARK   12  A    between atoms: C_17  and  C_18
REMARK   13  A    between atoms: C_17  and  C_19
REMARK                            x       y       z     vdW  Elec       q    Type
REMARK                         _______ _______ _______ _____ _____    ______ ____
ROOT
ATOM      1  C   UNL     1       1.448   3.370  20.814  0.00  0.00    +0.000 C 
ENDROOT
BRANCH   1   2
ATOM      2  C   UNL     1       1.455   4.899  20.708  0.00  0.00    +0.000 C 
BRANCH   2   3
ATOM      3  C   UNL     1       1.671   5.375  19.272  0.00  0.00    +0.000 C 
BRANCH   3   4
ATOM      4  C   UNL     1       2.712   6.487  19.164  0.00  0.00    +0.000 C 
BRANCH   4   5
ATOM      5  C   UNL     1       2.036   7.834  19.410  0.00  0.00    +0.000 C 
BRANCH   5   6
ATOM      6  C   UNL     1       2.038   8.719  18.167  0.00  0.00    +0.000 C 
BRANCH   6  10
ATOM      7  C   UNL     1      -1.381  12.423  18.938  0.00  0.00    +0.000 C 
ATOM      8  C   UNL     1      -0.176  11.592  18.725  0.00  0.00    +0.000 A 
ATOM      9  C   UNL     1      -0.093  10.186  18.600  0.00  0.00    +0.000 A 
ATOM     10  C   UNL     1       1.243   9.945  18.411  0.00  0.00    +0.000 A 
ATOM     11  O   UNL     1       1.921  11.122  18.423  0.00  0.00    +0.000 OA
ATOM     12  N   UNL     1       1.029  12.163  18.623  0.00  0.00    +0.000 NA
ENDBRANCH   6  10
ENDBRANCH   5   6
ENDBRANCH   4   5
ENDBRANCH   3   4
ENDBRANCH   2   3
ENDBRANCH   1   2
BRANCH   1  13
ATOM     13  C   UNL     1       2.833   2.812  21.134  0.00  0.00    +0.000 C 
BRANCH  13  14
ATOM     14  O   UNL     1       3.314   2.041  20.037  0.00  0.00    +0.000 OA
BRANCH  14  15
ATOM     15  C   UNL     1       3.848   2.782  19.013  0.00  0.00    +0.000 A 
ATOM     16  C   UNL     1       4.921   3.595  19.367  0.00  0.00    +0.000 A 
ATOM     17  C   UNL     1       5.552   4.392  18.408  0.00  0.00    +0.000 A 
ATOM     18  C   UNL     1       5.132   4.373  17.070  0.00  0.00    +0.000 A 
ATOM     19  C   UNL     1       4.054   3.549  16.723  0.00  0.00    +0.000 A 
ATOM     20  C   UNL     1       3.422   2.755  17.682  0.00  0.00    +0.000 A 
BRANCH  18  21
ATOM     21  C   UNL     1       5.859   5.205  16.031  0.00  0.00    +0.000 C 
ATOM     22  C   UNL     1       6.000   4.437  14.713  0.00  0.00    +0.000 C 
ATOM     23  C   UNL     1       5.180   6.557  15.801  0.00  0.00    +0.000 C 
ENDBRANCH  18  21
ENDBRANCH  14  15
ENDBRANCH  13  14
ENDBRANCH   1  13
TORSDOF 10
ENDMDL
