MODEL 1
REMARK VINA RESULT:      -7.9      0.000      0.000
REMARK  Name = 
REMARK  12 active torsions:
REMARK  status: ('A' for Active; 'I' for Inactive)
REMARK    1  A    between atoms: C_1  and  N_2
REMARK    2  A    between atoms: N_2  and  C_3
REMARK    3  A    between atoms: N_2  and  C_4
REMARK    4  A    between atoms: C_9  and  S_10
REMARK    5  A    between atoms: S_10  and  N_13
REMARK    6  A    between atoms: N_13  and  C_14
REMARK    7  A    between atoms: C_14  and  C_15
REMARK    8  A    between atoms: C_14  and  C_22
REMARK    9  A    between atoms: C_15  and  C_16
REMARK   10  A    between atoms: C_16  and  C_17
REMARK   11  A    between atoms: C_17  and  N_18
REMARK   12  A    between atoms: N_24  and  C_25
REMARK                            x       y       z     vdW  Elec       q    Type
REMARK                         _______ _______ _______ _____ _____    ______ ____
ROOT
ATOM      1  C   UNL     1       2.284   6.533  20.297  0.00  0.00    +0.000 C 
ENDROOT
BRANCH   1   2
ATOM      2  C   UNL     1       3.138   6.481  18.985  0.00  0.00    +0.000 C 
ATOM      3  O   UNL     1       2.817   7.086  17.968  0.00  0.00    +0.000 OA
ATOM      4  N   UNL     1       4.248   5.673  19.079  0.00  0.00    +0.000 N 
ATOM      5  H   UNL     1       4.399   5.245  19.988  0.00  0.00    +0.000 HD
BRANCH   4   6
ATOM      6  C   UNL     1       5.166   5.298  18.018  0.00  0.00    +0.000 C 
ATOM      7  C   UNL     1       6.051   6.426  17.475  0.00  0.00    +0.000 C 
ATOM      8  C   UNL     1       7.187   5.814  16.637  0.00  0.00    +0.000 C 
ATOM      9  C   UNL     1       6.677   4.896  15.523  0.00  0.00    +0.000 C 
ATOM     10  C   UNL     1       5.618   3.895  15.994  0.00  0.00    +0.000 C 
ATOM     11  C   UNL     1       4.529   4.553  16.841  0.00  0.00    +0.000 C 
ENDBRANCH   4   6
ENDBRANCH   1   2
BRANCH   1  12
ATOM     12  N   UNL     1       1.433   7.734  20.125  0.00  0.00    +0.000 NA
ATOM     13  H   UNL     1       1.539   8.242  19.246  0.00  0.00    +0.000 HD
BRANCH  12  14
ATOM     14  S   UNL     1       0.690   8.625  21.309  0.00  0.00    +0.000 S 
ATOM     15  O   UNL     1       1.681   8.880  22.332  0.00  0.00    +0.000 OA
ATOM     16  O   UNL     1      -0.515   7.885  21.631  0.00  0.00    +0.000 OA
BRANCH  14  22
ATOM     17  C   UNL     1      -1.504  13.490  21.476  0.00  0.00    +0.000 A 
ATOM     18  C   UNL     1      -2.020  13.174  22.745  0.00  0.00    +0.000 A 
ATOM     19  C   UNL     1      -1.772  11.949  23.350  0.00  0.00    +0.000 A 
ATOM     20  C   UNL     1      -1.031  10.981  22.683  0.00  0.00    +0.000 A 
ATOM     21  C   UNL     1      -0.551  11.178  21.371  0.00  0.00    +0.000 A 
ATOM     22  C   UNL     1       0.164  10.191  20.624  0.00  0.00    +0.000 A 
ATOM     23  C   UNL     1       0.646  10.470  19.335  0.00  0.00    +0.000 A 
ATOM     24  C   UNL     1       0.495  11.736  18.797  0.00  0.00    +0.000 A 
ATOM     25  C   UNL     1      -0.171  12.716  19.525  0.00  0.00    +0.000 A 
ATOM     26  C   UNL     1      -0.767  12.470  20.780  0.00  0.00    +0.000 A 
BRANCH  17  28
ATOM     27  C   UNL     1      -0.657  15.792  21.249  0.00  0.00    +0.000 C 
ATOM     28  N   UNL     1      -1.680  14.790  20.943  0.00  0.00    +0.000 N 
ATOM     29  C   UNL     1      -3.054  15.299  20.887  0.00  0.00    +0.000 C 
ENDBRANCH  17  28
ENDBRANCH  14  22
ENDBRANCH  12  14
ENDBRANCH   1  12
BRANCH   1  30
ATOM     30  C   UNL     1       1.497   5.234  20.481  0.00  0.00    +0.000 C 
BRANCH  30  31
ATOM     31  C   UNL     1       1.396   4.384  19.205  0.00  0.00    +0.000 C 
BRANCH  31  32
ATOM     32  C   UNL     1       1.720   2.902  19.420  0.00  0.00    +0.000 C 
BRANCH  32  33
ATOM     33  N   UNL     1       3.035   2.819  20.048  0.00  0.00    +0.000 NA
ATOM     34  C   UNL     1       3.927   2.080  19.509  0.00  0.00    +0.000 C 
ATOM     35  N   UNL     1       3.881   1.336  18.384  0.00  0.00    +0.000 N 
ATOM     36  N   UNL     1       5.139   1.952  20.096  0.00  0.00    +0.000 N 
ATOM     37  H   UNL     1       3.098   1.547  17.781  0.00  0.00    +0.000 HD
ATOM     38  H   UNL     1       4.752   1.365  17.869  0.00  0.00    +0.000 HD
ATOM     39  H   UNL     1       5.095   2.325  21.041  0.00  0.00    +0.000 HD
ATOM     40  H   UNL     1       5.462   0.993  20.107  0.00  0.00    +0.000 HD
ENDBRANCH  32  33
ENDBRANCH  31  32
ENDBRANCH  30  31
ENDBRANCH   1  30
TORSDOF 10
ENDMDL
MODEL 2
REMARK VINA RESULT:      -7.9      0.827      1.166
REMARK  Name = 
REMARK  12 active torsions:
REMARK  status: ('A' for Active; 'I' for Inactive)
REMARK    1  A    between atoms: C_1  and  N_2
REMARK    2  A    between atoms: N_2  and  C_3
REMARK    3  A    between atoms: N_2  and  C_4
REMARK    4  A    between atoms: C_9  and  S_10
REMARK    5  A    between atoms: S_10  and  N_13
REMARK    6  A    between atoms: N_13  and  C_14
REMARK    7  A    between atoms: C_14  and  C_15
REMARK    8  A    between atoms: C_14  and  C_22
REMARK    9  A    between atoms: C_15  and  C_16
REMARK   10  A    between atoms: C_16  and  C_17
REMARK   11  A    between atoms: C_17  and  N_18
REMARK   12  A    between atoms: N_24  and  C_25
REMARK                            x       y       z     vdW  Elec       q    Type
REMARK                         _______ _______ _______ _____ _____    ______ ____
ROOT
ATOM      1  C   UNL     1       2.231   6.791  20.314  0.00  0.00    +0.000 C 
ENDROOT
BRANCH   1   2
ATOM      2  C   UNL     1       3.123   6.805  19.027  0.00  0.00    +0.000 C 
ATOM      3  O   UNL     1       2.916   7.571  18.093  0.00  0.00    +0.000 OA
ATOM      4  N   UNL     1       4.126   5.863  19.039  0.00  0.00    +0.000 N 
ATOM      5  H   UNL     1       4.190   5.306  19.886  0.00  0.00    +0.000 HD
BRANCH   4   6
ATOM      6  C   UNL     1       5.034   5.518  17.959  0.00  0.00    +0.000 C 
ATOM      7  C   UNL     1       4.383   4.905  16.714  0.00  0.00    +0.000 C 
ATOM      8  C   UNL     1       5.395   4.928  15.555  0.00  0.00    +0.000 C 
ATOM      9  C   UNL     1       6.720   4.246  15.908  0.00  0.00    +0.000 C 
ATOM     10  C   UNL     1       7.287   4.679  17.262  0.00  0.00    +0.000 C 
ATOM     11  C   UNL     1       6.234   4.659  18.369  0.00  0.00    +0.000 C 
ENDBRANCH   4   6
ENDBRANCH   1   2
BRANCH   1  12
ATOM     12  N   UNL     1       1.346   7.969  20.152  0.00  0.00    +0.000 NA
ATOM     13  H   UNL     1       1.444   8.492  19.281  0.00  0.00    +0.000 HD
BRANCH  12  14
ATOM     14  S   UNL     1       0.568   8.821  21.341  0.00  0.00    +0.000 S 
ATOM     15  O   UNL     1       1.582   9.278  22.268  0.00  0.00    +0.000 OA
ATOM     16  O   UNL     1      -0.491   7.942  21.797  0.00  0.00    +0.000 OA
BRANCH  14  22
ATOM     17  C   UNL     1      -2.108  13.441  21.439  0.00  0.00    +0.000 A 
ATOM     18  C   UNL     1      -2.390  13.207  22.796  0.00  0.00    +0.000 A 
ATOM     19  C   UNL     1      -1.919  12.079  23.456  0.00  0.00    +0.000 A 
ATOM     20  C   UNL     1      -1.182  11.126  22.765  0.00  0.00    +0.000 A 
ATOM     21  C   UNL     1      -0.928  11.234  21.382  0.00  0.00    +0.000 A 
ATOM     22  C   UNL     1      -0.227  10.250  20.618  0.00  0.00    +0.000 A 
ATOM     23  C   UNL     1       0.024  10.443  19.250  0.00  0.00    +0.000 A 
ATOM     24  C   UNL     1      -0.346  11.627  18.636  0.00  0.00    +0.000 A 
ATOM     25  C   UNL     1      -1.001  12.606  19.374  0.00  0.00    +0.000 A 
ATOM     26  C   UNL     1      -1.373  12.432  20.725  0.00  0.00    +0.000 A 
BRANCH  17  28
ATOM     27  C   UNL     1      -1.602  15.802  20.953  0.00  0.00    +0.000 C 
ATOM     28  N   UNL     1      -2.506  14.657  20.831  0.00  0.00    +0.000 N 
ATOM     29  C   UNL     1      -3.934  14.983  20.882  0.00  0.00    +0.000 C 
ENDBRANCH  17  28
ENDBRANCH  14  22
ENDBRANCH  12  14
ENDBRANCH   1  12
BRANCH   1  30
ATOM     30  C   UNL     1       1.481   5.463  20.438  0.00  0.00    +0.000 C 
BRANCH  30  31
ATOM     31  C   UNL     1       2.183   4.437  21.342  0.00  0.00    +0.000 C 
BRANCH  31  32
ATOM     32  C   UNL     1       2.067   2.993  20.848  0.00  0.00    +0.000 C 
BRANCH  32  33
ATOM     33  N   UNL     1       3.206   2.726  19.975  0.00  0.00    +0.000 NA
ATOM     34  C   UNL     1       3.012   2.068  18.897  0.00  0.00    +0.000 C 
ATOM     35  N   UNL     1       1.875   1.564  18.374  0.00  0.00    +0.000 N 
ATOM     36  N   UNL     1       4.059   1.771  18.093  0.00  0.00    +0.000 N 
ATOM     37  H   UNL     1       1.031   1.926  18.797  0.00  0.00    +0.000 HD
ATOM     38  H   UNL     1       1.843   1.654  17.367  0.00  0.00    +0.000 HD
ATOM     39  H   UNL     1       4.926   1.952  18.591  0.00  0.00    +0.000 HD
ATOM     40  H   UNL     1       4.031   0.815  17.763  0.00  0.00    +0.000 HD
ENDBRANCH  32  33
ENDBRANCH  31  32
ENDBRANCH  30  31
ENDBRANCH   1  30
TORSDOF 10
ENDMDL
MODEL 3
REMARK VINA RESULT:      -7.7      3.169      9.617
REMARK  Name = 
REMARK  12 active torsions:
REMARK  status: ('A' for Active; 'I' for Inactive)
REMARK    1  A    between atoms: C_1  and  N_2
REMARK    2  A    between atoms: N_2  and  C_3
REMARK    3  A    between atoms: N_2  and  C_4
REMARK    4  A    between atoms: C_9  and  S_10
REMARK    5  A    between atoms: S_10  and  N_13
REMARK    6  A    between atoms: N_13  and  C_14
REMARK    7  A    between atoms: C_14  and  C_15
REMARK    8  A    between atoms: C_14  and  C_22
REMARK    9  A    between atoms: C_15  and  C_16
REMARK   10  A    between atoms: C_16  and  C_17
REMARK   11  A    between atoms: C_17  and  N_18
REMARK   12  A    between atoms: N_24  and  C_25
REMARK                            x       y       z     vdW  Elec       q    Type
REMARK                         _______ _______ _______ _____ _____    ______ ____
ROOT
ATOM      1  C   UNL     1      -0.898  11.414  21.119  0.00  0.00    +0.000 C 
ENDROOT
BRANCH   1   2
ATOM      2  C   UNL     1      -1.245  11.774  19.634  0.00  0.00    +0.000 C 
ATOM      3  O   UNL     1      -0.880  12.820  19.110  0.00  0.00    +0.000 OA
ATOM      4  N   UNL     1      -2.016  10.827  19.001  0.00  0.00    +0.000 N 
ATOM      5  H   UNL     1      -2.232  10.001  19.553  0.00  0.00    +0.000 HD
BRANCH   4   6
ATOM      6  C   UNL     1      -2.623  10.910  17.684  0.00  0.00    +0.000 C 
ATOM      7  C   UNL     1      -4.155  10.967  17.661  0.00  0.00    +0.000 C 
ATOM      8  C   UNL     1      -4.620  11.405  16.261  0.00  0.00    +0.000 C 
ATOM      9  C   UNL     1      -4.060  10.520  15.143  0.00  0.00    +0.000 C 
ATOM     10  C   UNL     1      -2.556  10.261  15.267  0.00  0.00    +0.000 C 
ATOM     11  C   UNL     1      -2.148   9.853  16.682  0.00  0.00    +0.000 C 
ENDBRANCH   4   6
ENDBRANCH   1   2
BRANCH   1  12
ATOM     12  N   UNL     1       0.415  10.733  21.027  0.00  0.00    +0.000 NA
ATOM     13  H   UNL     1       1.095  11.147  20.388  0.00  0.00    +0.000 HD
BRANCH  12  14
ATOM     14  S   UNL     1       0.777   9.171  21.444  0.00  0.00    +0.000 S 
ATOM     15  O   UNL     1      -0.482   8.486  21.653  0.00  0.00    +0.000 OA
ATOM     16  O   UNL     1       1.731   9.286  22.529  0.00  0.00    +0.000 OA
BRANCH  14  22
ATOM     17  C   UNL     1       2.865   5.040  18.781  0.00  0.00    +0.000 A 
ATOM     18  C   UNL     1       2.715   4.262  19.943  0.00  0.00    +0.000 A 
ATOM     19  C   UNL     1       2.157   4.783  21.103  0.00  0.00    +0.000 A 
ATOM     20  C   UNL     1       1.768   6.116  21.150  0.00  0.00    +0.000 A 
ATOM     21  C   UNL     1       1.963   6.992  20.063  0.00  0.00    +0.000 A 
ATOM     22  C   UNL     1       1.634   8.383  20.086  0.00  0.00    +0.000 A 
ATOM     23  C   UNL     1       1.821   9.189  18.952  0.00  0.00    +0.000 A 
ATOM     24  C   UNL     1       2.264   8.626  17.767  0.00  0.00    +0.000 A 
ATOM     25  C   UNL     1       2.559   7.268  17.720  0.00  0.00    +0.000 A 
ATOM     26  C   UNL     1       2.490   6.427  18.852  0.00  0.00    +0.000 A 
BRANCH  17  28
ATOM     27  C   UNL     1       2.629   3.251  17.105  0.00  0.00    +0.000 C 
ATOM     28  N   UNL     1       3.330   4.444  17.584  0.00  0.00    +0.000 N 
ATOM     29  C   UNL     1       4.779   4.444  17.367  0.00  0.00    +0.000 C 
ENDBRANCH  17  28
ENDBRANCH  14  22
ENDBRANCH  12  14
ENDBRANCH   1  12
BRANCH   1  30
ATOM     30  C   UNL     1      -0.888  12.671  21.992  0.00  0.00    +0.000 C 
BRANCH  30  31
ATOM     31  C   UNL     1      -2.266  13.334  22.139  0.00  0.00    +0.000 C 
BRANCH  31  32
ATOM     32  C   UNL     1      -3.136  12.720  23.240  0.00  0.00    +0.000 C 
BRANCH  32  33
ATOM     33  N   UNL     1      -4.394  13.458  23.280  0.00  0.00    +0.000 NA
ATOM     34  C   UNL     1      -5.325  13.044  24.051  0.00  0.00    +0.000 C 
ATOM     35  N   UNL     1      -5.351  11.999  24.905  0.00  0.00    +0.000 N 
ATOM     36  N   UNL     1      -6.516  13.686  24.073  0.00  0.00    +0.000 N 
ATOM     37  H   UNL     1      -4.441  11.607  25.105  0.00  0.00    +0.000 HD
ATOM     38  H   UNL     1      -5.848  12.214  25.759  0.00  0.00    +0.000 HD
ATOM     39  H   UNL     1      -6.569  14.321  23.281  0.00  0.00    +0.000 HD
ATOM     40  H   UNL     1      -7.298  13.045  24.069  0.00  0.00    +0.000 HD
ENDBRANCH  32  33
ENDBRANCH  31  32
ENDBRANCH  30  31
ENDBRANCH   1  30
TORSDOF 10
ENDMDL
MODEL 4
REMARK VINA RESULT:      -7.6      2.233      3.431
REMARK  Name = 
REMARK  12 active torsions:
REMARK  status: ('A' for Active; 'I' for Inactive)
REMARK    1  A    between atoms: C_1  and  N_2
REMARK    2  A    between atoms: N_2  and  C_3
REMARK    3  A    between atoms: N_2  and  C_4
REMARK    4  A    between atoms: C_9  and  S_10
REMARK    5  A    between atoms: S_10  and  N_13
REMARK    6  A    between atoms: N_13  and  C_14
REMARK    7  A    between atoms: C_14  and  C_15
REMARK    8  A    between atoms: C_14  and  C_22
REMARK    9  A    between atoms: C_15  and  C_16
REMARK   10  A    between atoms: C_16  and  C_17
REMARK   11  A    between atoms: C_17  and  N_18
REMARK   12  A    between atoms: N_24  and  C_25
REMARK                            x       y       z     vdW  Elec       q    Type
REMARK                         _______ _______ _______ _____ _____    ______ ____
ROOT
ATOM      1  C   UNL     1       4.348   4.758  17.711  0.00  0.00    +0.000 C 
ENDROOT
BRANCH   1   2
ATOM      2  C   UNL     1       5.090   5.156  16.391  0.00  0.00    +0.000 C 
ATOM      3  O   UNL     1       5.060   6.295  15.939  0.00  0.00    +0.000 OA
ATOM      4  N   UNL     1       5.741   4.107  15.784  0.00  0.00    +0.000 N 
ATOM      5  H   UNL     1       5.694   3.221  16.279  0.00  0.00    +0.000 HD
BRANCH   4   6
ATOM      6  C   UNL     1       6.402   4.099  14.491  0.00  0.00    +0.000 C 
ATOM      7  C   UNL     1       7.194   5.365  14.142  0.00  0.00    +0.000 C 
ATOM      8  C   UNL     1       8.105   5.071  12.938  0.00  0.00    +0.000 C 
ATOM      9  C   UNL     1       7.339   4.521  11.731  0.00  0.00    +0.000 C 
ATOM     10  C   UNL     1       6.368   3.394  12.089  0.00  0.00    +0.000 C 
ATOM     11  C   UNL     1       5.505   3.730  13.305  0.00  0.00    +0.000 C 
ENDBRANCH   4   6
ENDBRANCH   1   2
BRANCH   1  12
ATOM     12  N   UNL     1       3.836   6.044  18.239  0.00  0.00    +0.000 NA
ATOM     13  H   UNL     1       4.500   6.820  18.263  0.00  0.00    +0.000 HD
BRANCH  12  14
ATOM     14  S   UNL     1       2.515   6.285  19.210  0.00  0.00    +0.000 S 
ATOM     15  O   UNL     1       2.962   6.140  20.579  0.00  0.00    +0.000 OA
ATOM     16  O   UNL     1       1.496   5.401  18.679  0.00  0.00    +0.000 OA
BRANCH  14  22
ATOM     17  C   UNL     1       0.142  10.826  20.718  0.00  0.00    +0.000 A 
ATOM     18  C   UNL     1      -0.334  10.155  21.859  0.00  0.00    +0.000 A 
ATOM     19  C   UNL     1      -0.027   8.823  22.104  0.00  0.00    +0.000 A 
ATOM     20  C   UNL     1       0.736   8.105  21.191  0.00  0.00    +0.000 A 
ATOM     21  C   UNL     1       1.180   8.671  19.978  0.00  0.00    +0.000 A 
ATOM     22  C   UNL     1       1.915   7.955  18.982  0.00  0.00    +0.000 A 
ATOM     23  C   UNL     1       2.359   8.594  17.813  0.00  0.00    +0.000 A 
ATOM     24  C   UNL     1       2.148   9.951  17.642  0.00  0.00    +0.000 A 
ATOM     25  C   UNL     1       1.462  10.668  18.616  0.00  0.00    +0.000 A 
ATOM     26  C   UNL     1       0.902  10.064  19.763  0.00  0.00    +0.000 A 
BRANCH  17  28
ATOM     27  C   UNL     1       0.472  13.114  21.566  0.00  0.00    +0.000 C 
ATOM     28  N   UNL     1      -0.094  12.213  20.561  0.00  0.00    +0.000 N 
ATOM     29  C   UNL     1      -1.410  12.603  20.044  0.00  0.00    +0.000 C 
ENDBRANCH  17  28
ENDBRANCH  14  22
ENDBRANCH  12  14
ENDBRANCH   1  12
BRANCH   1  30
ATOM     30  C   UNL     1       3.256   3.724  17.426  0.00  0.00    +0.000 C 
BRANCH  30  31
ATOM     31  C   UNL     1       3.583   2.317  17.951  0.00  0.00    +0.000 C 
BRANCH  31  32
ATOM     32  C   UNL     1       2.528   1.750  18.905  0.00  0.00    +0.000 C 
BRANCH  32  33
ATOM     33  N   UNL     1       2.825   2.246  20.245  0.00  0.00    +0.000 NA
ATOM     34  C   UNL     1       1.911   2.866  20.887  0.00  0.00    +0.000 C 
ATOM     35  N   UNL     1       0.636   3.143  20.542  0.00  0.00    +0.000 N 
ATOM     36  N   UNL     1       2.175   3.372  22.114  0.00  0.00    +0.000 N 
ATOM     37  H   UNL     1       0.300   2.616  19.746  0.00  0.00    +0.000 HD
ATOM     38  H   UNL     1       0.000   3.059  21.325  0.00  0.00    +0.000 HD
ATOM     39  H   UNL     1       3.180   3.359  22.272  0.00  0.00    +0.000 HD
ATOM     40  H   UNL     1       1.809   4.308  22.231  0.00  0.00    +0.000 HD
ENDBRANCH  32  33
ENDBRANCH  31  32
ENDBRANCH  30  31
ENDBRANCH   1  30
TORSDOF 10
ENDMDL
MODEL 5
REMARK VINA RESULT:      -7.5      2.200      3.516
REMARK  Name = 
REMARK  12 active torsions:
REMARK  status: ('A' for Active; 'I' for Inactive)
REMARK    1  A    between atoms: C_1  and  N_2
REMARK    2  A    between atoms: N_2  and  C_3
REMARK    3  A    between atoms: N_2  and  C_4
REMARK    4  A    between atoms: C_9  and  S_10
REMARK    5  A    between atoms: S_10  and  N_13
REMARK    6  A    between atoms: N_13  and  C_14
REMARK    7  A    between atoms: C_14  and  C_15
REMARK    8  A    between atoms: C_14  and  C_22
REMARK    9  A    between atoms: C_15  and  C_16
REMARK   10  A    between atoms: C_16  and  C_17
REMARK   11  A    between atoms: C_17  and  N_18
REMARK   12  A    between atoms: N_24  and  C_25
REMARK                            x       y       z     vdW  Elec       q    Type
REMARK                         _______ _______ _______ _____ _____    ______ ____
ROOT
ATOM      1  C   UNL     1       4.986   5.637  17.900  0.00  0.00    +0.000 C 
ENDROOT
BRANCH   1   2
ATOM      2  C   UNL     1       5.485   5.898  16.439  0.00  0.00    +0.000 C 
ATOM      3  O   UNL     1       5.619   7.028  15.983  0.00  0.00    +0.000 OA
ATOM      4  N   UNL     1       5.720   4.748  15.721  0.00  0.00    +0.000 N 
ATOM      5  H   UNL     1       5.582   3.881  16.231  0.00  0.00    +0.000 HD
BRANCH   4   6
ATOM      6  C   UNL     1       6.054   4.633  14.312  0.00  0.00    +0.000 C 
ATOM      7  C   UNL     1       5.693   3.297  13.652  0.00  0.00    +0.000 C 
ATOM      8  C   UNL     1       5.774   3.454  12.123  0.00  0.00    +0.000 C 
ATOM      9  C   UNL     1       7.132   3.983  11.650  0.00  0.00    +0.000 C 
ATOM     10  C   UNL     1       7.625   5.194  12.445  0.00  0.00    +0.000 C 
ATOM     11  C   UNL     1       7.500   4.991  13.955  0.00  0.00    +0.000 C 
ENDBRANCH   4   6
ENDBRANCH   1   2
BRANCH   1  12
ATOM     12  N   UNL     1       4.042   6.748  18.163  0.00  0.00    +0.000 NA
ATOM     13  H   UNL     1       4.428   7.692  18.109  0.00  0.00    +0.000 HD
BRANCH  12  14
ATOM     14  S   UNL     1       2.597   6.679  18.970  0.00  0.00    +0.000 S 
ATOM     15  O   UNL     1       2.895   6.335  20.345  0.00  0.00    +0.000 OA
ATOM     16  O   UNL     1       1.762   5.807  18.168  0.00  0.00    +0.000 OA
BRANCH  14  22
ATOM     17  C   UNL     1      -0.051  10.818  21.061  0.00  0.00    +0.000 A 
ATOM     18  C   UNL     1      -0.366  10.011  22.168  0.00  0.00    +0.000 A 
ATOM     19  C   UNL     1       0.083   8.700  22.268  0.00  0.00    +0.000 A 
ATOM     20  C   UNL     1       0.829   8.141  21.238  0.00  0.00    +0.000 A 
ATOM     21  C   UNL     1       1.116   8.847  20.052  0.00  0.00    +0.000 A 
ATOM     22  C   UNL     1       1.828   8.294  18.942  0.00  0.00    +0.000 A 
ATOM     23  C   UNL     1       2.111   9.069  17.806  0.00  0.00    +0.000 A 
ATOM     24  C   UNL     1       1.763  10.408  17.776  0.00  0.00    +0.000 A 
ATOM     25  C   UNL     1       1.097  10.968  18.860  0.00  0.00    +0.000 A 
ATOM     26  C   UNL     1       0.693  10.219  19.986  0.00  0.00    +0.000 A 
BRANCH  17  28
ATOM     27  C   UNL     1       0.591  13.169  21.415  0.00  0.00    +0.000 C 
ATOM     28  N   UNL     1      -0.427  12.184  21.049  0.00  0.00    +0.000 N 
ATOM     29  C   UNL     1      -1.787  12.496  21.499  0.00  0.00    +0.000 C 
ENDBRANCH  17  28
ENDBRANCH  14  22
ENDBRANCH  12  14
ENDBRANCH   1  12
BRANCH   1  30
ATOM     30  C   UNL     1       4.357   4.246  18.017  0.00  0.00    +0.000 C 
BRANCH  30  31
ATOM     31  C   UNL     1       4.894   3.421  19.196  0.00  0.00    +0.000 C 
BRANCH  31  32
ATOM     32  C   UNL     1       3.935   2.326  19.674  0.00  0.00    +0.000 C 
BRANCH  32  33
ATOM     33  N   UNL     1       2.742   2.977  20.206  0.00  0.00    +0.000 NA
ATOM     34  C   UNL     1       1.611   2.716  19.672  0.00  0.00    +0.000 C 
ATOM     35  N   UNL     1       1.295   1.879  18.661  0.00  0.00    +0.000 N 
ATOM     36  N   UNL     1       0.497   3.339  20.119  0.00  0.00    +0.000 N 
ATOM     37  H   UNL     1       2.027   1.224  18.424  0.00  0.00    +0.000 HD
ATOM     38  H   UNL     1       0.418   1.400  18.821  0.00  0.00    +0.000 HD
ATOM     39  H   UNL     1       0.765   4.118  20.714  0.00  0.00    +0.000 HD
ATOM     40  H   UNL     1      -0.096   3.657  19.363  0.00  0.00    +0.000 HD
ENDBRANCH  32  33
ENDBRANCH  31  32
ENDBRANCH  30  31
ENDBRANCH   1  30
TORSDOF 10
ENDMDL
MODEL 6
REMARK VINA RESULT:      -7.5      3.104      6.131
REMARK  Name = 
REMARK  12 active torsions:
REMARK  status: ('A' for Active; 'I' for Inactive)
REMARK    1  A    between atoms: C_1  and  N_2
REMARK    2  A    between atoms: N_2  and  C_3
REMARK    3  A    between atoms: N_2  and  C_4
REMARK    4  A    between atoms: C_9  and  S_10
REMARK    5  A    between atoms: S_10  and  N_13
REMARK    6  A    between atoms: N_13  and  C_14
REMARK    7  A    between atoms: C_14  and  C_15
REMARK    8  A    between atoms: C_14  and  C_22
REMARK    9  A    between atoms: C_15  and  C_16
REMARK   10  A    between atoms: C_16  and  C_17
REMARK   11  A    between atoms: C_17  and  N_18
REMARK   12  A    between atoms: N_24  and  C_25
REMARK                            x       y       z     vdW  Elec       q    Type
REMARK                         _______ _______ _______ _____ _____    ______ ____
ROOT
ATOM      1  C   UNL     1       1.746   8.929  20.366  0.00  0.00    +0.000 C 
ENDROOT
BRANCH   1   2
ATOM      2  C   UNL     1       2.022   7.639  19.522  0.00  0.00    +0.000 C 
ATOM      3  O   UNL     1       2.209   7.674  18.311  0.00  0.00    +0.000 OA
ATOM      4  N   UNL     1       2.001   6.479  20.262  0.00  0.00    +0.000 N 
ATOM      5  H   UNL     1       1.849   6.602  21.259  0.00  0.00    +0.000 HD
BRANCH   4   6
ATOM      6  C   UNL     1       2.080   5.113  19.776  0.00  0.00    +0.000 C 
ATOM      7  C   UNL     1       1.048   4.140  20.357  0.00  0.00    +0.000 C 
ATOM      8  C   UNL     1       1.028   2.860  19.504  0.00  0.00    +0.000 C 
ATOM      9  C   UNL     1       2.410   2.216  19.362  0.00  0.00    +0.000 C 
ATOM     10  C   UNL     1       3.512   3.214  18.994  0.00  0.00    +0.000 C 
ATOM     11  C   UNL     1       3.470   4.474  19.858  0.00  0.00    +0.000 C 
ENDBRANCH   4   6
ENDBRANCH   1   2
BRANCH   1  12
ATOM     12  N   UNL     1       0.940   9.785  19.463  0.00  0.00    +0.000 NA
ATOM     13  H   UNL     1       0.562   9.332  18.629  0.00  0.00    +0.000 HD
BRANCH  12  14
ATOM     14  S   UNL     1       0.948  11.438  19.362  0.00  0.00    +0.000 S 
ATOM     15  O   UNL     1       1.620  11.785  18.127  0.00  0.00    +0.000 OA
ATOM     16  O   UNL     1       1.483  11.887  20.632  0.00  0.00    +0.000 OA
BRANCH  14  22
ATOM     17  C   UNL     1      -4.196  11.219  17.944  0.00  0.00    +0.000 A 
ATOM     18  C   UNL     1      -3.871  10.172  17.064  0.00  0.00    +0.000 A 
ATOM     19  C   UNL     1      -2.576   9.684  16.956  0.00  0.00    +0.000 A 
ATOM     20  C   UNL     1      -1.552  10.259  17.699  0.00  0.00    +0.000 A 
ATOM     21  C   UNL     1      -1.770  11.370  18.540  0.00  0.00    +0.000 A 
ATOM     22  C   UNL     1      -0.738  12.031  19.277  0.00  0.00    +0.000 A 
ATOM     23  C   UNL     1      -1.034  13.109  20.126  0.00  0.00    +0.000 A 
ATOM     24  C   UNL     1      -2.347  13.504  20.314  0.00  0.00    +0.000 A 
ATOM     25  C   UNL     1      -3.365  12.850  19.628  0.00  0.00    +0.000 A 
ATOM     26  C   UNL     1      -3.124  11.828  18.684  0.00  0.00    +0.000 A 
BRANCH  17  28
ATOM     27  C   UNL     1      -6.492  10.598  18.585  0.00  0.00    +0.000 C 
ATOM     28  N   UNL     1      -5.547  11.611  18.112  0.00  0.00    +0.000 N 
ATOM     29  C   UNL     1      -6.086  12.556  17.130  0.00  0.00    +0.000 C 
ENDBRANCH  17  28
ENDBRANCH  14  22
ENDBRANCH  12  14
ENDBRANCH   1  12
BRANCH   1  30
ATOM     30  C   UNL     1       1.044   8.577  21.679  0.00  0.00    +0.000 C 
BRANCH  30  31
ATOM     31  C   UNL     1      -0.395   9.109  21.775  0.00  0.00    +0.000 C 
BRANCH  31  32
ATOM     32  C   UNL     1      -0.782   9.601  23.172  0.00  0.00    +0.000 C 
BRANCH  32  33
ATOM     33  N   UNL     1      -0.493  11.030  23.238  0.00  0.00    +0.000 NA
ATOM     34  C   UNL     1      -1.466  11.848  23.367  0.00  0.00    +0.000 C 
ATOM     35  N   UNL     1      -2.791  11.618  23.483  0.00  0.00    +0.000 N 
ATOM     36  N   UNL     1      -1.227  13.180  23.388  0.00  0.00    +0.000 N 
ATOM     37  H   UNL     1      -3.025  10.657  23.693  0.00  0.00    +0.000 HD
ATOM     38  H   UNL     1      -3.234  12.251  24.137  0.00  0.00    +0.000 HD
ATOM     39  H   UNL     1      -0.274  13.354  23.080  0.00  0.00    +0.000 HD
ATOM     40  H   UNL     1      -1.885  13.697  22.819  0.00  0.00    +0.000 HD
ENDBRANCH  32  33
ENDBRANCH  31  32
ENDBRANCH  30  31
ENDBRANCH   1  30
TORSDOF 10
ENDMDL
MODEL 7
REMARK VINA RESULT:      -7.4      1.739      2.619
REMARK  Name = 
REMARK  12 active torsions:
REMARK  status: ('A' for Active; 'I' for Inactive)
REMARK    1  A    between atoms: C_1  and  N_2
REMARK    2  A    between atoms: N_2  and  C_3
REMARK    3  A    between atoms: N_2  and  C_4
REMARK    4  A    between atoms: C_9  and  S_10
REMARK    5  A    between atoms: S_10  and  N_13
REMARK    6  A    between atoms: N_13  and  C_14
REMARK    7  A    between atoms: C_14  and  C_15
REMARK    8  A    between atoms: C_14  and  C_22
REMARK    9  A    between atoms: C_15  and  C_16
REMARK   10  A    between atoms: C_16  and  C_17
REMARK   11  A    between atoms: C_17  and  N_18
REMARK   12  A    between atoms: N_24  and  C_25
REMARK                            x       y       z     vdW  Elec       q    Type
REMARK                         _______ _______ _______ _____ _____    ______ ____
ROOT
ATOM      1  C   UNL     1       2.611   6.226  19.984  0.00  0.00    +0.000 C 
ENDROOT
BRANCH   1   2
ATOM      2  C   UNL     1       3.884   5.558  19.365  0.00  0.00    +0.000 C 
ATOM      3  O   UNL     1       4.750   5.029  20.053  0.00  0.00    +0.000 OA
ATOM      4  N   UNL     1       3.948   5.653  17.993  0.00  0.00    +0.000 N 
ATOM      5  H   UNL     1       3.152   6.105  17.551  0.00  0.00    +0.000 HD
BRANCH   4   6
ATOM      6  C   UNL     1       5.045   5.266  17.125  0.00  0.00    +0.000 C 
ATOM      7  C   UNL     1       5.861   6.421  16.532  0.00  0.00    +0.000 C 
ATOM      8  C   UNL     1       7.169   5.862  15.944  0.00  0.00    +0.000 C 
ATOM      9  C   UNL     1       6.934   4.741  14.928  0.00  0.00    +0.000 C 
ATOM     10  C   UNL     1       5.944   3.678  15.410  0.00  0.00    +0.000 C 
ATOM     11  C   UNL     1       4.675   4.290  16.004  0.00  0.00    +0.000 C 
ENDBRANCH   4   6
ENDBRANCH   1   2
BRANCH   1  12
ATOM     12  N   UNL     1       1.920   6.831  18.821  0.00  0.00    +0.000 NA
ATOM     13  H   UNL     1       1.799   6.231  18.004  0.00  0.00    +0.000 HD
BRANCH  12  14
ATOM     14  S   UNL     1       1.732   8.442  18.482  0.00  0.00    +0.000 S 
ATOM     15  O   UNL     1       0.765   8.540  17.408  0.00  0.00    +0.000 OA
ATOM     16  O   UNL     1       3.079   8.944  18.296  0.00  0.00    +0.000 OA
BRANCH  14  22
ATOM     17  C   UNL     1      -1.347  11.975  21.043  0.00  0.00    +0.000 A 
ATOM     18  C   UNL     1      -1.593  12.601  19.808  0.00  0.00    +0.000 A 
ATOM     19  C   UNL     1      -1.053  12.117  18.624  0.00  0.00    +0.000 A 
ATOM     20  C   UNL     1      -0.212  11.011  18.644  0.00  0.00    +0.000 A 
ATOM     21  C   UNL     1       0.160  10.375  19.846  0.00  0.00    +0.000 A 
ATOM     22  C   UNL     1       1.068   9.273  19.921  0.00  0.00    +0.000 A 
ATOM     23  C   UNL     1       1.365   8.664  21.150  0.00  0.00    +0.000 A 
ATOM     24  C   UNL     1       0.724   9.081  22.304  0.00  0.00    +0.000 A 
ATOM     25  C   UNL     1      -0.185  10.132  22.242  0.00  0.00    +0.000 A 
ATOM     26  C   UNL     1      -0.449  10.852  21.056  0.00  0.00    +0.000 A 
BRANCH  17  28
ATOM     27  C   UNL     1      -3.443  12.698  22.115  0.00  0.00    +0.000 C 
ATOM     28  N   UNL     1      -2.008  12.427  22.211  0.00  0.00    +0.000 N 
ATOM     29  C   UNL     1      -1.259  13.337  23.082  0.00  0.00    +0.000 C 
ENDBRANCH  17  28
ENDBRANCH  14  22
ENDBRANCH  12  14
ENDBRANCH   1  12
BRANCH   1  30
ATOM     30  C   UNL     1       1.770   5.193  20.739  0.00  0.00    +0.000 C 
BRANCH  30  31
ATOM     31  C   UNL     1       1.321   4.008  19.871  0.00  0.00    +0.000 C 
BRANCH  31  32
ATOM     32  C   UNL     1       1.913   2.663  20.303  0.00  0.00    +0.000 C 
BRANCH  32  33
ATOM     33  N   UNL     1       2.401   1.984  19.107  0.00  0.00    +0.000 NA
ATOM     34  C   UNL     1       3.659   1.808  18.972  0.00  0.00    +0.000 C 
ATOM     35  N   UNL     1       4.680   2.133  19.793  0.00  0.00    +0.000 N 
ATOM     36  N   UNL     1       4.139   1.220  17.852  0.00  0.00    +0.000 N 
ATOM     37  H   UNL     1       4.393   2.373  20.732  0.00  0.00    +0.000 HD
ATOM     38  H   UNL     1       5.402   1.424  19.805  0.00  0.00    +0.000 HD
ATOM     39  H   UNL     1       3.403   1.182  17.151  0.00  0.00    +0.000 HD
ATOM     40  H   UNL     1       4.954   1.695  17.487  0.00  0.00    +0.000 HD
ENDBRANCH  32  33
ENDBRANCH  31  32
ENDBRANCH  30  31
ENDBRANCH   1  30
TORSDOF 10
ENDMDL
MODEL 8
REMARK VINA RESULT:      -7.4      3.092      9.083
REMARK  Name = 
REMARK  12 active torsions:
REMARK  status: ('A' for Active; 'I' for Inactive)
REMARK    1  A    between atoms: C_1  and  N_2
REMARK    2  A    between atoms: N_2  and  C_3
REMARK    3  A    between atoms: N_2  and  C_4
REMARK    4  A    between atoms: C_9  and  S_10
REMARK    5  A    between atoms: S_10  and  N_13
REMARK    6  A    between atoms: N_13  and  C_14
REMARK    7  A    between atoms: C_14  and  C_15
REMARK    8  A    between atoms: C_14  and  C_22
REMARK    9  A    between atoms: C_15  and  C_16
REMARK   10  A    between atoms: C_16  and  C_17
REMARK   11  A    between atoms: C_17  and  N_18
REMARK   12  A    between atoms: N_24  and  C_25
REMARK                            x       y       z     vdW  Elec       q    Type
REMARK                         _______ _______ _______ _____ _____    ______ ____
ROOT
ATOM      1  C   UNL     1      -0.754  11.645  21.476  0.00  0.00    +0.000 C 
ENDROOT
BRANCH   1   2
ATOM      2  C   UNL     1      -1.768  11.958  20.324  0.00  0.00    +0.000 C 
ATOM      3  O   UNL     1      -2.731  12.701  20.481  0.00  0.00    +0.000 OA
ATOM      4  N   UNL     1      -1.491  11.299  19.149  0.00  0.00    +0.000 N 
ATOM      5  H   UNL     1      -0.652  10.727  19.158  0.00  0.00    +0.000 HD
BRANCH   4   6
ATOM      6  C   UNL     1      -2.297  11.257  17.942  0.00  0.00    +0.000 C 
ATOM      7  C   UNL     1      -3.815  11.297  18.155  0.00  0.00    +0.000 C 
ATOM      8  C   UNL     1      -4.503  11.602  16.813  0.00  0.00    +0.000 C 
ATOM      9  C   UNL     1      -4.103  10.626  15.703  0.00  0.00    +0.000 C 
ATOM     10  C   UNL     1      -2.593  10.395  15.610  0.00  0.00    +0.000 C 
ATOM     11  C   UNL     1      -1.960  10.119  16.973  0.00  0.00    +0.000 C 
ENDBRANCH   4   6
ENDBRANCH   1   2
BRANCH   1  12
ATOM     12  N   UNL     1       0.245  10.751  20.844  0.00  0.00    +0.000 NA
ATOM     13  H   UNL     1       0.481  10.954  19.871  0.00  0.00    +0.000 HD
BRANCH  12  14
ATOM     14  S   UNL     1       0.680   9.225  21.318  0.00  0.00    +0.000 S 
ATOM     15  O   UNL     1      -0.545   8.483  21.535  0.00  0.00    +0.000 OA
ATOM     16  O   UNL     1       1.612   9.425  22.410  0.00  0.00    +0.000 OA
BRANCH  14  22
ATOM     17  C   UNL     1       2.907   5.098  18.762  0.00  0.00    +0.000 A 
ATOM     18  C   UNL     1       2.721   4.326  19.923  0.00  0.00    +0.000 A 
ATOM     19  C   UNL     1       2.115   4.848  21.058  0.00  0.00    +0.000 A 
ATOM     20  C   UNL     1       1.711   6.178  21.082  0.00  0.00    +0.000 A 
ATOM     21  C   UNL     1       1.939   7.049  19.996  0.00  0.00    +0.000 A 
ATOM     22  C   UNL     1       1.595   8.437  19.998  0.00  0.00    +0.000 A 
ATOM     23  C   UNL     1       1.817   9.237  18.866  0.00  0.00    +0.000 A 
ATOM     24  C   UNL     1       2.310   8.672  17.703  0.00  0.00    +0.000 A 
ATOM     25  C   UNL     1       2.620   7.317  17.676  0.00  0.00    +0.000 A 
ATOM     26  C   UNL     1       2.516   6.482  18.810  0.00  0.00    +0.000 A 
BRANCH  17  28
ATOM     27  C   UNL     1       2.722   3.326  17.062  0.00  0.00    +0.000 C 
ATOM     28  N   UNL     1       3.422   4.499  17.587  0.00  0.00    +0.000 N 
ATOM     29  C   UNL     1       4.881   4.467  17.449  0.00  0.00    +0.000 C 
ENDBRANCH  17  28
ENDBRANCH  14  22
ENDBRANCH  12  14
ENDBRANCH   1  12
BRANCH   1  30
ATOM     30  C   UNL     1      -0.161  12.938  22.041  0.00  0.00    +0.000 C 
BRANCH  30  31
ATOM     31  C   UNL     1       0.487  13.839  20.979  0.00  0.00    +0.000 C 
BRANCH  31  32
ATOM     32  C   UNL     1       2.018  13.826  21.006  0.00  0.00    +0.000 C 
BRANCH  32  33
ATOM     33  N   UNL     1       2.483  13.247  19.750  0.00  0.00    +0.000 NA
ATOM     34  C   UNL     1       3.024  14.014  18.883  0.00  0.00    +0.000 C 
ATOM     35  N   UNL     1       3.281  15.338  18.928  0.00  0.00    +0.000 N 
ATOM     36  N   UNL     1       3.424  13.509  17.693  0.00  0.00    +0.000 N 
ATOM     37  H   UNL     1       3.213  15.740  19.853  0.00  0.00    +0.000 HD
ATOM     38  H   UNL     1       4.166  15.572  18.496  0.00  0.00    +0.000 HD
ATOM     39  H   UNL     1       3.032  12.578  17.576  0.00  0.00    +0.000 HD
ATOM     40  H   UNL     1       3.166  14.103  16.917  0.00  0.00    +0.000 HD
ENDBRANCH  32  33
ENDBRANCH  31  32
ENDBRANCH  30  31
ENDBRANCH   1  30
TORSDOF 10
ENDMDL
MODEL 9
REMARK VINA RESULT:      -7.3      1.629      2.615
REMARK  Name = 
REMARK  12 active torsions:
REMARK  status: ('A' for Active; 'I' for Inactive)
REMARK    1  A    between atoms: C_1  and  N_2
REMARK    2  A    between atoms: N_2  and  C_3
REMARK    3  A    between atoms: N_2  and  C_4
REMARK    4  A    between atoms: C_9  and  S_10
REMARK    5  A    between atoms: S_10  and  N_13
REMARK    6  A    between atoms: N_13  and  C_14
REMARK    7  A    between atoms: C_14  and  C_15
REMARK    8  A    between atoms: C_14  and  C_22
REMARK    9  A    between atoms: C_15  and  C_16
REMARK   10  A    between atoms: C_16  and  C_17
REMARK   11  A    between atoms: C_17  and  N_18
REMARK   12  A    between atoms: N_24  and  C_25
REMARK                            x       y       z     vdW  Elec       q    Type
REMARK                         _______ _______ _______ _____ _____    ______ ____
ROOT
ATOM      1  C   UNL     1       2.566   6.396  19.835  0.00  0.00    +0.000 C 
ENDROOT
BRANCH   1   2
ATOM      2  C   UNL     1       3.780   5.773  19.067  0.00  0.00    +0.000 C 
ATOM      3  O   UNL     1       4.708   5.218  19.646  0.00  0.00    +0.000 OA
ATOM      4  N   UNL     1       3.717   5.938  17.703  0.00  0.00    +0.000 N 
ATOM      5  H   UNL     1       2.881   6.404  17.360  0.00  0.00    +0.000 HD
BRANCH   4   6
ATOM      6  C   UNL     1       4.732   5.607  16.719  0.00  0.00    +0.000 C 
ATOM      7  C   UNL     1       4.803   4.131  16.308  0.00  0.00    +0.000 C 
ATOM      8  C   UNL     1       5.656   4.005  15.034  0.00  0.00    +0.000 C 
ATOM      9  C   UNL     1       7.047   4.628  15.184  0.00  0.00    +0.000 C 
ATOM     10  C   UNL     1       7.024   6.028  15.803  0.00  0.00    +0.000 C 
ATOM     11  C   UNL     1       6.144   6.100  17.051  0.00  0.00    +0.000 C 
ENDBRANCH   4   6
ENDBRANCH   1   2
BRANCH   1  12
ATOM     12  N   UNL     1       1.765   7.049  18.772  0.00  0.00    +0.000 NA
ATOM     13  H   UNL     1       1.502   6.463  17.979  0.00  0.00    +0.000 HD
BRANCH  12  14
ATOM     14  S   UNL     1       1.631   8.671  18.458  0.00  0.00    +0.000 S 
ATOM     15  O   UNL     1       0.691   8.815  17.367  0.00  0.00    +0.000 OA
ATOM     16  O   UNL     1       2.996   9.136  18.310  0.00  0.00    +0.000 OA
BRANCH  14  22
ATOM     17  C   UNL     1      -0.612  12.729  21.108  0.00  0.00    +0.000 A 
ATOM     18  C   UNL     1      -0.338  13.554  20.003  0.00  0.00    +0.000 A 
ATOM     19  C   UNL     1       0.275  13.061  18.858  0.00  0.00    +0.000 A 
ATOM     20  C   UNL     1       0.671  11.731  18.798  0.00  0.00    +0.000 A 
ATOM     21  C   UNL     1       0.516  10.854  19.892  0.00  0.00    +0.000 A 
ATOM     22  C   UNL     1       0.962   9.495  19.897  0.00  0.00    +0.000 A 
ATOM     23  C   UNL     1       0.740   8.667  21.009  0.00  0.00    +0.000 A 
ATOM     24  C   UNL     1       0.021   9.140  22.094  0.00  0.00    +0.000 A 
ATOM     25  C   UNL     1      -0.446  10.450  22.089  0.00  0.00    +0.000 A 
ATOM     26  C   UNL     1      -0.168  11.362  21.048  0.00  0.00    +0.000 A 
BRANCH  17  28
ATOM     27  C   UNL     1      -2.796  13.330  22.074  0.00  0.00    +0.000 C 
ATOM     28  N   UNL     1      -1.342  13.238  22.209  0.00  0.00    +0.000 N 
ATOM     29  C   UNL     1      -0.716  14.326  22.967  0.00  0.00    +0.000 C 
ENDBRANCH  17  28
ENDBRANCH  14  22
ENDBRANCH  12  14
ENDBRANCH   1  12
BRANCH   1  30
ATOM     30  C   UNL     1       1.806   5.319  20.612  0.00  0.00    +0.000 C 
BRANCH  30  31
ATOM     31  C   UNL     1       1.213   4.215  19.722  0.00  0.00    +0.000 C 
BRANCH  31  32
ATOM     32  C   UNL     1       1.468   2.797  20.240  0.00  0.00    +0.000 C 
BRANCH  32  33
ATOM     33  N   UNL     1       2.906   2.646  20.440  0.00  0.00    +0.000 NA
ATOM     34  C   UNL     1       3.594   2.061  19.536  0.00  0.00    +0.000 C 
ATOM     35  N   UNL     1       3.215   1.546  18.347  0.00  0.00    +0.000 N 
ATOM     36  N   UNL     1       4.921   1.871  19.717  0.00  0.00    +0.000 N 
ATOM     37  H   UNL     1       2.295   1.838  18.045  0.00  0.00    +0.000 HD
ATOM     38  H   UNL     1       3.902   1.709  17.623  0.00  0.00    +0.000 HD
ATOM     39  H   UNL     1       5.155   2.053  20.690  0.00  0.00    +0.000 HD
ATOM     40  H   UNL     1       5.217   0.942  19.448  0.00  0.00    +0.000 HD
ENDBRANCH  32  33
ENDBRANCH  31  32
ENDBRANCH  30  31
ENDBRANCH   1  30
TORSDOF 10
ENDMDL
