MODEL 1
REMARK VINA RESULT:      -5.7      0.000      0.000
REMARK  Name = 
REMARK  13 active torsions:
REMARK  status: ('A' for Active; 'I' for Inactive)
REMARK    1  A    between atoms: C_1  and  C_2
REMARK    2  A    between atoms: C_2  and  C_3
REMARK    3  A    between atoms: C_3  and  C_4
REMARK    4  A    between atoms: C_4  and  C_5
REMARK    5  A    between atoms: C_5  and  O_6
REMARK    6  A    between atoms: C_5  and  P_7
REMARK    7  A    between atoms: P_7  and  O_9
REMARK    8  A    between atoms: P_7  and  C_10
REMARK    9  A    between atoms: C_10  and  N_11
REMARK   10  A    between atoms: C_10  and  C_12
REMARK   11  A    between atoms: C_12  and  C_13
REMARK   12  A    between atoms: C_13  and  C_14
REMARK   13  A    between atoms: C_13  and  C_15
REMARK                            x       y       z     vdW  Elec       q    Type
REMARK                         _______ _______ _______ _____ _____    ______ ____
ROOT
ATOM      1  P   UNL     1       6.248   4.590  17.079  0.00  0.00    +0.000 P 
ATOM      2  O   UNL     1       5.498   5.847  16.592  0.00  0.00    +0.000 OA
ENDROOT
BRANCH   1   3
ATOM      3  O   UNL     1       5.274   3.273  16.764  0.00  0.00    +0.000 OA
ATOM      4  H   UNL     1       5.568   2.760  15.975  0.00  0.00    +0.000 HD
ENDBRANCH   1   3
BRANCH   1   5
ATOM      5  C   UNL     1       6.976   4.431  15.407  0.00  0.00    +0.000 C 
BRANCH   5   6
ATOM      6  O   UNL     1       7.487   5.735  15.048  0.00  0.00    +0.000 OA
ATOM      7  H   UNL     1       7.795   5.693  14.125  0.00  0.00    +0.000 HD
ENDBRANCH   5   6
BRANCH   5   8
ATOM      8  C   UNL     1       5.934   3.963  14.392  0.00  0.00    +0.000 C 
BRANCH   8   9
ATOM      9  C   UNL     1       6.453   4.021  12.955  0.00  0.00    +0.000 C 
BRANCH   9  11
ATOM     10  C   UNL     1       4.458   3.366  11.578  0.00  0.00    +0.000 C 
ATOM     11  C   UNL     1       5.819   2.933  12.097  0.00  0.00    +0.000 C 
ENDBRANCH   9  11
ENDBRANCH   8   9
ENDBRANCH   5   8
ENDBRANCH   1   5
BRANCH   1  12
ATOM     12  C   UNL     1       5.520   4.749  18.750  0.00  0.00    +0.000 C 
BRANCH  12  13
ATOM     13  N   UNL     1       6.574   5.308  19.639  0.00  0.00    +0.000 NA
ATOM     14  H   UNL     1       6.074   5.654  20.467  0.00  0.00    +0.000 HD
ATOM     15  H   UNL     1       6.843   6.194  19.182  0.00  0.00    +0.000 HD
ENDBRANCH  12  13
BRANCH  12  16
ATOM     16  C   UNL     1       4.285   5.658  18.817  0.00  0.00    +0.000 C 
BRANCH  16  17
ATOM     17  C   UNL     1       2.961   4.933  19.129  0.00  0.00    +0.000 C 
ATOM     18  C   UNL     1       2.080   4.755  17.894  0.00  0.00    +0.000 C 
ATOM     19  C   UNL     1       3.267   3.563  19.742  0.00  0.00    +0.000 C 
ENDBRANCH  16  17
ENDBRANCH  12  16
ENDBRANCH   1  12
TORSDOF 10
ENDMDL
MODEL 2
REMARK VINA RESULT:      -5.7      1.924      5.647
REMARK  Name = 
REMARK  13 active torsions:
REMARK  status: ('A' for Active; 'I' for Inactive)
REMARK    1  A    between atoms: C_1  and  C_2
REMARK    2  A    between atoms: C_2  and  C_3
REMARK    3  A    between atoms: C_3  and  C_4
REMARK    4  A    between atoms: C_4  and  C_5
REMARK    5  A    between atoms: C_5  and  O_6
REMARK    6  A    between atoms: C_5  and  P_7
REMARK    7  A    between atoms: P_7  and  O_9
REMARK    8  A    between atoms: P_7  and  C_10
REMARK    9  A    between atoms: C_10  and  N_11
REMARK   10  A    between atoms: C_10  and  C_12
REMARK   11  A    between atoms: C_12  and  C_13
REMARK   12  A    between atoms: C_13  and  C_14
REMARK   13  A    between atoms: C_13  and  C_15
REMARK                            x       y       z     vdW  Elec       q    Type
REMARK                         _______ _______ _______ _____ _____    ______ ____
ROOT
ATOM      1  P   UNL     1       6.220   4.924  16.183  0.00  0.00    +0.000 P 
ATOM      2  O   UNL     1       6.143   6.464  16.218  0.00  0.00    +0.000 OA
ENDROOT
BRANCH   1   3
ATOM      3  O   UNL     1       7.829   4.500  16.307  0.00  0.00    +0.000 OA
ATOM      4  H   UNL     1       8.103   4.310  17.235  0.00  0.00    +0.000 HD
ENDBRANCH   1   3
BRANCH   1   5
ATOM      5  C   UNL     1       6.094   4.920  18.008  0.00  0.00    +0.000 C 
BRANCH   5   6
ATOM      6  O   UNL     1       7.272   4.248  18.507  0.00  0.00    +0.000 OA
ATOM      7  H   UNL     1       7.006   3.361  18.811  0.00  0.00    +0.000 HD
ENDBRANCH   5   6
BRANCH   5   8
ATOM      8  C   UNL     1       4.827   4.203  18.473  0.00  0.00    +0.000 C 
BRANCH   8   9
ATOM      9  C   UNL     1       3.816   5.158  19.109  0.00  0.00    +0.000 C 
BRANCH   9  11
ATOM     10  C   UNL     1       1.799   4.428  17.803  0.00  0.00    +0.000 C 
ATOM     11  C   UNL     1       2.748   5.576  18.104  0.00  0.00    +0.000 C 
ENDBRANCH   9  11
ENDBRANCH   8   9
ENDBRANCH   5   8
ENDBRANCH   1   5
BRANCH   1  12
ATOM     12  C   UNL     1       6.347   4.928  14.357  0.00  0.00    +0.000 C 
BRANCH  12  13
ATOM     13  N   UNL     1       7.726   5.365  14.011  0.00  0.00    +0.000 NA
ATOM     14  H   UNL     1       8.345   4.822  14.627  0.00  0.00    +0.000 HD
ATOM     15  H   UNL     1       7.804   6.306  14.429  0.00  0.00    +0.000 HD
ENDBRANCH  12  13
BRANCH  12  16
ATOM     16  C   UNL     1       6.083   3.564  13.703  0.00  0.00    +0.000 C 
BRANCH  16  17
ATOM     17  C   UNL     1       6.035   3.580  12.163  0.00  0.00    +0.000 C 
ATOM     18  C   UNL     1       7.020   2.598  11.531  0.00  0.00    +0.000 C 
ATOM     19  C   UNL     1       4.613   3.251  11.698  0.00  0.00    +0.000 C 
ENDBRANCH  16  17
ENDBRANCH  12  16
ENDBRANCH   1  12
TORSDOF 10
ENDMDL
MODEL 3
REMARK VINA RESULT:      -5.7      0.531      1.067
REMARK  Name = 
REMARK  13 active torsions:
REMARK  status: ('A' for Active; 'I' for Inactive)
REMARK    1  A    between atoms: C_1  and  C_2
REMARK    2  A    between atoms: C_2  and  C_3
REMARK    3  A    between atoms: C_3  and  C_4
REMARK    4  A    between atoms: C_4  and  C_5
REMARK    5  A    between atoms: C_5  and  O_6
REMARK    6  A    between atoms: C_5  and  P_7
REMARK    7  A    between atoms: P_7  and  O_9
REMARK    8  A    between atoms: P_7  and  C_10
REMARK    9  A    between atoms: C_10  and  N_11
REMARK   10  A    between atoms: C_10  and  C_12
REMARK   11  A    between atoms: C_12  and  C_13
REMARK   12  A    between atoms: C_13  and  C_14
REMARK   13  A    between atoms: C_13  and  C_15
REMARK                            x       y       z     vdW  Elec       q    Type
REMARK                         _______ _______ _______ _____ _____    ______ ____
ROOT
ATOM      1  P   UNL     1       6.202   4.589  17.111  0.00  0.00    +0.000 P 
ATOM      2  O   UNL     1       5.438   5.853  16.667  0.00  0.00    +0.000 OA
ENDROOT
BRANCH   1   3
ATOM      3  O   UNL     1       5.224   3.276  16.794  0.00  0.00    +0.000 OA
ATOM      4  H   UNL     1       4.312   3.383  17.152  0.00  0.00    +0.000 HD
ENDBRANCH   1   3
BRANCH   1   5
ATOM      5  C   UNL     1       6.891   4.465  15.420  0.00  0.00    +0.000 C 
BRANCH   5   6
ATOM      6  O   UNL     1       7.484   5.747  15.115  0.00  0.00    +0.000 OA
ATOM      7  H   UNL     1       8.167   5.609  14.433  0.00  0.00    +0.000 HD
ENDBRANCH   5   6
BRANCH   5   8
ATOM      8  C   UNL     1       5.804   4.119  14.404  0.00  0.00    +0.000 C 
BRANCH   8   9
ATOM      9  C   UNL     1       6.377   3.808  13.020  0.00  0.00    +0.000 C 
BRANCH   9  11
ATOM     10  C   UNL     1       5.718   1.953  11.462  0.00  0.00    +0.000 C 
ATOM     11  C   UNL     1       5.298   3.273  12.086  0.00  0.00    +0.000 C 
ENDBRANCH   9  11
ENDBRANCH   8   9
ENDBRANCH   5   8
ENDBRANCH   1   5
BRANCH   1  12
ATOM     12  C   UNL     1       5.513   4.713  18.802  0.00  0.00    +0.000 C 
BRANCH  12  13
ATOM     13  N   UNL     1       6.571   5.300  19.667  0.00  0.00    +0.000 NA
ATOM     14  H   UNL     1       7.459   4.946  19.288  0.00  0.00    +0.000 HD
ATOM     15  H   UNL     1       6.502   4.765  20.548  0.00  0.00    +0.000 HD
ENDBRANCH  12  13
BRANCH  12  16
ATOM     16  C   UNL     1       4.252   5.583  18.907  0.00  0.00    +0.000 C 
BRANCH  16  17
ATOM     17  C   UNL     1       2.945   4.803  19.148  0.00  0.00    +0.000 C 
ATOM     18  C   UNL     1       2.155   5.329  20.346  0.00  0.00    +0.000 C 
ATOM     19  C   UNL     1       2.073   4.875  17.889  0.00  0.00    +0.000 C 
ENDBRANCH  16  17
ENDBRANCH  12  16
ENDBRANCH   1  12
TORSDOF 10
ENDMDL
MODEL 4
REMARK VINA RESULT:      -5.7      2.362      5.875
REMARK  Name = 
REMARK  13 active torsions:
REMARK  status: ('A' for Active; 'I' for Inactive)
REMARK    1  A    between atoms: C_1  and  C_2
REMARK    2  A    between atoms: C_2  and  C_3
REMARK    3  A    between atoms: C_3  and  C_4
REMARK    4  A    between atoms: C_4  and  C_5
REMARK    5  A    between atoms: C_5  and  O_6
REMARK    6  A    between atoms: C_5  and  P_7
REMARK    7  A    between atoms: P_7  and  O_9
REMARK    8  A    between atoms: P_7  and  C_10
REMARK    9  A    between atoms: C_10  and  N_11
REMARK   10  A    between atoms: C_10  and  C_12
REMARK   11  A    between atoms: C_12  and  C_13
REMARK   12  A    between atoms: C_13  and  C_14
REMARK   13  A    between atoms: C_13  and  C_15
REMARK                            x       y       z     vdW  Elec       q    Type
REMARK                         _______ _______ _______ _____ _____    ______ ____
ROOT
ATOM      1  P   UNL     1       4.024   3.589  17.525  0.00  0.00    +0.000 P 
ATOM      2  O   UNL     1       3.298   4.874  17.974  0.00  0.00    +0.000 OA
ENDROOT
BRANCH   1   3
ATOM      3  O   UNL     1       4.515   2.785  18.901  0.00  0.00    +0.000 OA
ATOM      4  H   UNL     1       3.908   2.048  19.150  0.00  0.00    +0.000 HD
ENDBRANCH   1   3
BRANCH   1   5
ATOM      5  C   UNL     1       2.420   2.710  17.602  0.00  0.00    +0.000 C 
BRANCH   5   6
ATOM      6  O   UNL     1       1.395   3.686  17.309  0.00  0.00    +0.000 OA
ATOM      7  H   UNL     1       1.314   3.757  16.341  0.00  0.00    +0.000 HD
ENDBRANCH   5   6
BRANCH   5   8
ATOM      8  C   UNL     1       2.196   2.089  18.979  0.00  0.00    +0.000 C 
BRANCH   8   9
ATOM      9  C   UNL     1       1.008   2.714  19.714  0.00  0.00    +0.000 C 
BRANCH   9  11
ATOM     10  C   UNL     1       2.204   4.282  21.269  0.00  0.00    +0.000 C 
ATOM     11  C   UNL     1       1.360   3.022  21.165  0.00  0.00    +0.000 C 
ENDBRANCH   9  11
ENDBRANCH   8   9
ENDBRANCH   5   8
ENDBRANCH   1   5
BRANCH   1  12
ATOM     12  C   UNL     1       5.627   4.468  17.448  0.00  0.00    +0.000 C 
BRANCH  12  13
ATOM     13  N   UNL     1       6.371   4.137  18.692  0.00  0.00    +0.000 NA
ATOM     14  H   UNL     1       5.801   4.516  19.459  0.00  0.00    +0.000 HD
ATOM     15  H   UNL     1       7.168   4.795  18.691  0.00  0.00    +0.000 HD
ENDBRANCH  12  13
BRANCH  12  16
ATOM     16  C   UNL     1       6.495   4.092  16.239  0.00  0.00    +0.000 C 
BRANCH  16  17
ATOM     17  C   UNL     1       6.265   4.953  14.982  0.00  0.00    +0.000 C 
ATOM     18  C   UNL     1       5.628   4.168  13.836  0.00  0.00    +0.000 C 
ATOM     19  C   UNL     1       5.376   6.147  15.342  0.00  0.00    +0.000 C 
ENDBRANCH  16  17
ENDBRANCH  12  16
ENDBRANCH   1  12
TORSDOF 10
ENDMDL
MODEL 5
REMARK VINA RESULT:      -5.7      1.469      1.836
REMARK  Name = 
REMARK  13 active torsions:
REMARK  status: ('A' for Active; 'I' for Inactive)
REMARK    1  A    between atoms: C_1  and  C_2
REMARK    2  A    between atoms: C_2  and  C_3
REMARK    3  A    between atoms: C_3  and  C_4
REMARK    4  A    between atoms: C_4  and  C_5
REMARK    5  A    between atoms: C_5  and  O_6
REMARK    6  A    between atoms: C_5  and  P_7
REMARK    7  A    between atoms: P_7  and  O_9
REMARK    8  A    between atoms: P_7  and  C_10
REMARK    9  A    between atoms: C_10  and  N_11
REMARK   10  A    between atoms: C_10  and  C_12
REMARK   11  A    between atoms: C_12  and  C_13
REMARK   12  A    between atoms: C_13  and  C_14
REMARK   13  A    between atoms: C_13  and  C_15
REMARK                            x       y       z     vdW  Elec       q    Type
REMARK                         _______ _______ _______ _____ _____    ______ ____
ROOT
ATOM      1  P   UNL     1       5.057   4.605  17.480  0.00  0.00    +0.000 P 
ATOM      2  O   UNL     1       4.415   3.447  16.690  0.00  0.00    +0.000 OA
ENDROOT
BRANCH   1   3
ATOM      3  O   UNL     1       6.182   3.941  18.517  0.00  0.00    +0.000 OA
ATOM      4  H   UNL     1       5.772   3.539  19.319  0.00  0.00    +0.000 HD
ENDBRANCH   1   3
BRANCH   1   5
ATOM      5  C   UNL     1       6.343   4.719  16.183  0.00  0.00    +0.000 C 
BRANCH   5   6
ATOM      6  O   UNL     1       6.401   6.103  15.771  0.00  0.00    +0.000 OA
ATOM      7  H   UNL     1       5.570   6.533  16.042  0.00  0.00    +0.000 HD
ENDBRANCH   5   6
BRANCH   5   8
ATOM      8  C   UNL     1       6.011   3.818  14.995  0.00  0.00    +0.000 C 
BRANCH   8   9
ATOM      9  C   UNL     1       6.519   4.389  13.670  0.00  0.00    +0.000 C 
BRANCH   9  11
ATOM     10  C   UNL     1       4.855   3.478  12.025  0.00  0.00    +0.000 C 
ATOM     11  C   UNL     1       6.288   3.410  12.525  0.00  0.00    +0.000 C 
ENDBRANCH   9  11
ENDBRANCH   8   9
ENDBRANCH   5   8
ENDBRANCH   1   5
BRANCH   1  12
ATOM     12  C   UNL     1       3.772   4.492  18.777  0.00  0.00    +0.000 C 
BRANCH  12  13
ATOM     13  N   UNL     1       4.038   5.578  19.758  0.00  0.00    +0.000 NA
ATOM     14  H   UNL     1       3.122   5.808  20.164  0.00  0.00    +0.000 HD
ATOM     15  H   UNL     1       4.213   6.410  19.172  0.00  0.00    +0.000 HD
ENDBRANCH  12  13
BRANCH  12  16
ATOM     16  C   UNL     1       2.335   4.640  18.256  0.00  0.00    +0.000 C 
BRANCH  16  17
ATOM     17  C   UNL     1       1.349   3.566  18.754  0.00  0.00    +0.000 C 
ATOM     18  C   UNL     1       1.945   2.159  18.727  0.00  0.00    +0.000 C 
ATOM     19  C   UNL     1       0.908   3.907  20.182  0.00  0.00    +0.000 C 
ENDBRANCH  16  17
ENDBRANCH  12  16
ENDBRANCH   1  12
TORSDOF 10
ENDMDL
MODEL 6
REMARK VINA RESULT:      -5.7      1.404      1.790
REMARK  Name = 
REMARK  13 active torsions:
REMARK  status: ('A' for Active; 'I' for Inactive)
REMARK    1  A    between atoms: C_1  and  C_2
REMARK    2  A    between atoms: C_2  and  C_3
REMARK    3  A    between atoms: C_3  and  C_4
REMARK    4  A    between atoms: C_4  and  C_5
REMARK    5  A    between atoms: C_5  and  O_6
REMARK    6  A    between atoms: C_5  and  P_7
REMARK    7  A    between atoms: P_7  and  O_9
REMARK    8  A    between atoms: P_7  and  C_10
REMARK    9  A    between atoms: C_10  and  N_11
REMARK   10  A    between atoms: C_10  and  C_12
REMARK   11  A    between atoms: C_12  and  C_13
REMARK   12  A    between atoms: C_13  and  C_14
REMARK   13  A    between atoms: C_13  and  C_15
REMARK                            x       y       z     vdW  Elec       q    Type
REMARK                         _______ _______ _______ _____ _____    ______ ____
ROOT
ATOM      1  P   UNL     1       5.965   4.889  16.281  0.00  0.00    +0.000 P 
ATOM      2  O   UNL     1       7.196   4.392  17.067  0.00  0.00    +0.000 OA
ENDROOT
BRANCH   1   3
ATOM      3  O   UNL     1       6.252   6.476  15.854  0.00  0.00    +0.000 OA
ATOM      4  H   UNL     1       6.478   6.580  14.900  0.00  0.00    +0.000 HD
ENDBRANCH   1   3
BRANCH   1   5
ATOM      5  C   UNL     1       6.783   4.342  14.739  0.00  0.00    +0.000 C 
BRANCH   5   6
ATOM      6  O   UNL     1       7.646   5.422  14.317  0.00  0.00    +0.000 OA
ATOM      7  H   UNL     1       8.062   5.165  13.474  0.00  0.00    +0.000 HD
ENDBRANCH   5   6
BRANCH   5   8
ATOM      8  C   UNL     1       5.758   4.019  13.654  0.00  0.00    +0.000 C 
BRANCH   8   9
ATOM      9  C   UNL     1       6.409   3.483  12.377  0.00  0.00    +0.000 C 
BRANCH   9  11
ATOM     10  C   UNL     1       4.164   3.207  11.286  0.00  0.00    +0.000 C 
ATOM     11  C   UNL     1       5.475   2.527  11.644  0.00  0.00    +0.000 C 
ENDBRANCH   9  11
ENDBRANCH   8   9
ENDBRANCH   5   8
ENDBRANCH   1   5
BRANCH   1  12
ATOM     12  C   UNL     1       5.147   5.436  17.824  0.00  0.00    +0.000 C 
BRANCH  12  13
ATOM     13  N   UNL     1       6.205   5.566  18.862  0.00  0.00    +0.000 NA
ATOM     14  H   UNL     1       7.010   5.983  18.379  0.00  0.00    +0.000 HD
ATOM     15  H   UNL     1       6.536   4.598  19.005  0.00  0.00    +0.000 HD
ENDBRANCH  12  13
BRANCH  12  16
ATOM     16  C   UNL     1       4.406   6.776  17.705  0.00  0.00    +0.000 C 
BRANCH  16  17
ATOM     17  C   UNL     1       3.034   6.824  18.403  0.00  0.00    +0.000 C 
ATOM     18  C   UNL     1       2.185   8.013  17.957  0.00  0.00    +0.000 C 
ATOM     19  C   UNL     1       2.278   5.521  18.122  0.00  0.00    +0.000 C 
ENDBRANCH  16  17
ENDBRANCH  12  16
ENDBRANCH   1  12
TORSDOF 10
ENDMDL
MODEL 7
REMARK VINA RESULT:      -5.7      2.052      5.553
REMARK  Name = 
REMARK  13 active torsions:
REMARK  status: ('A' for Active; 'I' for Inactive)
REMARK    1  A    between atoms: C_1  and  C_2
REMARK    2  A    between atoms: C_2  and  C_3
REMARK    3  A    between atoms: C_3  and  C_4
REMARK    4  A    between atoms: C_4  and  C_5
REMARK    5  A    between atoms: C_5  and  O_6
REMARK    6  A    between atoms: C_5  and  P_7
REMARK    7  A    between atoms: P_7  and  O_9
REMARK    8  A    between atoms: P_7  and  C_10
REMARK    9  A    between atoms: C_10  and  N_11
REMARK   10  A    between atoms: C_10  and  C_12
REMARK   11  A    between atoms: C_12  and  C_13
REMARK   12  A    between atoms: C_13  and  C_14
REMARK   13  A    between atoms: C_13  and  C_15
REMARK                            x       y       z     vdW  Elec       q    Type
REMARK                         _______ _______ _______ _____ _____    ______ ____
ROOT
ATOM      1  P   UNL     1       6.147   4.963  16.108  0.00  0.00    +0.000 P 
ATOM      2  O   UNL     1       6.124   6.505  16.105  0.00  0.00    +0.000 OA
ENDROOT
BRANCH   1   3
ATOM      3  O   UNL     1       7.731   4.486  16.322  0.00  0.00    +0.000 OA
ATOM      4  H   UNL     1       7.830   3.792  17.016  0.00  0.00    +0.000 HD
ENDBRANCH   1   3
BRANCH   1   5
ATOM      5  C   UNL     1       5.930   5.007  17.924  0.00  0.00    +0.000 C 
BRANCH   5   6
ATOM      6  O   UNL     1       6.938   4.137  18.487  0.00  0.00    +0.000 OA
ATOM      7  H   UNL     1       6.524   3.272  18.664  0.00  0.00    +0.000 HD
ENDBRANCH   5   6
BRANCH   5   8
ATOM      8  C   UNL     1       4.532   4.541  18.326  0.00  0.00    +0.000 C 
BRANCH   8   9
ATOM      9  C   UNL     1       3.895   3.634  17.273  0.00  0.00    +0.000 C 
BRANCH   9  11
ATOM     10  C   UNL     1       3.098   2.404  19.312  0.00  0.00    +0.000 C 
ATOM     11  C   UNL     1       3.537   2.275  17.863  0.00  0.00    +0.000 C 
ENDBRANCH   9  11
ENDBRANCH   8   9
ENDBRANCH   5   8
ENDBRANCH   1   5
BRANCH   1  12
ATOM     12  C   UNL     1       6.363   4.919  14.291  0.00  0.00    +0.000 C 
BRANCH  12  13
ATOM     13  N   UNL     1       7.743   5.392  14.000  0.00  0.00    +0.000 NA
ATOM     14  H   UNL     1       7.769   5.542  12.983  0.00  0.00    +0.000 HD
ATOM     15  H   UNL     1       8.325   4.544  14.092  0.00  0.00    +0.000 HD
ENDBRANCH  12  13
BRANCH  12  16
ATOM     16  C   UNL     1       6.176   3.528  13.667  0.00  0.00    +0.000 C 
BRANCH  16  17
ATOM     17  C   UNL     1       6.078   3.515  12.130  0.00  0.00    +0.000 C 
ATOM     18  C   UNL     1       6.960   2.443  11.490  0.00  0.00    +0.000 C 
ATOM     19  C   UNL     1       4.619   3.290  11.718  0.00  0.00    +0.000 C 
ENDBRANCH  16  17
ENDBRANCH  12  16
ENDBRANCH   1  12
TORSDOF 10
ENDMDL
MODEL 8
REMARK VINA RESULT:      -5.7      1.626      2.167
REMARK  Name = 
REMARK  13 active torsions:
REMARK  status: ('A' for Active; 'I' for Inactive)
REMARK    1  A    between atoms: C_1  and  C_2
REMARK    2  A    between atoms: C_2  and  C_3
REMARK    3  A    between atoms: C_3  and  C_4
REMARK    4  A    between atoms: C_4  and  C_5
REMARK    5  A    between atoms: C_5  and  O_6
REMARK    6  A    between atoms: C_5  and  P_7
REMARK    7  A    between atoms: P_7  and  O_9
REMARK    8  A    between atoms: P_7  and  C_10
REMARK    9  A    between atoms: C_10  and  N_11
REMARK   10  A    between atoms: C_10  and  C_12
REMARK   11  A    between atoms: C_12  and  C_13
REMARK   12  A    between atoms: C_13  and  C_14
REMARK   13  A    between atoms: C_13  and  C_15
REMARK                            x       y       z     vdW  Elec       q    Type
REMARK                         _______ _______ _______ _____ _____    ______ ____
ROOT
ATOM      1  P   UNL     1       5.110   5.170  18.005  0.00  0.00    +0.000 P 
ATOM      2  O   UNL     1       4.331   4.895  16.702  0.00  0.00    +0.000 OA
ENDROOT
BRANCH   1   3
ATOM      3  O   UNL     1       5.862   3.750  18.448  0.00  0.00    +0.000 OA
ATOM      4  H   UNL     1       6.594   3.890  19.095  0.00  0.00    +0.000 HD
ENDBRANCH   1   3
BRANCH   1   5
ATOM      5  C   UNL     1       6.568   5.607  16.988  0.00  0.00    +0.000 C 
BRANCH   5   6
ATOM      6  O   UNL     1       6.186   6.737  16.173  0.00  0.00    +0.000 OA
ATOM      7  H   UNL     1       6.562   7.541  16.576  0.00  0.00    +0.000 HD
ENDBRANCH   5   6
BRANCH   5   8
ATOM      8  C   UNL     1       7.003   4.433  16.112  0.00  0.00    +0.000 C 
BRANCH   8   9
ATOM      9  C   UNL     1       7.012   4.788  14.625  0.00  0.00    +0.000 C 
BRANCH   9  11
ATOM     10  C   UNL     1       6.507   3.657  12.440  0.00  0.00    +0.000 C 
ATOM     11  C   UNL     1       6.013   3.937  13.850  0.00  0.00    +0.000 C 
ENDBRANCH   9  11
ENDBRANCH   8   9
ENDBRANCH   5   8
ENDBRANCH   1   5
BRANCH   1  12
ATOM     12  C   UNL     1       3.652   4.734  19.021  0.00  0.00    +0.000 C 
BRANCH  12  13
ATOM     13  N   UNL     1       3.499   5.796  20.051  0.00  0.00    +0.000 NA
ATOM     14  H   UNL     1       2.748   6.405  19.703  0.00  0.00    +0.000 HD
ATOM     15  H   UNL     1       4.326   6.399  19.915  0.00  0.00    +0.000 HD
ENDBRANCH  12  13
BRANCH  12  16
ATOM     16  C   UNL     1       2.341   4.622  18.229  0.00  0.00    +0.000 C 
BRANCH  16  17
ATOM     17  C   UNL     1       1.650   3.248  18.308  0.00  0.00    +0.000 C 
ATOM     18  C   UNL     1       2.628   2.085  18.151  0.00  0.00    +0.000 C 
ATOM     19  C   UNL     1       0.919   3.125  19.649  0.00  0.00    +0.000 C 
ENDBRANCH  16  17
ENDBRANCH  12  16
ENDBRANCH   1  12
TORSDOF 10
ENDMDL
MODEL 9
REMARK VINA RESULT:      -5.6      2.390      3.275
REMARK  Name = 
REMARK  13 active torsions:
REMARK  status: ('A' for Active; 'I' for Inactive)
REMARK    1  A    between atoms: C_1  and  C_2
REMARK    2  A    between atoms: C_2  and  C_3
REMARK    3  A    between atoms: C_3  and  C_4
REMARK    4  A    between atoms: C_4  and  C_5
REMARK    5  A    between atoms: C_5  and  O_6
REMARK    6  A    between atoms: C_5  and  P_7
REMARK    7  A    between atoms: P_7  and  O_9
REMARK    8  A    between atoms: P_7  and  C_10
REMARK    9  A    between atoms: C_10  and  N_11
REMARK   10  A    between atoms: C_10  and  C_12
REMARK   11  A    between atoms: C_12  and  C_13
REMARK   12  A    between atoms: C_13  and  C_14
REMARK   13  A    between atoms: C_13  and  C_15
REMARK                            x       y       z     vdW  Elec       q    Type
REMARK                         _______ _______ _______ _____ _____    ______ ____
ROOT
ATOM      1  P   UNL     1       4.291   4.125  18.741  0.00  0.00    +0.000 P 
ATOM      2  O   UNL     1       3.836   3.617  17.357  0.00  0.00    +0.000 OA
ENDROOT
BRANCH   1   3
ATOM      3  O   UNL     1       5.898   3.717  18.921  0.00  0.00    +0.000 OA
ATOM      4  H   UNL     1       6.099   2.805  18.602  0.00  0.00    +0.000 HD
ENDBRANCH   1   3
BRANCH   1   5
ATOM      5  C   UNL     1       4.794   5.697  17.951  0.00  0.00    +0.000 C 
BRANCH   5   6
ATOM      6  O   UNL     1       3.754   6.659  18.236  0.00  0.00    +0.000 OA
ATOM      7  H   UNL     1       4.121   7.326  18.845  0.00  0.00    +0.000 HD
ENDBRANCH   5   6
BRANCH   5   8
ATOM      8  C   UNL     1       4.970   5.526  16.443  0.00  0.00    +0.000 C 
BRANCH   8   9
ATOM      9  C   UNL     1       6.433   5.641  16.010  0.00  0.00    +0.000 C 
BRANCH   9  11
ATOM     10  C   UNL     1       5.952   4.092  14.093  0.00  0.00    +0.000 C 
ATOM     11  C   UNL     1       6.882   4.395  15.256  0.00  0.00    +0.000 C 
ENDBRANCH   9  11
ENDBRANCH   8   9
ENDBRANCH   5   8
ENDBRANCH   1   5
BRANCH   1  12
ATOM     12  C   UNL     1       3.788   2.553  19.531  0.00  0.00    +0.000 C 
BRANCH  12  13
ATOM     13  N   UNL     1       5.031   1.855  19.956  0.00  0.00    +0.000 NA
ATOM     14  H   UNL     1       5.794   2.512  19.750  0.00  0.00    +0.000 HD
ATOM     15  H   UNL     1       5.180   1.140  19.225  0.00  0.00    +0.000 HD
ENDBRANCH  12  13
BRANCH  12  16
ATOM     16  C   UNL     1       2.876   2.725  20.755  0.00  0.00    +0.000 C 
BRANCH  16  17
ATOM     17  C   UNL     1       1.374   2.844  20.434  0.00  0.00    +0.000 C 
ATOM     18  C   UNL     1       0.884   4.292  20.426  0.00  0.00    +0.000 C 
ATOM     19  C   UNL     1       1.095   2.202  19.071  0.00  0.00    +0.000 C 
ENDBRANCH  16  17
ENDBRANCH  12  16
ENDBRANCH   1  12
TORSDOF 10
ENDMDL
