MODEL 1
REMARK VINA RESULT:      -7.6      0.000      0.000
REMARK  Name = 
REMARK  4 active torsions:
REMARK  status: ('A' for Active; 'I' for Inactive)
REMARK    1  A    between atoms: C_1  and  C_2
REMARK    2  A    between atoms: C_14  and  C_15
REMARK    3  A    between atoms: N_18  and  C_19
REMARK    4  A    between atoms: C_19  and  C_20
REMARK                            x       y       z     vdW  Elec       q    Type
REMARK                         _______ _______ _______ _____ _____    ______ ____
ROOT
ATOM      1  C   UNL     1       7.341   4.577  17.349  0.00  0.00    +0.000 C 
ATOM      2  C   UNL     1       6.011   5.336  17.471  0.00  0.00    +0.000 C 
ATOM      3  C   UNL     1       5.194   5.642  16.178  0.00  0.00    +0.000 C 
ATOM      4  C   UNL     1       4.724   7.079  16.254  0.00  0.00    +0.000 C 
ATOM      5  C   UNL     1       3.880   7.098  17.566  0.00  0.00    +0.000 A 
ATOM      6  C   UNL     1       3.025   8.196  17.732  0.00  0.00    +0.000 A 
ATOM      7  C   UNL     1       2.203   8.253  18.865  0.00  0.00    +0.000 A 
ATOM      8  C   UNL     1       1.225   9.182  19.312  0.00  0.00    +0.000 A 
ATOM      9  C   UNL     1       0.751   8.740  20.524  0.00  0.00    +0.000 A 
ATOM     10  N   UNL     1       1.395   7.568  20.818  0.00  0.00    +0.000 N 
ATOM     11  C   UNL     1       2.267   7.224  19.808  0.00  0.00    +0.000 A 
ATOM     12  C   UNL     1       3.093   6.092  19.666  0.00  0.00    +0.000 A 
ATOM     13  C   UNL     1       3.910   5.996  18.527  0.00  0.00    +0.000 A 
ATOM     14  C   UNL     1       4.889   4.720  18.312  0.00  0.00    +0.000 C 
ATOM     15  C   UNL     1       5.400   4.173  19.658  0.00  0.00    +0.000 C 
ATOM     16  C   UNL     1       4.286   3.508  17.430  0.00  0.00    +0.000 C 
ATOM     17  C   UNL     1       4.907   3.314  15.940  0.00  0.00    +0.000 C 
ATOM     18  N   UNL     1       5.158   4.583  15.200  0.00  0.00    +0.000 NA
ATOM     19  H   UNL     1       1.262   7.026  21.654  0.00  0.00    +0.000 HD
ENDROOT
BRANCH  18  20
ATOM     20  C   UNL     1       6.215   4.689  14.220  0.00  0.00    +0.000 C 
BRANCH  20  21
ATOM     21  C   UNL     1       6.251   3.500  13.315  0.00  0.00    +0.000 C 
ATOM     22  C   UNL     1       5.291   3.361  12.160  0.00  0.00    +0.000 C 
ATOM     23  C   UNL     1       6.739   3.654  11.893  0.00  0.00    +0.000 C 
ENDBRANCH  20  21
ENDBRANCH  18  20
TORSDOF 2
ENDMDL
MODEL 2
REMARK VINA RESULT:      -7.5      1.424      2.291
REMARK  Name = 
REMARK  4 active torsions:
REMARK  status: ('A' for Active; 'I' for Inactive)
REMARK    1  A    between atoms: C_1  and  C_2
REMARK    2  A    between atoms: C_14  and  C_15
REMARK    3  A    between atoms: N_18  and  C_19
REMARK    4  A    between atoms: C_19  and  C_20
REMARK                            x       y       z     vdW  Elec       q    Type
REMARK                         _______ _______ _______ _____ _____    ______ ____
ROOT
ATOM      1  C   UNL     1       5.019   3.957  19.458  0.00  0.00    +0.000 C 
ATOM      2  C   UNL     1       4.157   5.153  19.025  0.00  0.00    +0.000 C 
ATOM      3  C   UNL     1       3.913   5.398  17.504  0.00  0.00    +0.000 C 
ATOM      4  C   UNL     1       4.098   6.876  17.235  0.00  0.00    +0.000 C 
ATOM      5  C   UNL     1       3.034   7.533  18.169  0.00  0.00    +0.000 A 
ATOM      6  C   UNL     1       2.717   8.871  17.896  0.00  0.00    +0.000 A 
ATOM      7  C   UNL     1       1.736   9.508  18.666  0.00  0.00    +0.000 A 
ATOM      8  C   UNL     1       1.167  10.810  18.634  0.00  0.00    +0.000 A 
ATOM      9  C   UNL     1       0.254  10.893  19.658  0.00  0.00    +0.000 A 
ATOM     10  N   UNL     1       0.238   9.682  20.298  0.00  0.00    +0.000 N 
ATOM     11  C   UNL     1       1.109   8.801  19.695  0.00  0.00    +0.000 A 
ATOM     12  C   UNL     1       1.381   7.450  19.986  0.00  0.00    +0.000 A 
ATOM     13  C   UNL     1       2.343   6.777  19.213  0.00  0.00    +0.000 A 
ATOM     14  C   UNL     1       2.705   5.223  19.505  0.00  0.00    +0.000 C 
ATOM     15  C   UNL     1       2.566   4.887  21.002  0.00  0.00    +0.000 C 
ATOM     16  C   UNL     1       1.893   4.133  18.630  0.00  0.00    +0.000 C 
ATOM     17  C   UNL     1       2.735   3.356  17.476  0.00  0.00    +0.000 C 
ATOM     18  N   UNL     1       3.684   4.215  16.713  0.00  0.00    +0.000 NA
ATOM     19  H   UNL     1      -0.324   9.458  21.100  0.00  0.00    +0.000 HD
ENDROOT
BRANCH  18  20
ATOM     20  C   UNL     1       4.900   3.676  16.144  0.00  0.00    +0.000 C 
BRANCH  20  21
ATOM     21  C   UNL     1       5.441   4.554  15.063  0.00  0.00    +0.000 C 
ATOM     22  C   UNL     1       6.925   4.764  14.890  0.00  0.00    +0.000 C 
ATOM     23  C   UNL     1       6.170   3.936  13.891  0.00  0.00    +0.000 C 
ENDBRANCH  20  21
ENDBRANCH  18  20
TORSDOF 2
ENDMDL
MODEL 3
REMARK VINA RESULT:      -7.4      1.613      2.736
REMARK  Name = 
REMARK  4 active torsions:
REMARK  status: ('A' for Active; 'I' for Inactive)
REMARK    1  A    between atoms: C_1  and  C_2
REMARK    2  A    between atoms: C_14  and  C_15
REMARK    3  A    between atoms: N_18  and  C_19
REMARK    4  A    between atoms: C_19  and  C_20
REMARK                            x       y       z     vdW  Elec       q    Type
REMARK                         _______ _______ _______ _____ _____    ______ ____
ROOT
ATOM      1  C   UNL     1       4.730   3.363  19.659  0.00  0.00    +0.000 C 
ATOM      2  C   UNL     1       3.818   4.583  19.459  0.00  0.00    +0.000 C 
ATOM      3  C   UNL     1       3.435   5.012  18.009  0.00  0.00    +0.000 C 
ATOM      4  C   UNL     1       3.577   6.516  17.916  0.00  0.00    +0.000 C 
ATOM      5  C   UNL     1       2.593   7.025  19.015  0.00  0.00    +0.000 A 
ATOM      6  C   UNL     1       2.236   8.378  18.944  0.00  0.00    +0.000 A 
ATOM      7  C   UNL     1       1.320   8.890  19.871  0.00  0.00    +0.000 A 
ATOM      8  C   UNL     1       0.734  10.172  20.056  0.00  0.00    +0.000 A 
ATOM      9  C   UNL     1      -0.084  10.104  21.158  0.00  0.00    +0.000 A 
ATOM     10  N   UNL     1      -0.028   8.822  21.637  0.00  0.00    +0.000 N 
ATOM     11  C   UNL     1       0.797   8.045  20.853  0.00  0.00    +0.000 A 
ATOM     12  C   UNL     1       1.110   6.674  20.944  0.00  0.00    +0.000 A 
ATOM     13  C   UNL     1       2.008   6.127  20.011  0.00  0.00    +0.000 A 
ATOM     14  C   UNL     1       2.414   4.558  20.070  0.00  0.00    +0.000 C 
ATOM     15  C   UNL     1       2.414   4.033  21.517  0.00  0.00    +0.000 C 
ATOM     16  C   UNL     1       1.541   3.568  19.137  0.00  0.00    +0.000 C 
ATOM     17  C   UNL     1       2.285   2.963  17.824  0.00  0.00    +0.000 C 
ATOM     18  N   UNL     1       3.152   3.933  17.096  0.00  0.00    +0.000 NA
ATOM     19  H   UNL     1      -0.513   8.484  22.450  0.00  0.00    +0.000 HD
ENDROOT
BRANCH  18  20
ATOM     20  C   UNL     1       4.318   3.499  16.360  0.00  0.00    +0.000 C 
BRANCH  20  21
ATOM     21  C   UNL     1       5.172   4.653  15.947  0.00  0.00    +0.000 C 
ATOM     22  C   UNL     1       6.675   4.604  16.074  0.00  0.00    +0.000 C 
ATOM     23  C   UNL     1       6.041   4.539  14.715  0.00  0.00    +0.000 C 
ENDBRANCH  20  21
ENDBRANCH  18  20
TORSDOF 2
ENDMDL
MODEL 4
REMARK VINA RESULT:      -7.0      1.904      3.512
REMARK  Name = 
REMARK  4 active torsions:
REMARK  status: ('A' for Active; 'I' for Inactive)
REMARK    1  A    between atoms: C_1  and  C_2
REMARK    2  A    between atoms: C_14  and  C_15
REMARK    3  A    between atoms: N_18  and  C_19
REMARK    4  A    between atoms: C_19  and  C_20
REMARK                            x       y       z     vdW  Elec       q    Type
REMARK                         _______ _______ _______ _____ _____    ______ ____
ROOT
ATOM      1  C   UNL     1       4.856   6.989  15.144  0.00  0.00    +0.000 C 
ATOM      2  C   UNL     1       4.576   5.907  16.199  0.00  0.00    +0.000 C 
ATOM      3  C   UNL     1       5.407   4.588  16.167  0.00  0.00    +0.000 C 
ATOM      4  C   UNL     1       4.450   3.431  16.362  0.00  0.00    +0.000 C 
ATOM      5  C   UNL     1       3.802   3.747  17.745  0.00  0.00    +0.000 A 
ATOM      6  C   UNL     1       3.129   2.686  18.367  0.00  0.00    +0.000 A 
ATOM      7  C   UNL     1       2.564   2.888  19.633  0.00  0.00    +0.000 A 
ATOM      8  C   UNL     1       1.861   2.040  20.531  0.00  0.00    +0.000 A 
ATOM      9  C   UNL     1       1.513   2.790  21.629  0.00  0.00    +0.000 A 
ATOM     10  N   UNL     1       1.995   4.057  21.434  0.00  0.00    +0.000 N 
ATOM     11  C   UNL     1       2.672   4.142  20.237  0.00  0.00    +0.000 A 
ATOM     12  C   UNL     1       3.361   5.226  19.658  0.00  0.00    +0.000 A 
ATOM     13  C   UNL     1       3.959   5.046  18.399  0.00  0.00    +0.000 A 
ATOM     14  C   UNL     1       4.759   6.259  17.678  0.00  0.00    +0.000 C 
ATOM     15  C   UNL     1       4.146   7.625  18.035  0.00  0.00    +0.000 C 
ATOM     16  C   UNL     1       6.355   6.301  17.931  0.00  0.00    +0.000 C 
ATOM     17  C   UNL     1       7.301   5.897  16.671  0.00  0.00    +0.000 C 
ATOM     18  N   UNL     1       6.808   4.743  15.867  0.00  0.00    +0.000 NA
ATOM     19  H   UNL     1       1.874   4.828  22.068  0.00  0.00    +0.000 HD
ENDROOT
BRANCH  18  20
ATOM     20  C   UNL     1       7.097   4.628  14.455  0.00  0.00    +0.000 C 
BRANCH  20  21
ATOM     21  C   UNL     1       6.233   3.604  13.795  0.00  0.00    +0.000 C 
ATOM     22  C   UNL     1       5.183   3.994  12.785  0.00  0.00    +0.000 C 
ATOM     23  C   UNL     1       6.428   3.291  12.329  0.00  0.00    +0.000 C 
ENDBRANCH  20  21
ENDBRANCH  18  20
TORSDOF 2
ENDMDL
MODEL 5
REMARK VINA RESULT:      -7.0      1.980      6.659
REMARK  Name = 
REMARK  4 active torsions:
REMARK  status: ('A' for Active; 'I' for Inactive)
REMARK    1  A    between atoms: C_1  and  C_2
REMARK    2  A    between atoms: C_14  and  C_15
REMARK    3  A    between atoms: N_18  and  C_19
REMARK    4  A    between atoms: C_19  and  C_20
REMARK                            x       y       z     vdW  Elec       q    Type
REMARK                         _______ _______ _______ _____ _____    ______ ____
ROOT
ATOM      1  C   UNL     1       5.932   5.181  19.694  0.00  0.00    +0.000 C 
ATOM      2  C   UNL     1       5.721   4.920  18.195  0.00  0.00    +0.000 C 
ATOM      3  C   UNL     1       4.286   4.588  17.681  0.00  0.00    +0.000 C 
ATOM      4  C   UNL     1       4.394   3.426  16.718  0.00  0.00    +0.000 C 
ATOM      5  C   UNL     1       5.357   3.975  15.621  0.00  0.00    +0.000 A 
ATOM      6  C   UNL     1       5.383   3.265  14.412  0.00  0.00    +0.000 A 
ATOM      7  C   UNL     1       6.190   3.730  13.367  0.00  0.00    +0.000 A 
ATOM      8  C   UNL     1       6.418   3.280  12.037  0.00  0.00    +0.000 A 
ATOM      9  C   UNL     1       7.346   4.117  11.465  0.00  0.00    +0.000 A 
ATOM     10  N   UNL     1       7.675   5.068  12.395  0.00  0.00    +0.000 N 
ATOM     11  C   UNL     1       6.961   4.880  13.558  0.00  0.00    +0.000 A 
ATOM     12  C   UNL     1       6.945   5.635  14.747  0.00  0.00    +0.000 A 
ATOM     13  C   UNL     1       6.125   5.206  15.804  0.00  0.00    +0.000 A 
ATOM     14  C   UNL     1       6.071   6.030  17.201  0.00  0.00    +0.000 C 
ATOM     15  C   UNL     1       7.425   6.692  17.514  0.00  0.00    +0.000 C 
ATOM     16  C   UNL     1       4.892   7.129  17.326  0.00  0.00    +0.000 C 
ATOM     17  C   UNL     1       3.666   6.767  18.333  0.00  0.00    +0.000 C 
ATOM     18  N   UNL     1       3.219   5.347  18.284  0.00  0.00    +0.000 NA
ATOM     19  H   UNL     1       8.347   5.803  12.259  0.00  0.00    +0.000 HD
ENDROOT
BRANCH  18  20
ATOM     20  C   UNL     1       2.650   4.695  19.443  0.00  0.00    +0.000 C 
BRANCH  20  21
ATOM     21  C   UNL     1       1.354   4.024  19.120  0.00  0.00    +0.000 C 
ATOM     22  C   UNL     1       1.287   2.548  18.817  0.00  0.00    +0.000 C 
ATOM     23  C   UNL     1       0.738   3.067  20.114  0.00  0.00    +0.000 C 
ENDBRANCH  20  21
ENDBRANCH  18  20
TORSDOF 2
ENDMDL
MODEL 6
REMARK VINA RESULT:      -6.8      3.291      8.306
REMARK  Name = 
REMARK  4 active torsions:
REMARK  status: ('A' for Active; 'I' for Inactive)
REMARK    1  A    between atoms: C_1  and  C_2
REMARK    2  A    between atoms: C_14  and  C_15
REMARK    3  A    between atoms: N_18  and  C_19
REMARK    4  A    between atoms: C_19  and  C_20
REMARK                            x       y       z     vdW  Elec       q    Type
REMARK                         _______ _______ _______ _____ _____    ______ ____
ROOT
ATOM      1  C   UNL     1      -1.521  10.941  19.620  0.00  0.00    +0.000 C 
ATOM      2  C   UNL     1      -0.227  10.144  19.395  0.00  0.00    +0.000 C 
ATOM      3  C   UNL     1       1.025  10.880  18.824  0.00  0.00    +0.000 C 
ATOM      4  C   UNL     1       1.630  10.003  17.750  0.00  0.00    +0.000 C 
ATOM      5  C   UNL     1       1.957   8.687  18.520  0.00  0.00    +0.000 A 
ATOM      6  C   UNL     1       2.842   7.804  17.886  0.00  0.00    +0.000 A 
ATOM      7  C   UNL     1       3.215   6.625  18.543  0.00  0.00    +0.000 A 
ATOM      8  C   UNL     1       4.093   5.559  18.206  0.00  0.00    +0.000 A 
ATOM      9  C   UNL     1       4.049   4.641  19.229  0.00  0.00    +0.000 A 
ATOM     10  N   UNL     1       3.188   5.122  20.180  0.00  0.00    +0.000 N 
ATOM     11  C   UNL     1       2.686   6.350  19.806  0.00  0.00    +0.000 A 
ATOM     12  C   UNL     1       1.814   7.221  20.489  0.00  0.00    +0.000 A 
ATOM     13  C   UNL     1       1.442   8.424  19.864  0.00  0.00    +0.000 A 
ATOM     14  C   UNL     1       0.435   9.463  20.596  0.00  0.00    +0.000 C 
ATOM     15  C   UNL     1      -0.584   8.725  21.485  0.00  0.00    +0.000 C 
ATOM     16  C   UNL     1       1.136  10.645  21.447  0.00  0.00    +0.000 C 
ATOM     17  C   UNL     1       1.055  12.141  20.815  0.00  0.00    +0.000 C 
ATOM     18  N   UNL     1       1.255  12.206  19.340  0.00  0.00    +0.000 NA
ATOM     19  H   UNL     1       2.945   4.651  21.034  0.00  0.00    +0.000 HD
ENDROOT
BRANCH  18  20
ATOM     20  C   UNL     1       0.632  13.236  18.539  0.00  0.00    +0.000 C 
BRANCH  20  21
ATOM     21  C   UNL     1       0.329  14.457  19.346  0.00  0.00    +0.000 C 
ATOM     22  C   UNL     1       1.151  15.714  19.209  0.00  0.00    +0.000 C 
ATOM     23  C   UNL     1      -0.249  15.679  18.669  0.00  0.00    +0.000 C 
ENDBRANCH  20  21
ENDBRANCH  18  20
TORSDOF 2
ENDMDL
MODEL 7
REMARK VINA RESULT:      -6.5      1.728      6.779
REMARK  Name = 
REMARK  4 active torsions:
REMARK  status: ('A' for Active; 'I' for Inactive)
REMARK    1  A    between atoms: C_1  and  C_2
REMARK    2  A    between atoms: C_14  and  C_15
REMARK    3  A    between atoms: N_18  and  C_19
REMARK    4  A    between atoms: C_19  and  C_20
REMARK                            x       y       z     vdW  Elec       q    Type
REMARK                         _______ _______ _______ _____ _____    ______ ____
ROOT
ATOM      1  C   UNL     1       0.416   3.746  19.313  0.00  0.00    +0.000 C 
ATOM      2  C   UNL     1       1.720   4.263  18.687  0.00  0.00    +0.000 C 
ATOM      3  C   UNL     1       2.379   5.551  19.269  0.00  0.00    +0.000 C 
ATOM      4  C   UNL     1       2.796   6.426  18.106  0.00  0.00    +0.000 C 
ATOM      5  C   UNL     1       3.777   5.506  17.316  0.00  0.00    +0.000 A 
ATOM      6  C   UNL     1       4.601   6.144  16.378  0.00  0.00    +0.000 A 
ATOM      7  C   UNL     1       5.538   5.385  15.667  0.00  0.00    +0.000 A 
ATOM      8  C   UNL     1       6.521   5.714  14.695  0.00  0.00    +0.000 A 
ATOM      9  C   UNL     1       7.142   4.547  14.317  0.00  0.00    +0.000 A 
ATOM     10  N   UNL     1       6.581   3.526  15.037  0.00  0.00    +0.000 N 
ATOM     11  C   UNL     1       5.618   4.009  15.897  0.00  0.00    +0.000 A 
ATOM     12  C   UNL     1       4.827   3.333  16.847  0.00  0.00    +0.000 A 
ATOM     13  C   UNL     1       3.895   4.075  17.594  0.00  0.00    +0.000 A 
ATOM     14  C   UNL     1       2.950   3.351  18.696  0.00  0.00    +0.000 C 
ATOM     15  C   UNL     1       2.612   1.907  18.283  0.00  0.00    +0.000 C 
ATOM     16  C   UNL     1       3.502   3.363  20.215  0.00  0.00    +0.000 C 
ATOM     17  C   UNL     1       2.731   4.341  21.261  0.00  0.00    +0.000 C 
ATOM     18  N   UNL     1       2.350   5.670  20.705  0.00  0.00    +0.000 NA
ATOM     19  H   UNL     1       6.826   2.555  14.955  0.00  0.00    +0.000 HD
ENDROOT
BRANCH  18  20
ATOM     20  C   UNL     1       1.188   6.384  21.187  0.00  0.00    +0.000 C 
BRANCH  20  21
ATOM     21  C   UNL     1       1.282   7.848  20.902  0.00  0.00    +0.000 C 
ATOM     22  C   UNL     1       0.158   8.791  21.251  0.00  0.00    +0.000 C 
ATOM     23  C   UNL     1       1.431   8.827  22.045  0.00  0.00    +0.000 C 
ENDBRANCH  20  21
ENDBRANCH  18  20
TORSDOF 2
ENDMDL
MODEL 8
REMARK VINA RESULT:      -6.5      5.077      8.819
REMARK  Name = 
REMARK  4 active torsions:
REMARK  status: ('A' for Active; 'I' for Inactive)
REMARK    1  A    between atoms: C_1  and  C_2
REMARK    2  A    between atoms: C_14  and  C_15
REMARK    3  A    between atoms: N_18  and  C_19
REMARK    4  A    between atoms: C_19  and  C_20
REMARK                            x       y       z     vdW  Elec       q    Type
REMARK                         _______ _______ _______ _____ _____    ______ ____
ROOT
ATOM      1  C   UNL     1       1.021  12.591  18.569  0.00  0.00    +0.000 C 
ATOM      2  C   UNL     1      -0.424  12.070  18.581  0.00  0.00    +0.000 C 
ATOM      3  C   UNL     1      -0.687  10.562  18.284  0.00  0.00    +0.000 C 
ATOM      4  C   UNL     1      -1.855  10.472  17.326  0.00  0.00    +0.000 C 
ATOM      5  C   UNL     1      -3.002  11.180  18.112  0.00  0.00    +0.000 A 
ATOM      6  C   UNL     1      -4.303  10.956  17.640  0.00  0.00    +0.000 A 
ATOM      7  C   UNL     1      -5.383  11.523  18.327  0.00  0.00    +0.000 A 
ATOM      8  C   UNL     1      -6.792  11.469  18.141  0.00  0.00    +0.000 A 
ATOM      9  C   UNL     1      -7.372  12.250  19.112  0.00  0.00    +0.000 A 
ATOM     10  N   UNL     1      -6.366  12.762  19.888  0.00  0.00    +0.000 N 
ATOM     11  C   UNL     1      -5.139  12.309  19.455  0.00  0.00    +0.000 A 
ATOM     12  C   UNL     1      -3.850  12.539  19.977  0.00  0.00    +0.000 A 
ATOM     13  C   UNL     1      -2.748  11.962  19.322  0.00  0.00    +0.000 A 
ATOM     14  C   UNL     1      -1.240  12.197  19.870  0.00  0.00    +0.000 C 
ATOM     15  C   UNL     1      -1.090  13.583  20.524  0.00  0.00    +0.000 C 
ATOM     16  C   UNL     1      -0.668  11.064  20.871  0.00  0.00    +0.000 C 
ATOM     17  C   UNL     1       0.481  10.080  20.274  0.00  0.00    +0.000 C 
ATOM     18  N   UNL     1       0.255   9.640  18.868  0.00  0.00    +0.000 NA
ATOM     19  H   UNL     1      -6.494  13.385  20.666  0.00  0.00    +0.000 HD
ENDROOT
BRANCH  18  20
ATOM     20  C   UNL     1       1.360   9.332  17.988  0.00  0.00    +0.000 C 
BRANCH  20  21
ATOM     21  C   UNL     1       2.268   8.304  18.579  0.00  0.00    +0.000 C 
ATOM     22  C   UNL     1       2.185   6.854  18.171  0.00  0.00    +0.000 C 
ATOM     23  C   UNL     1       3.354   7.684  17.728  0.00  0.00    +0.000 C 
ENDBRANCH  20  21
ENDBRANCH  18  20
TORSDOF 2
ENDMDL
MODEL 9
REMARK VINA RESULT:      -6.4      2.203      6.630
REMARK  Name = 
REMARK  4 active torsions:
REMARK  status: ('A' for Active; 'I' for Inactive)
REMARK    1  A    between atoms: C_1  and  C_2
REMARK    2  A    between atoms: C_14  and  C_15
REMARK    3  A    between atoms: N_18  and  C_19
REMARK    4  A    between atoms: C_19  and  C_20
REMARK                            x       y       z     vdW  Elec       q    Type
REMARK                         _______ _______ _______ _____ _____    ______ ____
ROOT
ATOM      1  C   UNL     1       4.802   3.221  20.047  0.00  0.00    +0.000 C 
ATOM      2  C   UNL     1       4.921   3.597  18.562  0.00  0.00    +0.000 C 
ATOM      3  C   UNL     1       3.624   3.709  17.704  0.00  0.00    +0.000 C 
ATOM      4  C   UNL     1       3.877   3.009  16.386  0.00  0.00    +0.000 C 
ATOM      5  C   UNL     1       5.096   3.791  15.808  0.00  0.00    +0.000 A 
ATOM      6  C   UNL     1       5.353   3.611  14.441  0.00  0.00    +0.000 A 
ATOM      7  C   UNL     1       6.404   4.319  13.847  0.00  0.00    +0.000 A 
ATOM      8  C   UNL     1       6.901   4.392  12.517  0.00  0.00    +0.000 A 
ATOM      9  C   UNL     1       7.984   5.237  12.520  0.00  0.00    +0.000 A 
ATOM     10  N   UNL     1       8.151   5.692  13.801  0.00  0.00    +0.000 N 
ATOM     11  C   UNL     1       7.181   5.176  14.631  0.00  0.00    +0.000 A 
ATOM     12  C   UNL     1       6.941   5.404  16.001  0.00  0.00    +0.000 A 
ATOM     13  C   UNL     1       5.877   4.726  16.618  0.00  0.00    +0.000 A 
ATOM     14  C   UNL     1       5.557   4.941  18.194  0.00  0.00    +0.000 C 
ATOM     15  C   UNL     1       6.843   5.219  18.994  0.00  0.00    +0.000 C 
ATOM     16  C   UNL     1       4.451   6.067  18.542  0.00  0.00    +0.000 C 
ATOM     17  C   UNL     1       3.008   5.530  19.068  0.00  0.00    +0.000 C 
ATOM     18  N   UNL     1       2.496   4.323  18.359  0.00  0.00    +0.000 NA
ATOM     19  H   UNL     1       8.880   6.314  14.105  0.00  0.00    +0.000 HD
ENDROOT
BRANCH  18  20
ATOM     20  C   UNL     1       1.640   3.365  19.021  0.00  0.00    +0.000 C 
BRANCH  20  21
ATOM     21  C   UNL     1       1.224   3.839  20.376  0.00  0.00    +0.000 C 
ATOM     22  C   UNL     1       1.011   2.874  21.515  0.00  0.00    +0.000 C 
ATOM     23  C   UNL     1       2.206   3.782  21.524  0.00  0.00    +0.000 C 
ENDBRANCH  20  21
ENDBRANCH  18  20
TORSDOF 2
ENDMDL
