MODEL 1
REMARK VINA RESULT:      -7.9      0.000      0.000
REMARK  Name = 
REMARK  10 active torsions:
REMARK  status: ('A' for Active; 'I' for Inactive)
REMARK    1  A    between atoms: C_1  and  C_2
REMARK    2  A    between atoms: C_2  and  O_3
REMARK    3  A    between atoms: O_3  and  C_4
REMARK    4  A    between atoms: C_4  and  C_6
REMARK    5  A    between atoms: C_7  and  C_8
REMARK    6  A    between atoms: C_11  and  C_12
REMARK    7  A    between atoms: C_13  and  C_14
REMARK    8  A    between atoms: C_16  and  O_17
REMARK    9  A    between atoms: C_18  and  O_19
REMARK   10  A    between atoms: C_20  and  O_21
REMARK                            x       y       z     vdW  Elec       q    Type
REMARK                         _______ _______ _______ _____ _____    ______ ____
ROOT
ATOM      1  C   UNL     1       8.176   8.783  17.570  0.00  0.00    +0.000 C 
ATOM      2  C   UNL     1       8.733   9.598  18.482  0.00  0.00    +0.000 C 
ENDROOT
BRANCH   1   6
ATOM      3  C   UNL     1       6.037   5.153  18.423  0.00  0.00    +0.000 A 
ATOM      4  C   UNL     1       5.546   6.098  17.519  0.00  0.00    +0.000 A 
ATOM      5  C   UNL     1       6.267   7.262  17.242  0.00  0.00    +0.000 A 
ATOM      6  C   UNL     1       7.484   7.523  17.884  0.00  0.00    +0.000 A 
ATOM      7  C   UNL     1       7.972   6.580  18.794  0.00  0.00    +0.000 A 
ATOM      8  C   UNL     1       7.250   5.412  19.071  0.00  0.00    +0.000 A 
BRANCH   3  10
ATOM      9  C   UNL     1       3.981   3.788  18.467  0.00  0.00    +0.000 C 
ATOM     10  C   UNL     1       5.286   3.933  18.737  0.00  0.00    +0.000 C 
BRANCH   9  11
ATOM     11  C   UNL     1       3.300   2.525  18.797  0.00  0.00    +0.000 C 
ATOM     12  O   UNL     1       2.806   1.760  17.980  0.00  0.00    +0.000 OA
BRANCH  11  13
ATOM     13  O   UNL     1       3.234   2.432  20.147  0.00  0.00    +0.000 OA
BRANCH  13  15
ATOM     14  C   UNL     1       0.998   3.190  20.453  0.00  0.00    +0.000 C 
ATOM     15  C   UNL     1       2.458   3.459  20.776  0.00  0.00    +0.000 C 
ENDBRANCH  13  15
ENDBRANCH  11  13
ENDBRANCH   9  11
ENDBRANCH   3  10
ENDBRANCH   1   6
BRANCH   2  16
ATOM     16  C   UNL     1       9.233  10.951  18.177  0.00  0.00    +0.000 A 
ATOM     17  C   UNL     1       8.291  11.981  17.981  0.00  0.00    +0.000 A 
ATOM     18  C   UNL     1       8.715  13.247  17.583  0.00  0.00    +0.000 A 
ATOM     19  C   UNL     1      10.068  13.509  17.416  0.00  0.00    +0.000 A 
ATOM     20  C   UNL     1      11.001  12.510  17.637  0.00  0.00    +0.000 A 
ATOM     21  C   UNL     1      10.600  11.241  18.028  0.00  0.00    +0.000 A 
BRANCH  18  22
ATOM     22  O   UNL     1       7.831  14.256  17.310  0.00  0.00    +0.000 OA
ATOM     23  H   UNL     1       7.817  14.859  18.072  0.00  0.00    +0.000 HD
ENDBRANCH  18  22
BRANCH  19  24
ATOM     24  O   UNL     1      10.491  14.742  17.004  0.00  0.00    +0.000 OA
ATOM     25  H   UNL     1      11.442  14.616  16.807  0.00  0.00    +0.000 HD
ENDBRANCH  19  24
BRANCH  20  26
ATOM     26  O   UNL     1      12.330  12.758  17.432  0.00  0.00    +0.000 OA
ATOM     27  H   UNL     1      12.671  11.940  17.018  0.00  0.00    +0.000 HD
ENDBRANCH  20  26
ENDBRANCH   2  16
TORSDOF 9
ENDMDL
MODEL 2
REMARK VINA RESULT:      -7.9      1.004      1.870
REMARK  Name = 
REMARK  10 active torsions:
REMARK  status: ('A' for Active; 'I' for Inactive)
REMARK    1  A    between atoms: C_1  and  C_2
REMARK    2  A    between atoms: C_2  and  O_3
REMARK    3  A    between atoms: O_3  and  C_4
REMARK    4  A    between atoms: C_4  and  C_6
REMARK    5  A    between atoms: C_7  and  C_8
REMARK    6  A    between atoms: C_11  and  C_12
REMARK    7  A    between atoms: C_13  and  C_14
REMARK    8  A    between atoms: C_16  and  O_17
REMARK    9  A    between atoms: C_18  and  O_19
REMARK   10  A    between atoms: C_20  and  O_21
REMARK                            x       y       z     vdW  Elec       q    Type
REMARK                         _______ _______ _______ _____ _____    ______ ____
ROOT
ATOM      1  C   UNL     1       8.014   8.743  17.603  0.00  0.00    +0.000 C 
ATOM      2  C   UNL     1       8.699   9.350  18.587  0.00  0.00    +0.000 C 
ENDROOT
BRANCH   1   6
ATOM      3  C   UNL     1       5.836   5.053  17.949  0.00  0.00    +0.000 A 
ATOM      4  C   UNL     1       5.360   6.116  17.177  0.00  0.00    +0.000 A 
ATOM      5  C   UNL     1       6.094   7.300  17.063  0.00  0.00    +0.000 A 
ATOM      6  C   UNL     1       7.308   7.460  17.741  0.00  0.00    +0.000 A 
ATOM      7  C   UNL     1       7.781   6.399  18.520  0.00  0.00    +0.000 A 
ATOM      8  C   UNL     1       7.046   5.211  18.633  0.00  0.00    +0.000 A 
BRANCH   3  10
ATOM      9  C   UNL     1       3.736   3.781  18.201  0.00  0.00    +0.000 C 
ATOM     10  C   UNL     1       5.071   3.810  18.093  0.00  0.00    +0.000 C 
BRANCH   9  11
ATOM     11  C   UNL     1       3.038   2.491  18.323  0.00  0.00    +0.000 C 
ATOM     12  O   UNL     1       3.580   1.395  18.304  0.00  0.00    +0.000 OA
BRANCH  11  13
ATOM     13  O   UNL     1       1.707   2.743  18.352  0.00  0.00    +0.000 OA
BRANCH  13  15
ATOM     14  C   UNL     1       1.212   2.893  20.675  0.00  0.00    +0.000 C 
ATOM     15  C   UNL     1       1.299   3.664  19.370  0.00  0.00    +0.000 C 
ENDBRANCH  13  15
ENDBRANCH  11  13
ENDBRANCH   9  11
ENDBRANCH   3  10
ENDBRANCH   1   6
BRANCH   2  16
ATOM     16  C   UNL     1       9.219  10.727  18.499  0.00  0.00    +0.000 A 
ATOM     17  C   UNL     1      10.410  11.033  19.188  0.00  0.00    +0.000 A 
ATOM     18  C   UNL     1      10.877  12.346  19.223  0.00  0.00    +0.000 A 
ATOM     19  C   UNL     1      10.193  13.347  18.547  0.00  0.00    +0.000 A 
ATOM     20  C   UNL     1       9.039  13.047  17.843  0.00  0.00    +0.000 A 
ATOM     21  C   UNL     1       8.554  11.749  17.800  0.00  0.00    +0.000 A 
BRANCH  18  22
ATOM     22  O   UNL     1      11.987  12.702  19.940  0.00  0.00    +0.000 OA
ATOM     23  H   UNL     1      12.471  11.891  20.171  0.00  0.00    +0.000 HD
ENDBRANCH  18  22
BRANCH  19  24
ATOM     24  O   UNL     1      10.631  14.642  18.594  0.00  0.00    +0.000 OA
ATOM     25  H   UNL     1      11.418  14.607  19.175  0.00  0.00    +0.000 HD
ENDBRANCH  19  24
BRANCH  20  26
ATOM     26  O   UNL     1       8.344  14.042  17.213  0.00  0.00    +0.000 OA
ATOM     27  H   UNL     1       8.970  14.397  16.551  0.00  0.00    +0.000 HD
ENDBRANCH  20  26
ENDBRANCH   2  16
TORSDOF 9
ENDMDL
MODEL 3
REMARK VINA RESULT:      -7.8      1.577      1.832
REMARK  Name = 
REMARK  10 active torsions:
REMARK  status: ('A' for Active; 'I' for Inactive)
REMARK    1  A    between atoms: C_1  and  C_2
REMARK    2  A    between atoms: C_2  and  O_3
REMARK    3  A    between atoms: O_3  and  C_4
REMARK    4  A    between atoms: C_4  and  C_6
REMARK    5  A    between atoms: C_7  and  C_8
REMARK    6  A    between atoms: C_11  and  C_12
REMARK    7  A    between atoms: C_13  and  C_14
REMARK    8  A    between atoms: C_16  and  O_17
REMARK    9  A    between atoms: C_18  and  O_19
REMARK   10  A    between atoms: C_20  and  O_21
REMARK                            x       y       z     vdW  Elec       q    Type
REMARK                         _______ _______ _______ _____ _____    ______ ____
ROOT
ATOM      1  C   UNL     1       8.148   8.617  17.755  0.00  0.00    +0.000 C 
ATOM      2  C   UNL     1       8.666   9.128  18.885  0.00  0.00    +0.000 C 
ENDROOT
BRANCH   1   6
ATOM      3  C   UNL     1       5.683   5.105  17.495  0.00  0.00    +0.000 A 
ATOM      4  C   UNL     1       5.328   6.298  16.861  0.00  0.00    +0.000 A 
ATOM      5  C   UNL     1       6.154   7.422  16.943  0.00  0.00    +0.000 A 
ATOM      6  C   UNL     1       7.341   7.388  17.684  0.00  0.00    +0.000 A 
ATOM      7  C   UNL     1       7.693   6.196  18.325  0.00  0.00    +0.000 A 
ATOM      8  C   UNL     1       6.866   5.068  18.241  0.00  0.00    +0.000 A 
BRANCH   3  10
ATOM      9  C   UNL     1       4.142   3.453  18.490  0.00  0.00    +0.000 C 
ATOM     10  C   UNL     1       4.820   3.920  17.433  0.00  0.00    +0.000 C 
BRANCH   9  11
ATOM     11  C   UNL     1       3.281   2.268  18.343  0.00  0.00    +0.000 C 
ATOM     12  O   UNL     1       3.654   1.109  18.464  0.00  0.00    +0.000 OA
BRANCH  11  13
ATOM     13  O   UNL     1       2.055   2.694  17.953  0.00  0.00    +0.000 OA
BRANCH  13  15
ATOM     14  C   UNL     1       0.926   3.129  20.003  0.00  0.00    +0.000 C 
ATOM     15  C   UNL     1       0.977   2.234  18.777  0.00  0.00    +0.000 C 
ENDBRANCH  13  15
ENDBRANCH  11  13
ENDBRANCH   9  11
ENDBRANCH   3  10
ENDBRANCH   1   6
BRANCH   2  16
ATOM     16  C   UNL     1       9.289  10.461  18.974  0.00  0.00    +0.000 A 
ATOM     17  C   UNL     1       9.478  11.023  20.252  0.00  0.00    +0.000 A 
ATOM     18  C   UNL     1       9.959  12.325  20.377  0.00  0.00    +0.000 A 
ATOM     19  C   UNL     1      10.290  13.058  19.245  0.00  0.00    +0.000 A 
ATOM     20  C   UNL     1      10.135  12.500  17.987  0.00  0.00    +0.000 A 
ATOM     21  C   UNL     1       9.652  11.209  17.840  0.00  0.00    +0.000 A 
BRANCH  18  22
ATOM     22  O   UNL     1      10.090  12.937  21.595  0.00  0.00    +0.000 OA
ATOM     23  H   UNL     1      10.514  13.801  21.454  0.00  0.00    +0.000 HD
ENDBRANCH  18  22
BRANCH  19  24
ATOM     24  O   UNL     1      10.742  14.344  19.357  0.00  0.00    +0.000 OA
ATOM     25  H   UNL     1      10.795  14.661  18.433  0.00  0.00    +0.000 HD
ENDBRANCH  19  24
BRANCH  20  26
ATOM     26  O   UNL     1      10.422  13.238  16.872  0.00  0.00    +0.000 OA
ATOM     27  H   UNL     1      10.615  14.134  17.214  0.00  0.00    +0.000 HD
ENDBRANCH  20  26
ENDBRANCH   2  16
TORSDOF 9
ENDMDL
MODEL 4
REMARK VINA RESULT:      -7.8      1.182      1.640
REMARK  Name = 
REMARK  10 active torsions:
REMARK  status: ('A' for Active; 'I' for Inactive)
REMARK    1  A    between atoms: C_1  and  C_2
REMARK    2  A    between atoms: C_2  and  O_3
REMARK    3  A    between atoms: O_3  and  C_4
REMARK    4  A    between atoms: C_4  and  C_6
REMARK    5  A    between atoms: C_7  and  C_8
REMARK    6  A    between atoms: C_11  and  C_12
REMARK    7  A    between atoms: C_13  and  C_14
REMARK    8  A    between atoms: C_16  and  O_17
REMARK    9  A    between atoms: C_18  and  O_19
REMARK   10  A    between atoms: C_20  and  O_21
REMARK                            x       y       z     vdW  Elec       q    Type
REMARK                         _______ _______ _______ _____ _____    ______ ____
ROOT
ATOM      1  C   UNL     1       8.505   8.882  17.801  0.00  0.00    +0.000 C 
ATOM      2  C   UNL     1       8.853   9.643  18.853  0.00  0.00    +0.000 C 
ENDROOT
BRANCH   1   6
ATOM      3  C   UNL     1       6.017   5.388  18.071  0.00  0.00    +0.000 A 
ATOM      4  C   UNL     1       7.203   5.501  18.800  0.00  0.00    +0.000 A 
ATOM      5  C   UNL     1       7.987   6.654  18.712  0.00  0.00    +0.000 A 
ATOM      6  C   UNL     1       7.618   7.711  17.870  0.00  0.00    +0.000 A 
ATOM      7  C   UNL     1       6.435   7.594  17.135  0.00  0.00    +0.000 A 
ATOM      8  C   UNL     1       5.647   6.439  17.224  0.00  0.00    +0.000 A 
BRANCH   3  10
ATOM      9  C   UNL     1       3.885   4.165  17.833  0.00  0.00    +0.000 C 
ATOM     10  C   UNL     1       5.190   4.178  18.139  0.00  0.00    +0.000 C 
BRANCH   9  11
ATOM     11  C   UNL     1       3.127   2.906  17.908  0.00  0.00    +0.000 C 
ATOM     12  O   UNL     1       3.622   1.793  18.015  0.00  0.00    +0.000 OA
BRANCH  11  13
ATOM     13  O   UNL     1       1.816   3.203  17.734  0.00  0.00    +0.000 OA
BRANCH  13  15
ATOM     14  C   UNL     1       0.962   3.318  19.953  0.00  0.00    +0.000 C 
ATOM     15  C   UNL     1       0.932   2.542  18.647  0.00  0.00    +0.000 C 
ENDBRANCH  13  15
ENDBRANCH  11  13
ENDBRANCH   9  11
ENDBRANCH   3  10
ENDBRANCH   1   6
BRANCH   2  16
ATOM     16  C   UNL     1       9.566  10.928  18.739  0.00  0.00    +0.000 A 
ATOM     17  C   UNL     1       9.121  12.008  19.527  0.00  0.00    +0.000 A 
ATOM     18  C   UNL     1       9.693  13.269  19.369  0.00  0.00    +0.000 A 
ATOM     19  C   UNL     1      10.729  13.456  18.464  0.00  0.00    +0.000 A 
ATOM     20  C   UNL     1      11.192  12.392  17.709  0.00  0.00    +0.000 A 
ATOM     21  C   UNL     1      10.632  11.130  17.846  0.00  0.00    +0.000 A 
BRANCH  18  22
ATOM     22  O   UNL     1       9.243  14.362  20.060  0.00  0.00    +0.000 OA
ATOM     23  H   UNL     1       8.302  14.225  20.261  0.00  0.00    +0.000 HD
ENDBRANCH  18  22
BRANCH  19  24
ATOM     24  O   UNL     1      11.281  14.694  18.286  0.00  0.00    +0.000 OA
ATOM     25  H   UNL     1      11.395  14.770  17.317  0.00  0.00    +0.000 HD
ENDBRANCH  19  24
BRANCH  20  26
ATOM     26  O   UNL     1      12.184  12.587  16.788  0.00  0.00    +0.000 OA
ATOM     27  H   UNL     1      11.815  12.236  15.953  0.00  0.00    +0.000 HD
ENDBRANCH  20  26
ENDBRANCH   2  16
TORSDOF 9
ENDMDL
MODEL 5
REMARK VINA RESULT:      -7.8      1.365      2.029
REMARK  Name = 
REMARK  10 active torsions:
REMARK  status: ('A' for Active; 'I' for Inactive)
REMARK    1  A    between atoms: C_1  and  C_2
REMARK    2  A    between atoms: C_2  and  O_3
REMARK    3  A    between atoms: O_3  and  C_4
REMARK    4  A    between atoms: C_4  and  C_6
REMARK    5  A    between atoms: C_7  and  C_8
REMARK    6  A    between atoms: C_11  and  C_12
REMARK    7  A    between atoms: C_13  and  C_14
REMARK    8  A    between atoms: C_16  and  O_17
REMARK    9  A    between atoms: C_18  and  O_19
REMARK   10  A    between atoms: C_20  and  O_21
REMARK                            x       y       z     vdW  Elec       q    Type
REMARK                         _______ _______ _______ _____ _____    ______ ____
ROOT
ATOM      1  C   UNL     1       8.224   8.849  17.806  0.00  0.00    +0.000 C 
ATOM      2  C   UNL     1       8.895   9.328  18.868  0.00  0.00    +0.000 C 
ENDROOT
BRANCH   1   6
ATOM      3  C   UNL     1       5.915   5.225  17.898  0.00  0.00    +0.000 A 
ATOM      4  C   UNL     1       7.107   5.353  18.614  0.00  0.00    +0.000 A 
ATOM      5  C   UNL     1       7.832   6.547  18.586  0.00  0.00    +0.000 A 
ATOM      6  C   UNL     1       7.396   7.633  17.817  0.00  0.00    +0.000 A 
ATOM      7  C   UNL     1       6.206   7.503  17.094  0.00  0.00    +0.000 A 
ATOM      8  C   UNL     1       5.478   6.306  17.124  0.00  0.00    +0.000 A 
BRANCH   3  10
ATOM      9  C   UNL     1       4.358   3.605  18.921  0.00  0.00    +0.000 C 
ATOM     10  C   UNL     1       5.149   3.974  17.904  0.00  0.00    +0.000 C 
BRANCH   9  11
ATOM     11  C   UNL     1       3.608   2.341  18.846  0.00  0.00    +0.000 C 
ATOM     12  O   UNL     1       3.721   1.509  17.956  0.00  0.00    +0.000 OA
BRANCH  11  13
ATOM     13  O   UNL     1       2.714   2.330  19.864  0.00  0.00    +0.000 OA
BRANCH  13  15
ATOM     14  C   UNL     1       0.876   3.795  20.245  0.00  0.00    +0.000 C 
ATOM     15  C   UNL     1       1.360   2.582  19.469  0.00  0.00    +0.000 C 
ENDBRANCH  13  15
ENDBRANCH  11  13
ENDBRANCH   9  11
ENDBRANCH   3  10
ENDBRANCH   1   6
BRANCH   2  16
ATOM     16  C   UNL     1       9.543  10.651  18.902  0.00  0.00    +0.000 A 
ATOM     17  C   UNL     1      10.231  11.085  17.751  0.00  0.00    +0.000 A 
ATOM     18  C   UNL     1      10.951  12.278  17.777  0.00  0.00    +0.000 A 
ATOM     19  C   UNL     1      10.961  13.061  18.923  0.00  0.00    +0.000 A 
ATOM     20  C   UNL     1      10.263  12.656  20.047  0.00  0.00    +0.000 A 
ATOM     21  C   UNL     1       9.545  11.470  20.045  0.00  0.00    +0.000 A 
BRANCH  18  22
ATOM     22  O   UNL     1      11.693  12.701  16.707  0.00  0.00    +0.000 OA
ATOM     23  H   UNL     1      11.087  12.860  15.963  0.00  0.00    +0.000 HD
ENDBRANCH  18  22
BRANCH  19  24
ATOM     24  O   UNL     1      11.683  14.222  18.965  0.00  0.00    +0.000 OA
ATOM     25  H   UNL     1      11.656  14.488  19.906  0.00  0.00    +0.000 HD
ENDBRANCH  19  24
BRANCH  20  26
ATOM     26  O   UNL     1      10.308  13.408  21.189  0.00  0.00    +0.000 OA
ATOM     27  H   UNL     1      11.006  12.989  21.731  0.00  0.00    +0.000 HD
ENDBRANCH  20  26
ENDBRANCH   2  16
TORSDOF 9
ENDMDL
MODEL 6
REMARK VINA RESULT:      -7.6      1.404      1.756
REMARK  Name = 
REMARK  10 active torsions:
REMARK  status: ('A' for Active; 'I' for Inactive)
REMARK    1  A    between atoms: C_1  and  C_2
REMARK    2  A    between atoms: C_2  and  O_3
REMARK    3  A    between atoms: O_3  and  C_4
REMARK    4  A    between atoms: C_4  and  C_6
REMARK    5  A    between atoms: C_7  and  C_8
REMARK    6  A    between atoms: C_11  and  C_12
REMARK    7  A    between atoms: C_13  and  C_14
REMARK    8  A    between atoms: C_16  and  O_17
REMARK    9  A    between atoms: C_18  and  O_19
REMARK   10  A    between atoms: C_20  and  O_21
REMARK                            x       y       z     vdW  Elec       q    Type
REMARK                         _______ _______ _______ _____ _____    ______ ____
ROOT
ATOM      1  C   UNL     1       8.231   8.791  17.858  0.00  0.00    +0.000 C 
ATOM      2  C   UNL     1       8.908   9.267  18.918  0.00  0.00    +0.000 C 
ENDROOT
BRANCH   1   6
ATOM      3  C   UNL     1       5.889   5.189  17.765  0.00  0.00    +0.000 A 
ATOM      4  C   UNL     1       5.524   6.319  17.030  0.00  0.00    +0.000 A 
ATOM      5  C   UNL     1       6.310   7.474  17.060  0.00  0.00    +0.000 A 
ATOM      6  C   UNL     1       7.466   7.535  17.848  0.00  0.00    +0.000 A 
ATOM      7  C   UNL     1       7.827   6.405  18.590  0.00  0.00    +0.000 A 
ATOM      8  C   UNL     1       7.039   5.247  18.558  0.00  0.00    +0.000 A 
BRANCH   3  10
ATOM      9  C   UNL     1       4.140   3.712  18.690  0.00  0.00    +0.000 C 
ATOM     10  C   UNL     1       5.066   3.974  17.757  0.00  0.00    +0.000 C 
BRANCH   9  11
ATOM     11  C   UNL     1       3.341   2.479  18.604  0.00  0.00    +0.000 C 
ATOM     12  O   UNL     1       3.105   1.865  17.573  0.00  0.00    +0.000 OA
BRANCH  11  13
ATOM     13  O   UNL     1       2.841   2.224  19.838  0.00  0.00    +0.000 OA
BRANCH  13  15
ATOM     14  C   UNL     1       1.556   2.826  21.749  0.00  0.00    +0.000 C 
ATOM     15  C   UNL     1       2.073   3.295  20.400  0.00  0.00    +0.000 C 
ENDBRANCH  13  15
ENDBRANCH  11  13
ENDBRANCH   9  11
ENDBRANCH   3  10
ENDBRANCH   1   6
BRANCH   2  16
ATOM     16  C   UNL     1       9.490  10.620  18.981  0.00  0.00    +0.000 A 
ATOM     17  C   UNL     1      10.135  11.121  17.833  0.00  0.00    +0.000 A 
ATOM     18  C   UNL     1      10.795  12.347  17.883  0.00  0.00    +0.000 A 
ATOM     19  C   UNL     1      10.786  13.096  19.052  0.00  0.00    +0.000 A 
ATOM     20  C   UNL     1      10.128  12.624  20.174  0.00  0.00    +0.000 A 
ATOM     21  C   UNL     1       9.470  11.403  20.148  0.00  0.00    +0.000 A 
BRANCH  18  22
ATOM     22  O   UNL     1      11.497  12.838  16.815  0.00  0.00    +0.000 OA
ATOM     23  H   UNL     1      11.361  13.801  16.782  0.00  0.00    +0.000 HD
ENDBRANCH  18  22
BRANCH  19  24
ATOM     24  O   UNL     1      11.450  14.290  19.117  0.00  0.00    +0.000 OA
ATOM     25  H   UNL     1      10.737  14.961  19.129  0.00  0.00    +0.000 HD
ENDBRANCH  19  24
BRANCH  20  26
ATOM     26  O   UNL     1      10.155  13.343  21.337  0.00  0.00    +0.000 OA
ATOM     27  H   UNL     1       9.224  13.364  21.635  0.00  0.00    +0.000 HD
ENDBRANCH  20  26
ENDBRANCH   2  16
TORSDOF 9
ENDMDL
MODEL 7
REMARK VINA RESULT:      -7.5      1.049      1.519
REMARK  Name = 
REMARK  10 active torsions:
REMARK  status: ('A' for Active; 'I' for Inactive)
REMARK    1  A    between atoms: C_1  and  C_2
REMARK    2  A    between atoms: C_2  and  O_3
REMARK    3  A    between atoms: O_3  and  C_4
REMARK    4  A    between atoms: C_4  and  C_6
REMARK    5  A    between atoms: C_7  and  C_8
REMARK    6  A    between atoms: C_11  and  C_12
REMARK    7  A    between atoms: C_13  and  C_14
REMARK    8  A    between atoms: C_16  and  O_17
REMARK    9  A    between atoms: C_18  and  O_19
REMARK   10  A    between atoms: C_20  and  O_21
REMARK                            x       y       z     vdW  Elec       q    Type
REMARK                         _______ _______ _______ _____ _____    ______ ____
ROOT
ATOM      1  C   UNL     1       8.438   9.316  17.618  0.00  0.00    +0.000 C 
ATOM      2  C   UNL     1       9.124   9.997  18.552  0.00  0.00    +0.000 C 
ENDROOT
BRANCH   1   6
ATOM      3  C   UNL     1       6.465   5.575  18.385  0.00  0.00    +0.000 A 
ATOM      4  C   UNL     1       7.655   5.922  19.030  0.00  0.00    +0.000 A 
ATOM      5  C   UNL     1       8.269   7.152  18.780  0.00  0.00    +0.000 A 
ATOM      6  C   UNL     1       7.723   8.053  17.857  0.00  0.00    +0.000 A 
ATOM      7  C   UNL     1       6.537   7.702  17.206  0.00  0.00    +0.000 A 
ATOM      8  C   UNL     1       5.919   6.469  17.458  0.00  0.00    +0.000 A 
BRANCH   3  10
ATOM      9  C   UNL     1       4.792   4.123  19.474  0.00  0.00    +0.000 C 
ATOM     10  C   UNL     1       5.815   4.282  18.624  0.00  0.00    +0.000 C 
BRANCH   9  11
ATOM     11  C   UNL     1       4.180   2.796  19.646  0.00  0.00    +0.000 C 
ATOM     12  O   UNL     1       4.748   1.816  20.110  0.00  0.00    +0.000 OA
BRANCH  11  13
ATOM     13  O   UNL     1       2.938   2.840  19.107  0.00  0.00    +0.000 OA
BRANCH  13  15
ATOM     14  C   UNL     1       1.035   3.586  20.327  0.00  0.00    +0.000 C 
ATOM     15  C   UNL     1       2.189   4.015  19.438  0.00  0.00    +0.000 C 
ENDBRANCH  13  15
ENDBRANCH  11  13
ENDBRANCH   9  11
ENDBRANCH   3  10
ENDBRANCH   1   6
BRANCH   2  16
ATOM     16  C   UNL     1       9.654  11.358  18.354  0.00  0.00    +0.000 A 
ATOM     17  C   UNL     1       9.032  12.420  19.041  0.00  0.00    +0.000 A 
ATOM     18  C   UNL     1       9.427  13.734  18.798  0.00  0.00    +0.000 A 
ATOM     19  C   UNL     1      10.461  13.998  17.909  0.00  0.00    +0.000 A 
ATOM     20  C   UNL     1      11.097  12.956  17.255  0.00  0.00    +0.000 A 
ATOM     21  C   UNL     1      10.715  11.642  17.478  0.00  0.00    +0.000 A 
BRANCH  18  22
ATOM     22  O   UNL     1       8.803  14.801  19.385  0.00  0.00    +0.000 OA
ATOM     23  H   UNL     1       9.370  15.583  19.271  0.00  0.00    +0.000 HD
ENDBRANCH  18  22
BRANCH  19  24
ATOM     24  O   UNL     1      10.842  15.285  17.648  0.00  0.00    +0.000 OA
ATOM     25  H   UNL     1      10.008  15.736  17.404  0.00  0.00    +0.000 HD
ENDBRANCH  19  24
BRANCH  20  26
ATOM     26  O   UNL     1      12.087  13.220  16.349  0.00  0.00    +0.000 OA
ATOM     27  H   UNL     1      12.739  13.752  16.846  0.00  0.00    +0.000 HD
ENDBRANCH  20  26
ENDBRANCH   2  16
TORSDOF 9
ENDMDL
MODEL 8
REMARK VINA RESULT:      -7.5      1.551      1.914
REMARK  Name = 
REMARK  10 active torsions:
REMARK  status: ('A' for Active; 'I' for Inactive)
REMARK    1  A    between atoms: C_1  and  C_2
REMARK    2  A    between atoms: C_2  and  O_3
REMARK    3  A    between atoms: O_3  and  C_4
REMARK    4  A    between atoms: C_4  and  C_6
REMARK    5  A    between atoms: C_7  and  C_8
REMARK    6  A    between atoms: C_11  and  C_12
REMARK    7  A    between atoms: C_13  and  C_14
REMARK    8  A    between atoms: C_16  and  O_17
REMARK    9  A    between atoms: C_18  and  O_19
REMARK   10  A    between atoms: C_20  and  O_21
REMARK                            x       y       z     vdW  Elec       q    Type
REMARK                         _______ _______ _______ _____ _____    ______ ____
ROOT
ATOM      1  C   UNL     1       8.388   9.050  17.911  0.00  0.00    +0.000 C 
ATOM      2  C   UNL     1       9.037   9.562  18.971  0.00  0.00    +0.000 C 
ENDROOT
BRANCH   1   6
ATOM      3  C   UNL     1       6.193   5.355  17.834  0.00  0.00    +0.000 A 
ATOM      4  C   UNL     1       5.798   6.458  17.073  0.00  0.00    +0.000 A 
ATOM      5  C   UNL     1       6.538   7.644  17.098  0.00  0.00    +0.000 A 
ATOM      6  C   UNL     1       7.674   7.764  17.908  0.00  0.00    +0.000 A 
ATOM      7  C   UNL     1       8.065   6.662  18.675  0.00  0.00    +0.000 A 
ATOM      8  C   UNL     1       7.324   5.472  18.649  0.00  0.00    +0.000 A 
BRANCH   3  10
ATOM      9  C   UNL     1       4.481   3.828  18.747  0.00  0.00    +0.000 C 
ATOM     10  C   UNL     1       5.419   4.109  17.832  0.00  0.00    +0.000 C 
BRANCH   9  11
ATOM     11  C   UNL     1       3.734   2.563  18.666  0.00  0.00    +0.000 C 
ATOM     12  O   UNL     1       4.006   1.546  19.289  0.00  0.00    +0.000 OA
BRANCH  11  13
ATOM     13  O   UNL     1       2.779   2.707  17.715  0.00  0.00    +0.000 OA
BRANCH  13  15
ATOM     14  C   UNL     1       0.708   2.496  18.871  0.00  0.00    +0.000 C 
ATOM     15  C   UNL     1       1.630   3.453  18.136  0.00  0.00    +0.000 C 
ENDBRANCH  13  15
ENDBRANCH  11  13
ENDBRANCH   9  11
ENDBRANCH   3  10
ENDBRANCH   1   6
BRANCH   2  16
ATOM     16  C   UNL     1       9.565  10.938  19.025  0.00  0.00    +0.000 A 
ATOM     17  C   UNL     1      10.100  11.492  17.845  0.00  0.00    +0.000 A 
ATOM     18  C   UNL     1      10.709  12.745  17.877  0.00  0.00    +0.000 A 
ATOM     19  C   UNL     1      10.756  13.467  19.063  0.00  0.00    +0.000 A 
ATOM     20  C   UNL     1      10.204  12.941  20.218  0.00  0.00    +0.000 A 
ATOM     21  C   UNL     1       9.599  11.694  20.210  0.00  0.00    +0.000 A 
BRANCH  18  22
ATOM     22  O   UNL     1      11.307  13.291  16.773  0.00  0.00    +0.000 OA
ATOM     23  H   UNL     1      11.636  12.563  16.218  0.00  0.00    +0.000 HD
ENDBRANCH  18  22
BRANCH  19  24
ATOM     24  O   UNL     1      11.371  14.687  19.109  0.00  0.00    +0.000 OA
ATOM     25  H   UNL     1      11.229  14.994  20.027  0.00  0.00    +0.000 HD
ENDBRANCH  19  24
BRANCH  20  26
ATOM     26  O   UNL     1      10.289  13.635  21.394  0.00  0.00    +0.000 OA
ATOM     27  H   UNL     1      11.033  13.218  21.872  0.00  0.00    +0.000 HD
ENDBRANCH  20  26
ENDBRANCH   2  16
TORSDOF 9
ENDMDL
MODEL 9
REMARK VINA RESULT:      -7.5      0.996      1.404
REMARK  Name = 
REMARK  10 active torsions:
REMARK  status: ('A' for Active; 'I' for Inactive)
REMARK    1  A    between atoms: C_1  and  C_2
REMARK    2  A    between atoms: C_2  and  O_3
REMARK    3  A    between atoms: O_3  and  C_4
REMARK    4  A    between atoms: C_4  and  C_6
REMARK    5  A    between atoms: C_7  and  C_8
REMARK    6  A    between atoms: C_11  and  C_12
REMARK    7  A    between atoms: C_13  and  C_14
REMARK    8  A    between atoms: C_16  and  O_17
REMARK    9  A    between atoms: C_18  and  O_19
REMARK   10  A    between atoms: C_20  and  O_21
REMARK                            x       y       z     vdW  Elec       q    Type
REMARK                         _______ _______ _______ _____ _____    ______ ____
ROOT
ATOM      1  C   UNL     1       7.899   8.836  17.641  0.00  0.00    +0.000 C 
ATOM      2  C   UNL     1       8.741   9.238  18.608  0.00  0.00    +0.000 C 
ENDROOT
BRANCH   1   6
ATOM      3  C   UNL     1       5.749   5.117  17.784  0.00  0.00    +0.000 A 
ATOM      4  C   UNL     1       6.957   5.292  18.464  0.00  0.00    +0.000 A 
ATOM      5  C   UNL     1       7.629   6.516  18.420  0.00  0.00    +0.000 A 
ATOM      6  C   UNL     1       7.124   7.586  17.670  0.00  0.00    +0.000 A 
ATOM      7  C   UNL     1       5.920   7.408  16.983  0.00  0.00    +0.000 A 
ATOM      8  C   UNL     1       5.244   6.181  17.029  0.00  0.00    +0.000 A 
BRANCH   3  10
ATOM      9  C   UNL     1       4.279   3.436  18.837  0.00  0.00    +0.000 C 
ATOM     10  C   UNL     1       5.039   3.834  17.807  0.00  0.00    +0.000 C 
BRANCH   9  11
ATOM     11  C   UNL     1       3.582   2.141  18.777  0.00  0.00    +0.000 C 
ATOM     12  O   UNL     1       3.900   1.205  18.057  0.00  0.00    +0.000 OA
BRANCH  11  13
ATOM     13  O   UNL     1       2.488   2.225  19.572  0.00  0.00    +0.000 OA
BRANCH  13  15
ATOM     14  C   UNL     1       0.959   3.912  20.267  0.00  0.00    +0.000 C 
ATOM     15  C   UNL     1       2.399   3.434  20.335  0.00  0.00    +0.000 C 
ENDBRANCH  13  15
ENDBRANCH  11  13
ENDBRANCH   9  11
ENDBRANCH   3  10
ENDBRANCH   1   6
BRANCH   2  16
ATOM     16  C   UNL     1       9.345  10.581  18.667  0.00  0.00    +0.000 A 
ATOM     17  C   UNL     1       8.702  11.630  17.980  0.00  0.00    +0.000 A 
ATOM     18  C   UNL     1       9.296  12.889  17.916  0.00  0.00    +0.000 A 
ATOM     19  C   UNL     1      10.502  13.125  18.562  0.00  0.00    +0.000 A 
ATOM     20  C   UNL     1      11.124  12.107  19.264  0.00  0.00    +0.000 A 
ATOM     21  C   UNL     1      10.553  10.845  19.335  0.00  0.00    +0.000 A 
BRANCH  18  22
ATOM     22  O   UNL     1       8.744  13.917  17.199  0.00  0.00    +0.000 OA
ATOM     23  H   UNL     1       7.948  14.220  17.669  0.00  0.00    +0.000 HD
ENDBRANCH  18  22
BRANCH  19  24
ATOM     24  O   UNL     1      11.103  14.351  18.486  0.00  0.00    +0.000 OA
ATOM     25  H   UNL     1      11.835  14.220  17.849  0.00  0.00    +0.000 HD
ENDBRANCH  19  24
BRANCH  20  26
ATOM     26  O   UNL     1      12.333  12.329  19.864  0.00  0.00    +0.000 OA
ATOM     27  H   UNL     1      12.614  11.448  20.181  0.00  0.00    +0.000 HD
ENDBRANCH  20  26
ENDBRANCH   2  16
TORSDOF 9
ENDMDL
