MODEL 1
REMARK VINA RESULT:     -10.3      0.000      0.000
REMARK  Name = 
REMARK  9 active torsions:
REMARK  status: ('A' for Active; 'I' for Inactive)
REMARK    1  A    between atoms: C_1  and  C_2
REMARK    2  A    between atoms: C_2  and  C_3
REMARK    3  A    between atoms: C_2  and  C_4
REMARK    4  A    between atoms: C_4  and  O_5
REMARK    5  A    between atoms: O_5  and  C_6
REMARK    6  A    between atoms: C_10  and  C_11
REMARK    7  A    between atoms: N_16  and  C_17
REMARK    8  A    between atoms: C_22  and  C_23
REMARK    9  A    between atoms: N_28  and  C_29
REMARK                            x       y       z     vdW  Elec       q    Type
REMARK                         _______ _______ _______ _____ _____    ______ ____
ROOT
ATOM      1  C   UNL     1       4.275   4.045  18.975  0.00  0.00    +0.000 A 
ATOM      2  C   UNL     1       4.126   2.864  19.670  0.00  0.00    +0.000 A 
ATOM      3  C   UNL     1       3.197   2.863  20.680  0.00  0.00    +0.000 A 
ATOM      4  N   UNL     1       2.465   3.940  21.020  0.00  0.00    +0.000 NA
ATOM      5  C   UNL     1       2.654   5.047  20.290  0.00  0.00    +0.000 A 
ATOM      6  N   UNL     1       1.923   6.175  20.650  0.00  0.00    +0.000 N 
ATOM      7  N   UNL     1       3.538   5.126  19.284  0.00  0.00    +0.000 NA
ATOM      8  H   UNL     1       1.510   6.068  21.563  0.00  0.00    +0.000 HD
ENDROOT
BRANCH   6   9
ATOM      9  C   UNL     1       1.804   7.408  19.996  0.00  0.00    +0.000 A 
ATOM     10  C   UNL     1       2.233   7.531  18.669  0.00  0.00    +0.000 A 
ATOM     11  C   UNL     1       2.074   8.722  17.945  0.00  0.00    +0.000 A 
ATOM     12  C   UNL     1       1.473   9.800  18.601  0.00  0.00    +0.000 A 
ATOM     13  N   UNL     1       1.227  11.081  18.177  0.00  0.00    +0.000 N 
ATOM     14  C   UNL     1       0.584  11.818  19.148  0.00  0.00    +0.000 A 
ATOM     15  C   UNL     1       0.487  10.992  20.255  0.00  0.00    +0.000 A 
ATOM     16  C   UNL     1       1.027   9.724  19.914  0.00  0.00    +0.000 A 
ATOM     17  C   UNL     1       1.198   8.517  20.610  0.00  0.00    +0.000 A 
ATOM     18  H   UNL     1       1.489  11.440  17.270  0.00  0.00    +0.000 HD
BRANCH  14  19
ATOM     19  C   UNL     1       0.201  13.208  19.039  0.00  0.00    +0.000 C 
ATOM     20  O   UNL     1      -0.982  13.540  18.921  0.00  0.00    +0.000 OA
ATOM     21  N   UNL     1       1.220  14.172  19.108  0.00  0.00    +0.000 N 
ATOM     22  C   UNL     1       0.764  15.564  19.073  0.00  0.00    +0.000 C 
ATOM     23  C   UNL     1       1.864  16.566  19.468  0.00  0.00    +0.000 C 
ATOM     24  N   UNL     1       3.152  16.390  18.764  0.00  0.00    +0.000 NA
ATOM     25  C   UNL     1       3.069  16.813  17.367  0.00  0.00    +0.000 C 
ATOM     26  C   UNL     1       3.579  14.985  18.879  0.00  0.00    +0.000 C 
ATOM     27  C   UNL     1       2.520  13.950  18.458  0.00  0.00    +0.000 C 
ENDBRANCH  14  19
ENDBRANCH   6   9
BRANCH   1  32
ATOM     28  C   UNL     1       5.838   4.088  15.519  0.00  0.00    +0.000 A 
ATOM     29  C   UNL     1       7.151   4.349  15.891  0.00  0.00    +0.000 A 
ATOM     30  C   UNL     1       7.428   4.534  17.232  0.00  0.00    +0.000 A 
ATOM     31  N   UNL     1       6.508   4.456  18.203  0.00  0.00    +0.000 NA
ATOM     32  C   UNL     1       5.223   4.184  17.848  0.00  0.00    +0.000 A 
ATOM     33  C   UNL     1       4.857   4.017  16.509  0.00  0.00    +0.000 A 
BRANCH  28  34
ATOM     34  O   UNL     1       5.413   3.884  14.232  0.00  0.00    +0.000 OA
BRANCH  34  35
ATOM     35  C   UNL     1       6.446   3.804  13.242  0.00  0.00    +0.000 C 
BRANCH  35  37
ATOM     36  C   UNL     1       6.362   1.941  11.570  0.00  0.00    +0.000 C 
ATOM     37  C   UNL     1       5.870   3.352  11.896  0.00  0.00    +0.000 C 
ATOM     38  C   UNL     1       4.342   3.395  11.892  0.00  0.00    +0.000 C 
ENDBRANCH  35  37
ENDBRANCH  34  35
ENDBRANCH  28  34
ENDBRANCH   1  32
TORSDOF 6
ENDMDL
MODEL 2
REMARK VINA RESULT:      -9.6      3.943     10.393
REMARK  Name = 
REMARK  9 active torsions:
REMARK  status: ('A' for Active; 'I' for Inactive)
REMARK    1  A    between atoms: C_1  and  C_2
REMARK    2  A    between atoms: C_2  and  C_3
REMARK    3  A    between atoms: C_2  and  C_4
REMARK    4  A    between atoms: C_4  and  O_5
REMARK    5  A    between atoms: O_5  and  C_6
REMARK    6  A    between atoms: C_10  and  C_11
REMARK    7  A    between atoms: N_16  and  C_17
REMARK    8  A    between atoms: C_22  and  C_23
REMARK    9  A    between atoms: N_28  and  C_29
REMARK                            x       y       z     vdW  Elec       q    Type
REMARK                         _______ _______ _______ _____ _____    ______ ____
ROOT
ATOM      1  C   UNL     1      -3.305  12.806  21.340  0.00  0.00    +0.000 A 
ATOM      2  C   UNL     1      -3.461  13.839  22.240  0.00  0.00    +0.000 A 
ATOM      3  C   UNL     1      -2.335  14.234  22.917  0.00  0.00    +0.000 A 
ATOM      4  N   UNL     1      -1.130  13.660  22.759  0.00  0.00    +0.000 NA
ATOM      5  C   UNL     1      -1.052  12.672  21.856  0.00  0.00    +0.000 A 
ATOM      6  N   UNL     1       0.184  12.051  21.704  0.00  0.00    +0.000 N 
ATOM      7  N   UNL     1      -2.104  12.232  21.150  0.00  0.00    +0.000 NA
ATOM      8  H   UNL     1       0.806  12.281  22.462  0.00  0.00    +0.000 HD
ENDROOT
BRANCH   6   9
ATOM      9  C   UNL     1       0.598  11.107  20.754  0.00  0.00    +0.000 A 
ATOM     10  C   UNL     1       0.769  11.497  19.421  0.00  0.00    +0.000 A 
ATOM     11  C   UNL     1       1.247  10.611  18.444  0.00  0.00    +0.000 A 
ATOM     12  C   UNL     1       1.543   9.306  18.847  0.00  0.00    +0.000 A 
ATOM     13  N   UNL     1       1.976   8.223  18.125  0.00  0.00    +0.000 N 
ATOM     14  C   UNL     1       2.169   7.124  18.934  0.00  0.00    +0.000 A 
ATOM     15  C   UNL     1       1.771   7.507  20.203  0.00  0.00    +0.000 A 
ATOM     16  C   UNL     1       1.394   8.874  20.159  0.00  0.00    +0.000 A 
ATOM     17  C   UNL     1       0.916   9.786  21.113  0.00  0.00    +0.000 A 
ATOM     18  H   UNL     1       2.128   8.229  17.127  0.00  0.00    +0.000 HD
BRANCH  14  19
ATOM     19  C   UNL     1       2.596   5.814  18.493  0.00  0.00    +0.000 C 
ATOM     20  O   UNL     1       1.983   4.794  18.823  0.00  0.00    +0.000 OA
ATOM     21  N   UNL     1       3.714   5.744  17.645  0.00  0.00    +0.000 N 
ATOM     22  C   UNL     1       4.050   4.401  17.167  0.00  0.00    +0.000 C 
ATOM     23  C   UNL     1       5.064   4.413  16.009  0.00  0.00    +0.000 C 
ATOM     24  N   UNL     1       6.271   5.233  16.242  0.00  0.00    +0.000 NA
ATOM     25  C   UNL     1       7.170   4.611  17.212  0.00  0.00    +0.000 C 
ATOM     26  C   UNL     1       5.865   6.583  16.671  0.00  0.00    +0.000 C 
ATOM     27  C   UNL     1       4.879   6.617  17.854  0.00  0.00    +0.000 C 
ENDBRANCH  14  19
ENDBRANCH   6   9
BRANCH   1  32
ATOM     28  C   UNL     1      -5.442  11.567  18.462  0.00  0.00    +0.000 A 
ATOM     29  C   UNL     1      -6.656  11.475  19.133  0.00  0.00    +0.000 A 
ATOM     30  C   UNL     1      -6.685  11.781  20.480  0.00  0.00    +0.000 A 
ATOM     31  N   UNL     1      -5.615  12.183  21.178  0.00  0.00    +0.000 NA
ATOM     32  C   UNL     1      -4.426  12.292  20.525  0.00  0.00    +0.000 A 
ATOM     33  C   UNL     1      -4.309  11.969  19.170  0.00  0.00    +0.000 A 
BRANCH  28  34
ATOM     34  O   UNL     1      -5.259  11.297  17.131  0.00  0.00    +0.000 OA
BRANCH  34  35
ATOM     35  C   UNL     1      -3.929  11.488  16.635  0.00  0.00    +0.000 C 
BRANCH  35  37
ATOM     36  C   UNL     1      -2.989  10.128  14.753  0.00  0.00    +0.000 C 
ATOM     37  C   UNL     1      -3.297  10.146  16.252  0.00  0.00    +0.000 C 
ATOM     38  C   UNL     1      -2.028   9.868  17.058  0.00  0.00    +0.000 C 
ENDBRANCH  35  37
ENDBRANCH  34  35
ENDBRANCH  28  34
ENDBRANCH   1  32
TORSDOF 6
ENDMDL
MODEL 3
REMARK VINA RESULT:      -9.5      4.425     10.640
REMARK  Name = 
REMARK  9 active torsions:
REMARK  status: ('A' for Active; 'I' for Inactive)
REMARK    1  A    between atoms: C_1  and  C_2
REMARK    2  A    between atoms: C_2  and  C_3
REMARK    3  A    between atoms: C_2  and  C_4
REMARK    4  A    between atoms: C_4  and  O_5
REMARK    5  A    between atoms: O_5  and  C_6
REMARK    6  A    between atoms: C_10  and  C_11
REMARK    7  A    between atoms: N_16  and  C_17
REMARK    8  A    between atoms: C_22  and  C_23
REMARK    9  A    between atoms: N_28  and  C_29
REMARK                            x       y       z     vdW  Elec       q    Type
REMARK                         _______ _______ _______ _____ _____    ______ ____
ROOT
ATOM      1  C   UNL     1      -4.619  13.284  21.544  0.00  0.00    +0.000 A 
ATOM      2  C   UNL     1      -5.034  14.414  22.216  0.00  0.00    +0.000 A 
ATOM      3  C   UNL     1      -4.213  14.864  23.220  0.00  0.00    +0.000 A 
ATOM      4  N   UNL     1      -3.067  14.255  23.574  0.00  0.00    +0.000 NA
ATOM      5  C   UNL     1      -2.721  13.171  22.865  0.00  0.00    +0.000 A 
ATOM      6  N   UNL     1      -1.552  12.517  23.241  0.00  0.00    +0.000 N 
ATOM      7  N   UNL     1      -3.465  12.673  21.867  0.00  0.00    +0.000 NA
ATOM      8  H   UNL     1      -1.238  12.820  24.150  0.00  0.00    +0.000 HD
ENDROOT
BRANCH   6   9
ATOM      9  C   UNL     1      -0.874  11.466  22.609  0.00  0.00    +0.000 A 
ATOM     10  C   UNL     1      -0.882  10.192  23.187  0.00  0.00    +0.000 A 
ATOM     11  C   UNL     1      -0.279   9.090  22.562  0.00  0.00    +0.000 A 
ATOM     12  C   UNL     1       0.345   9.309  21.330  0.00  0.00    +0.000 A 
ATOM     13  N   UNL     1       1.044   8.454  20.517  0.00  0.00    +0.000 N 
ATOM     14  C   UNL     1       1.472   9.088  19.370  0.00  0.00    +0.000 A 
ATOM     15  C   UNL     1       1.092  10.413  19.500  0.00  0.00    +0.000 A 
ATOM     16  C   UNL     1       0.374  10.554  20.716  0.00  0.00    +0.000 A 
ATOM     17  C   UNL     1      -0.241  11.636  21.366  0.00  0.00    +0.000 A 
ATOM     18  H   UNL     1       1.227   7.485  20.733  0.00  0.00    +0.000 HD
BRANCH  14  19
ATOM     19  C   UNL     1       2.256   8.486  18.314  0.00  0.00    +0.000 C 
ATOM     20  O   UNL     1       2.346   9.015  17.202  0.00  0.00    +0.000 OA
ATOM     21  N   UNL     1       2.940   7.295  18.608  0.00  0.00    +0.000 N 
ATOM     22  C   UNL     1       3.781   6.777  17.526  0.00  0.00    +0.000 C 
ATOM     23  C   UNL     1       4.743   5.670  17.991  0.00  0.00    +0.000 C 
ATOM     24  N   UNL     1       4.116   4.583  18.771  0.00  0.00    +0.000 NA
ATOM     25  C   UNL     1       3.297   3.713  17.928  0.00  0.00    +0.000 C 
ATOM     26  C   UNL     1       3.328   5.166  19.871  0.00  0.00    +0.000 C 
ATOM     27  C   UNL     1       2.325   6.253  19.442  0.00  0.00    +0.000 C 
ENDBRANCH  14  19
ENDBRANCH   6   9
BRANCH   1  32
ATOM     28  C   UNL     1      -5.609  11.540  18.324  0.00  0.00    +0.000 A 
ATOM     29  C   UNL     1      -6.973  11.803  18.360  0.00  0.00    +0.000 A 
ATOM     30  C   UNL     1      -7.480  12.490  19.447  0.00  0.00    +0.000 A 
ATOM     31  N   UNL     1      -6.731  12.940  20.462  0.00  0.00    +0.000 NA
ATOM     32  C   UNL     1      -5.392  12.701  20.426  0.00  0.00    +0.000 A 
ATOM     33  C   UNL     1      -4.808  11.985  19.377  0.00  0.00    +0.000 A 
BRANCH  28  34
ATOM     34  O   UNL     1      -4.965  10.872  17.315  0.00  0.00    +0.000 OA
BRANCH  34  35
ATOM     35  C   UNL     1      -3.894  10.013  17.724  0.00  0.00    +0.000 C 
BRANCH  35  37
ATOM     36  C   UNL     1      -3.067  10.985  15.569  0.00  0.00    +0.000 C 
ATOM     37  C   UNL     1      -2.848   9.887  16.611  0.00  0.00    +0.000 C 
ATOM     38  C   UNL     1      -1.424   9.956  17.164  0.00  0.00    +0.000 C 
ENDBRANCH  35  37
ENDBRANCH  34  35
ENDBRANCH  28  34
ENDBRANCH   1  32
TORSDOF 6
ENDMDL
MODEL 4
REMARK VINA RESULT:      -9.3      2.353      3.160
REMARK  Name = 
REMARK  9 active torsions:
REMARK  status: ('A' for Active; 'I' for Inactive)
REMARK    1  A    between atoms: C_1  and  C_2
REMARK    2  A    between atoms: C_2  and  C_3
REMARK    3  A    between atoms: C_2  and  C_4
REMARK    4  A    between atoms: C_4  and  O_5
REMARK    5  A    between atoms: O_5  and  C_6
REMARK    6  A    between atoms: C_10  and  C_11
REMARK    7  A    between atoms: N_16  and  C_17
REMARK    8  A    between atoms: C_22  and  C_23
REMARK    9  A    between atoms: N_28  and  C_29
REMARK                            x       y       z     vdW  Elec       q    Type
REMARK                         _______ _______ _______ _____ _____    ______ ____
ROOT
ATOM      1  C   UNL     1       4.382   4.451  18.850  0.00  0.00    +0.000 A 
ATOM      2  C   UNL     1       4.278   3.110  19.153  0.00  0.00    +0.000 A 
ATOM      3  C   UNL     1       3.280   2.757  20.027  0.00  0.00    +0.000 A 
ATOM      4  N   UNL     1       2.440   3.641  20.595  0.00  0.00    +0.000 NA
ATOM      5  C   UNL     1       2.593   4.925  20.240  0.00  0.00    +0.000 A 
ATOM      6  N   UNL     1       1.747   5.851  20.843  0.00  0.00    +0.000 N 
ATOM      7  N   UNL     1       3.538   5.348  19.389  0.00  0.00    +0.000 NA
ATOM      8  H   UNL     1       1.279   5.455  21.642  0.00  0.00    +0.000 HD
ENDROOT
BRANCH   6   9
ATOM      9  C   UNL     1       1.577   7.215  20.568  0.00  0.00    +0.000 A 
ATOM     10  C   UNL     1       1.835   7.697  19.280  0.00  0.00    +0.000 A 
ATOM     11  C   UNL     1       1.616   9.039  18.932  0.00  0.00    +0.000 A 
ATOM     12  C   UNL     1       1.131   9.891  19.928  0.00  0.00    +0.000 A 
ATOM     13  N   UNL     1       0.866  11.237  19.901  0.00  0.00    +0.000 N 
ATOM     14  C   UNL     1       0.371  11.676  21.111  0.00  0.00    +0.000 A 
ATOM     15  C   UNL     1       0.395  10.579  21.956  0.00  0.00    +0.000 A 
ATOM     16  C   UNL     1       0.855   9.458  21.218  0.00  0.00    +0.000 A 
ATOM     17  C   UNL     1       1.083   8.109  21.533  0.00  0.00    +0.000 A 
ATOM     18  H   UNL     1       1.018  11.832  19.100  0.00  0.00    +0.000 HD
BRANCH  14  19
ATOM     19  C   UNL     1       0.013  13.040  21.433  0.00  0.00    +0.000 C 
ATOM     20  O   UNL     1       0.837  13.822  21.915  0.00  0.00    +0.000 OA
ATOM     21  N   UNL     1      -1.299  13.454  21.146  0.00  0.00    +0.000 N 
ATOM     22  C   UNL     1      -1.579  14.866  21.419  0.00  0.00    +0.000 C 
ATOM     23  C   UNL     1      -2.905  15.344  20.801  0.00  0.00    +0.000 C 
ATOM     24  N   UNL     1      -4.073  14.485  21.085  0.00  0.00    +0.000 NA
ATOM     25  C   UNL     1      -4.512  14.608  22.474  0.00  0.00    +0.000 C 
ATOM     26  C   UNL     1      -3.744  13.091  20.743  0.00  0.00    +0.000 C 
ATOM     27  C   UNL     1      -2.443  12.560  21.373  0.00  0.00    +0.000 C 
ENDBRANCH  14  19
ENDBRANCH   6   9
BRANCH   1  32
ATOM     28  C   UNL     1       6.626   4.957  15.834  0.00  0.00    +0.000 A 
ATOM     29  C   UNL     1       7.421   5.978  16.339  0.00  0.00    +0.000 A 
ATOM     30  C   UNL     1       7.145   6.458  17.605  0.00  0.00    +0.000 A 
ATOM     31  N   UNL     1       6.168   5.983  18.388  0.00  0.00    +0.000 NA
ATOM     32  C   UNL     1       5.396   4.971  17.907  0.00  0.00    +0.000 A 
ATOM     33  C   UNL     1       5.591   4.453  16.623  0.00  0.00    +0.000 A 
BRANCH  28  34
ATOM     34  O   UNL     1       6.779   4.381  14.599  0.00  0.00    +0.000 OA
BRANCH  34  35
ATOM     35  C   UNL     1       5.566   4.085  13.897  0.00  0.00    +0.000 C 
BRANCH  35  37
ATOM     36  C   UNL     1       4.623   3.309  11.710  0.00  0.00    +0.000 C 
ATOM     37  C   UNL     1       5.862   3.313  12.607  0.00  0.00    +0.000 C 
ATOM     38  C   UNL     1       7.058   3.902  11.859  0.00  0.00    +0.000 C 
ENDBRANCH  35  37
ENDBRANCH  34  35
ENDBRANCH  28  34
ENDBRANCH   1  32
TORSDOF 6
ENDMDL
MODEL 5
REMARK VINA RESULT:      -9.3      1.780      2.289
REMARK  Name = 
REMARK  9 active torsions:
REMARK  status: ('A' for Active; 'I' for Inactive)
REMARK    1  A    between atoms: C_1  and  C_2
REMARK    2  A    between atoms: C_2  and  C_3
REMARK    3  A    between atoms: C_2  and  C_4
REMARK    4  A    between atoms: C_4  and  O_5
REMARK    5  A    between atoms: O_5  and  C_6
REMARK    6  A    between atoms: C_10  and  C_11
REMARK    7  A    between atoms: N_16  and  C_17
REMARK    8  A    between atoms: C_22  and  C_23
REMARK    9  A    between atoms: N_28  and  C_29
REMARK                            x       y       z     vdW  Elec       q    Type
REMARK                         _______ _______ _______ _____ _____    ______ ____
ROOT
ATOM      1  C   UNL     1       4.323   4.312  18.758  0.00  0.00    +0.000 A 
ATOM      2  C   UNL     1       4.248   3.088  19.389  0.00  0.00    +0.000 A 
ATOM      3  C   UNL     1       3.359   2.992  20.430  0.00  0.00    +0.000 A 
ATOM      4  N   UNL     1       2.599   4.016  20.858  0.00  0.00    +0.000 NA
ATOM      5  C   UNL     1       2.716   5.170  20.186  0.00  0.00    +0.000 A 
ATOM      6  N   UNL     1       1.955   6.244  20.638  0.00  0.00    +0.000 N 
ATOM      7  N   UNL     1       3.556   5.342  19.155  0.00  0.00    +0.000 NA
ATOM      8  H   UNL     1       1.583   6.069  21.558  0.00  0.00    +0.000 HD
ENDROOT
BRANCH   6   9
ATOM      9  C   UNL     1       1.762   7.506  20.060  0.00  0.00    +0.000 A 
ATOM     10  C   UNL     1       2.221   7.749  18.761  0.00  0.00    +0.000 A 
ATOM     11  C   UNL     1       1.994   8.971  18.110  0.00  0.00    +0.000 A 
ATOM     12  C   UNL     1       1.292   9.954  18.812  0.00  0.00    +0.000 A 
ATOM     13  N   UNL     1       0.963  11.240  18.462  0.00  0.00    +0.000 N 
ATOM     14  C   UNL     1       0.235  11.859  19.456  0.00  0.00    +0.000 A 
ATOM     15  C   UNL     1       0.168  10.956  20.503  0.00  0.00    +0.000 A 
ATOM     16  C   UNL     1       0.813   9.758  20.101  0.00  0.00    +0.000 A 
ATOM     17  C   UNL     1       1.055   8.523  20.723  0.00  0.00    +0.000 A 
ATOM     18  H   UNL     1       1.223  11.677  17.591  0.00  0.00    +0.000 HD
BRANCH  14  19
ATOM     19  C   UNL     1      -0.250  13.222  19.423  0.00  0.00    +0.000 C 
ATOM     20  O   UNL     1      -0.244  13.880  18.378  0.00  0.00    +0.000 OA
ATOM     21  N   UNL     1      -0.761  13.760  20.616  0.00  0.00    +0.000 N 
ATOM     22  C   UNL     1      -1.311  15.114  20.502  0.00  0.00    +0.000 C 
ATOM     23  C   UNL     1      -2.135  15.531  21.733  0.00  0.00    +0.000 C 
ATOM     24  N   UNL     1      -1.470  15.314  23.034  0.00  0.00    +0.000 NA
ATOM     25  C   UNL     1      -0.388  16.271  23.257  0.00  0.00    +0.000 C 
ATOM     26  C   UNL     1      -0.985  13.925  23.105  0.00  0.00    +0.000 C 
ATOM     27  C   UNL     1      -0.124  13.478  21.910  0.00  0.00    +0.000 C 
ENDBRANCH  14  19
ENDBRANCH   6   9
BRANCH   1  32
ATOM     28  C   UNL     1       6.012   4.157  15.365  0.00  0.00    +0.000 A 
ATOM     29  C   UNL     1       7.067   5.024  15.621  0.00  0.00    +0.000 A 
ATOM     30  C   UNL     1       7.131   5.629  16.861  0.00  0.00    +0.000 A 
ATOM     31  N   UNL     1       6.247   5.414  17.844  0.00  0.00    +0.000 NA
ATOM     32  C   UNL     1       5.221   4.553  17.607  0.00  0.00    +0.000 A 
ATOM     33  C   UNL     1       5.068   3.927  16.367  0.00  0.00    +0.000 A 
BRANCH  28  34
ATOM     34  O   UNL     1       5.816   3.485  14.185  0.00  0.00    +0.000 OA
BRANCH  34  35
ATOM     35  C   UNL     1       6.640   3.901  13.090  0.00  0.00    +0.000 C 
BRANCH  35  37
ATOM     36  C   UNL     1       6.716   2.023  11.434  0.00  0.00    +0.000 C 
ATOM     37  C   UNL     1       6.081   3.375  11.763  0.00  0.00    +0.000 C 
ATOM     38  C   UNL     1       4.558   3.251  11.802  0.00  0.00    +0.000 C 
ENDBRANCH  35  37
ENDBRANCH  34  35
ENDBRANCH  28  34
ENDBRANCH   1  32
TORSDOF 6
ENDMDL
MODEL 6
REMARK VINA RESULT:      -9.2      4.340     10.871
REMARK  Name = 
REMARK  9 active torsions:
REMARK  status: ('A' for Active; 'I' for Inactive)
REMARK    1  A    between atoms: C_1  and  C_2
REMARK    2  A    between atoms: C_2  and  C_3
REMARK    3  A    between atoms: C_2  and  C_4
REMARK    4  A    between atoms: C_4  and  O_5
REMARK    5  A    between atoms: O_5  and  C_6
REMARK    6  A    between atoms: C_10  and  C_11
REMARK    7  A    between atoms: N_16  and  C_17
REMARK    8  A    between atoms: C_22  and  C_23
REMARK    9  A    between atoms: N_28  and  C_29
REMARK                            x       y       z     vdW  Elec       q    Type
REMARK                         _______ _______ _______ _____ _____    ______ ____
ROOT
ATOM      1  C   UNL     1      -4.468  12.641  21.329  0.00  0.00    +0.000 A 
ATOM      2  C   UNL     1      -4.909  13.469  22.340  0.00  0.00    +0.000 A 
ATOM      3  C   UNL     1      -4.037  13.682  23.379  0.00  0.00    +0.000 A 
ATOM      4  N   UNL     1      -2.818  13.117  23.456  0.00  0.00    +0.000 NA
ATOM      5  C   UNL     1      -2.454  12.336  22.429  0.00  0.00    +0.000 A 
ATOM      6  N   UNL     1      -1.207  11.725  22.512  0.00  0.00    +0.000 N 
ATOM      7  N   UNL     1      -3.245  12.085  21.376  0.00  0.00    +0.000 NA
ATOM      8  H   UNL     1      -0.835  11.775  23.447  0.00  0.00    +0.000 HD
ENDROOT
BRANCH   6   9
ATOM      9  C   UNL     1      -0.509  10.987  21.546  0.00  0.00    +0.000 A 
ATOM     10  C   UNL     1      -0.357  11.507  20.256  0.00  0.00    +0.000 A 
ATOM     11  C   UNL     1       0.390  10.843  19.272  0.00  0.00    +0.000 A 
ATOM     12  C   UNL     1       0.980   9.626  19.622  0.00  0.00    +0.000 A 
ATOM     13  N   UNL     1       1.717   8.741  18.876  0.00  0.00    +0.000 N 
ATOM     14  C   UNL     1       2.129   7.666  19.634  0.00  0.00    +0.000 A 
ATOM     15  C   UNL     1       1.568   7.842  20.887  0.00  0.00    +0.000 A 
ATOM     16  C   UNL     1       0.861   9.072  20.890  0.00  0.00    +0.000 A 
ATOM     17  C   UNL     1       0.109   9.763  21.854  0.00  0.00    +0.000 A 
ATOM     18  H   UNL     1       1.927   8.860  17.896  0.00  0.00    +0.000 HD
BRANCH  14  19
ATOM     19  C   UNL     1       2.901   6.540  19.154  0.00  0.00    +0.000 C 
ATOM     20  O   UNL     1       3.785   6.684  18.304  0.00  0.00    +0.000 OA
ATOM     21  N   UNL     1       2.634   5.281  19.716  0.00  0.00    +0.000 N 
ATOM     22  C   UNL     1       3.500   4.195  19.250  0.00  0.00    +0.000 C 
ATOM     23  C   UNL     1       3.386   2.925  20.112  0.00  0.00    +0.000 C 
ATOM     24  N   UNL     1       2.006   2.460  20.362  0.00  0.00    +0.000 NA
ATOM     25  C   UNL     1       1.406   1.874  19.164  0.00  0.00    +0.000 C 
ATOM     26  C   UNL     1       1.201   3.583  20.874  0.00  0.00    +0.000 C 
ATOM     27  C   UNL     1       1.258   4.863  20.020  0.00  0.00    +0.000 C 
ENDBRANCH  14  19
ENDBRANCH   6   9
BRANCH   1  32
ATOM     28  C   UNL     1      -5.607  11.729  17.828  0.00  0.00    +0.000 A 
ATOM     29  C   UNL     1      -6.968  11.959  17.989  0.00  0.00    +0.000 A 
ATOM     30  C   UNL     1      -7.424  12.352  19.233  0.00  0.00    +0.000 A 
ATOM     31  N   UNL     1      -6.628  12.547  20.293  0.00  0.00    +0.000 NA
ATOM     32  C   UNL     1      -5.292  12.341  20.139  0.00  0.00    +0.000 A 
ATOM     33  C   UNL     1      -4.758  11.911  18.921  0.00  0.00    +0.000 A 
BRANCH  28  34
ATOM     34  O   UNL     1      -5.010  11.337  16.658  0.00  0.00    +0.000 OA
BRANCH  34  35
ATOM     35  C   UNL     1      -3.645  11.738  16.491  0.00  0.00    +0.000 C 
BRANCH  35  37
ATOM     36  C   UNL     1      -2.423   9.569  16.768  0.00  0.00    +0.000 C 
ATOM     37  C   UNL     1      -2.846  10.648  15.769  0.00  0.00    +0.000 C 
ATOM     38  C   UNL     1      -3.645  10.027  14.624  0.00  0.00    +0.000 C 
ENDBRANCH  35  37
ENDBRANCH  34  35
ENDBRANCH  28  34
ENDBRANCH   1  32
TORSDOF 6
ENDMDL
MODEL 7
REMARK VINA RESULT:      -9.2      2.439      3.268
REMARK  Name = 
REMARK  9 active torsions:
REMARK  status: ('A' for Active; 'I' for Inactive)
REMARK    1  A    between atoms: C_1  and  C_2
REMARK    2  A    between atoms: C_2  and  C_3
REMARK    3  A    between atoms: C_2  and  C_4
REMARK    4  A    between atoms: C_4  and  O_5
REMARK    5  A    between atoms: O_5  and  C_6
REMARK    6  A    between atoms: C_10  and  C_11
REMARK    7  A    between atoms: N_16  and  C_17
REMARK    8  A    between atoms: C_22  and  C_23
REMARK    9  A    between atoms: N_28  and  C_29
REMARK                            x       y       z     vdW  Elec       q    Type
REMARK                         _______ _______ _______ _____ _____    ______ ____
ROOT
ATOM      1  C   UNL     1       3.825   4.285  18.083  0.00  0.00    +0.000 A 
ATOM      2  C   UNL     1       3.799   2.957  18.452  0.00  0.00    +0.000 A 
ATOM      3  C   UNL     1       3.094   2.652  19.589  0.00  0.00    +0.000 A 
ATOM      4  N   UNL     1       2.464   3.571  20.344  0.00  0.00    +0.000 NA
ATOM      5  C   UNL     1       2.521   4.839  19.915  0.00  0.00    +0.000 A 
ATOM      6  N   UNL     1       1.897   5.801  20.703  0.00  0.00    +0.000 N 
ATOM      7  N   UNL     1       3.183   5.216  18.812  0.00  0.00    +0.000 NA
ATOM      8  H   UNL     1       1.676   5.440  21.617  0.00  0.00    +0.000 HD
ENDROOT
BRANCH   6   9
ATOM      9  C   UNL     1       1.668   7.159  20.440  0.00  0.00    +0.000 A 
ATOM     10  C   UNL     1       1.832   7.648  19.139  0.00  0.00    +0.000 A 
ATOM     11  C   UNL     1       1.551   8.982  18.807  0.00  0.00    +0.000 A 
ATOM     12  C   UNL     1       1.103   9.820  19.831  0.00  0.00    +0.000 A 
ATOM     13  N   UNL     1       0.796  11.157  19.822  0.00  0.00    +0.000 N 
ATOM     14  C   UNL     1       0.363  11.581  21.061  0.00  0.00    +0.000 A 
ATOM     15  C   UNL     1       0.473  10.487  21.901  0.00  0.00    +0.000 A 
ATOM     16  C   UNL     1       0.920   9.380  21.135  0.00  0.00    +0.000 A 
ATOM     17  C   UNL     1       1.208   8.038  21.434  0.00  0.00    +0.000 A 
ATOM     18  H   UNL     1       0.880  11.755  19.014  0.00  0.00    +0.000 HD
BRANCH  14  19
ATOM     19  C   UNL     1      -0.016  12.934  21.406  0.00  0.00    +0.000 C 
ATOM     20  O   UNL     1       0.801  13.727  21.883  0.00  0.00    +0.000 OA
ATOM     21  N   UNL     1      -1.340  13.326  21.146  0.00  0.00    +0.000 N 
ATOM     22  C   UNL     1      -1.643  14.729  21.441  0.00  0.00    +0.000 C 
ATOM     23  C   UNL     1      -2.988  15.189  20.852  0.00  0.00    +0.000 C 
ATOM     24  N   UNL     1      -4.134  14.304  21.145  0.00  0.00    +0.000 NA
ATOM     25  C   UNL     1      -4.551  14.401  22.543  0.00  0.00    +0.000 C 
ATOM     26  C   UNL     1      -3.784  12.920  20.780  0.00  0.00    +0.000 C 
ATOM     27  C   UNL     1      -2.462  12.407  21.381  0.00  0.00    +0.000 C 
ENDBRANCH  14  19
ENDBRANCH   6   9
BRANCH   1  32
ATOM     28  C   UNL     1       5.836   4.433  14.871  0.00  0.00    +0.000 A 
ATOM     29  C   UNL     1       5.906   5.814  14.736  0.00  0.00    +0.000 A 
ATOM     30  C   UNL     1       5.260   6.597  15.673  0.00  0.00    +0.000 A 
ATOM     31  N   UNL     1       4.585   6.106  16.721  0.00  0.00    +0.000 NA
ATOM     32  C   UNL     1       4.526   4.755  16.870  0.00  0.00    +0.000 A 
ATOM     33  C   UNL     1       5.127   3.894  15.946  0.00  0.00    +0.000 A 
BRANCH  28  34
ATOM     34  O   UNL     1       6.425   3.531  14.023  0.00  0.00    +0.000 OA
BRANCH  34  35
ATOM     35  C   UNL     1       6.176   3.737  12.627  0.00  0.00    +0.000 C 
BRANCH  35  37
ATOM     36  C   UNL     1       4.161   3.260  11.218  0.00  0.00    +0.000 C 
ATOM     37  C   UNL     1       5.266   2.636  12.072  0.00  0.00    +0.000 C 
ATOM     38  C   UNL     1       6.053   1.611  11.256  0.00  0.00    +0.000 C 
ENDBRANCH  35  37
ENDBRANCH  34  35
ENDBRANCH  28  34
ENDBRANCH   1  32
TORSDOF 6
ENDMDL
MODEL 8
REMARK VINA RESULT:      -9.1      4.124      7.509
REMARK  Name = 
REMARK  9 active torsions:
REMARK  status: ('A' for Active; 'I' for Inactive)
REMARK    1  A    between atoms: C_1  and  C_2
REMARK    2  A    between atoms: C_2  and  C_3
REMARK    3  A    between atoms: C_2  and  C_4
REMARK    4  A    between atoms: C_4  and  O_5
REMARK    5  A    between atoms: O_5  and  C_6
REMARK    6  A    between atoms: C_10  and  C_11
REMARK    7  A    between atoms: N_16  and  C_17
REMARK    8  A    between atoms: C_22  and  C_23
REMARK    9  A    between atoms: N_28  and  C_29
REMARK                            x       y       z     vdW  Elec       q    Type
REMARK                         _______ _______ _______ _____ _____    ______ ____
ROOT
ATOM      1  C   UNL     1       0.415  10.471  18.649  0.00  0.00    +0.000 A 
ATOM      2  C   UNL     1      -0.883  10.376  18.193  0.00  0.00    +0.000 A 
ATOM      3  C   UNL     1      -1.541  11.561  17.977  0.00  0.00    +0.000 A 
ATOM      4  N   UNL     1      -0.996  12.769  18.203  0.00  0.00    +0.000 NA
ATOM      5  C   UNL     1       0.274  12.782  18.631  0.00  0.00    +0.000 A 
ATOM      6  N   UNL     1       0.840  14.026  18.894  0.00  0.00    +0.000 N 
ATOM      7  N   UNL     1       0.987  11.670  18.860  0.00  0.00    +0.000 NA
ATOM      8  H   UNL     1       0.136  14.746  18.943  0.00  0.00    +0.000 HD
ENDROOT
BRANCH   6   9
ATOM      9  C   UNL     1       2.166  14.355  19.207  0.00  0.00    +0.000 A 
ATOM     10  C   UNL     1       2.529  14.567  20.541  0.00  0.00    +0.000 A 
ATOM     11  C   UNL     1       3.855  14.831  20.916  0.00  0.00    +0.000 A 
ATOM     12  C   UNL     1       4.814  14.884  19.901  0.00  0.00    +0.000 A 
ATOM     13  N   UNL     1       6.156  15.161  19.952  0.00  0.00    +0.000 N 
ATOM     14  C   UNL     1       6.734  15.079  18.702  0.00  0.00    +0.000 A 
ATOM     15  C   UNL     1       5.702  14.814  17.819  0.00  0.00    +0.000 A 
ATOM     16  C   UNL     1       4.502  14.676  18.563  0.00  0.00    +0.000 A 
ATOM     17  C   UNL     1       3.166  14.411  18.221  0.00  0.00    +0.000 A 
ATOM     18  H   UNL     1       6.657  15.399  20.795  0.00  0.00    +0.000 HD
BRANCH  14  19
ATOM     19  C   UNL     1       8.124  15.336  18.396  0.00  0.00    +0.000 C 
ATOM     20  O   UNL     1       8.473  16.367  17.814  0.00  0.00    +0.000 OA
ATOM     21  N   UNL     1       9.070  14.385  18.814  0.00  0.00    +0.000 N 
ATOM     22  C   UNL     1      10.467  14.737  18.548  0.00  0.00    +0.000 C 
ATOM     23  C   UNL     1      11.465  13.836  19.296  0.00  0.00    +0.000 C 
ATOM     24  N   UNL     1      11.226  12.385  19.155  0.00  0.00    +0.000 NA
ATOM     25  C   UNL     1      11.575  11.905  17.818  0.00  0.00    +0.000 C 
ATOM     26  C   UNL     1       9.821  12.091  19.484  0.00  0.00    +0.000 C 
ATOM     27  C   UNL     1       8.787  12.945  18.728  0.00  0.00    +0.000 C 
ENDBRANCH  14  19
ENDBRANCH   6   9
BRANCH   1  32
ATOM     28  C   UNL     1       2.794   7.543  18.255  0.00  0.00    +0.000 A 
ATOM     29  C   UNL     1       2.633   6.977  19.513  0.00  0.00    +0.000 A 
ATOM     30  C   UNL     1       1.797   7.609  20.414  0.00  0.00    +0.000 A 
ATOM     31  N   UNL     1       1.113   8.728  20.140  0.00  0.00    +0.000 NA
ATOM     32  C   UNL     1       1.252   9.279  18.904  0.00  0.00    +0.000 A 
ATOM     33  C   UNL     1       2.104   8.717  17.949  0.00  0.00    +0.000 A 
BRANCH  28  34
ATOM     34  O   UNL     1       3.587   7.032  17.260  0.00  0.00    +0.000 OA
BRANCH  34  35
ATOM     35  C   UNL     1       4.141   5.735  17.512  0.00  0.00    +0.000 C 
BRANCH  35  37
ATOM     36  C   UNL     1       5.416   5.685  15.356  0.00  0.00    +0.000 C 
ATOM     37  C   UNL     1       5.531   5.609  16.880  0.00  0.00    +0.000 C 
ATOM     38  C   UNL     1       6.485   6.687  17.395  0.00  0.00    +0.000 C 
ENDBRANCH  35  37
ENDBRANCH  34  35
ENDBRANCH  28  34
ENDBRANCH   1  32
TORSDOF 6
ENDMDL
MODEL 9
REMARK VINA RESULT:      -9.1      4.313      7.945
REMARK  Name = 
REMARK  9 active torsions:
REMARK  status: ('A' for Active; 'I' for Inactive)
REMARK    1  A    between atoms: C_1  and  C_2
REMARK    2  A    between atoms: C_2  and  C_3
REMARK    3  A    between atoms: C_2  and  C_4
REMARK    4  A    between atoms: C_4  and  O_5
REMARK    5  A    between atoms: O_5  and  C_6
REMARK    6  A    between atoms: C_10  and  C_11
REMARK    7  A    between atoms: N_16  and  C_17
REMARK    8  A    between atoms: C_22  and  C_23
REMARK    9  A    between atoms: N_28  and  C_29
REMARK                            x       y       z     vdW  Elec       q    Type
REMARK                         _______ _______ _______ _____ _____    ______ ____
ROOT
ATOM      1  C   UNL     1       0.422  10.442  18.511  0.00  0.00    +0.000 A 
ATOM      2  C   UNL     1      -0.902  10.382  18.128  0.00  0.00    +0.000 A 
ATOM      3  C   UNL     1      -1.579  11.575  18.083  0.00  0.00    +0.000 A 
ATOM      4  N   UNL     1      -1.027  12.758  18.405  0.00  0.00    +0.000 NA
ATOM      5  C   UNL     1       0.268  12.740  18.753  0.00  0.00    +0.000 A 
ATOM      6  N   UNL     1       0.842  13.954  19.115  0.00  0.00    +0.000 N 
ATOM      7  N   UNL     1       0.999  11.618  18.816  0.00  0.00    +0.000 NA
ATOM      8  H   UNL     1       0.139  14.656  19.285  0.00  0.00    +0.000 HD
ENDROOT
BRANCH   6   9
ATOM      9  C   UNL     1       2.183  14.264  19.379  0.00  0.00    +0.000 A 
ATOM     10  C   UNL     1       2.617  14.383  20.705  0.00  0.00    +0.000 A 
ATOM     11  C   UNL     1       3.961  14.623  21.027  0.00  0.00    +0.000 A 
ATOM     12  C   UNL     1       4.865  14.748  19.968  0.00  0.00    +0.000 A 
ATOM     13  N   UNL     1       6.209  15.024  19.967  0.00  0.00    +0.000 N 
ATOM     14  C   UNL     1       6.720  15.030  18.687  0.00  0.00    +0.000 A 
ATOM     15  C   UNL     1       5.642  14.825  17.843  0.00  0.00    +0.000 A 
ATOM     16  C   UNL     1       4.483  14.633  18.638  0.00  0.00    +0.000 A 
ATOM     17  C   UNL     1       3.130  14.390  18.349  0.00  0.00    +0.000 A 
ATOM     18  H   UNL     1       6.753  15.203  20.798  0.00  0.00    +0.000 HD
BRANCH  14  19
ATOM     19  C   UNL     1       8.092  15.310  18.326  0.00  0.00    +0.000 C 
ATOM     20  O   UNL     1       8.390  16.306  17.659  0.00  0.00    +0.000 OA
ATOM     21  N   UNL     1       9.081  14.427  18.791  0.00  0.00    +0.000 N 
ATOM     22  C   UNL     1      10.458  14.806  18.463  0.00  0.00    +0.000 C 
ATOM     23  C   UNL     1      11.506  14.000  19.251  0.00  0.00    +0.000 C 
ATOM     24  N   UNL     1      11.316  12.535  19.227  0.00  0.00    +0.000 NA
ATOM     25  C   UNL     1      11.652  11.966  17.923  0.00  0.00    +0.000 C 
ATOM     26  C   UNL     1       9.931  12.219  19.614  0.00  0.00    +0.000 C 
ATOM     27  C   UNL     1       8.849  12.976  18.822  0.00  0.00    +0.000 C 
ENDBRANCH  14  19
ENDBRANCH   6   9
BRANCH   1  32
ATOM     28  C   UNL     1       2.113   7.242  19.644  0.00  0.00    +0.000 A 
ATOM     29  C   UNL     1       3.046   7.130  18.621  0.00  0.00    +0.000 A 
ATOM     30  C   UNL     1       3.033   8.077  17.615  0.00  0.00    +0.000 A 
ATOM     31  N   UNL     1       2.185   9.113  17.576  0.00  0.00    +0.000 NA
ATOM     32  C   UNL     1       1.279   9.239  18.583  0.00  0.00    +0.000 A 
ATOM     33  C   UNL     1       1.208   8.304  19.619  0.00  0.00    +0.000 A 
BRANCH  28  34
ATOM     34  O   UNL     1       2.006   6.381  20.706  0.00  0.00    +0.000 OA
BRANCH  34  35
ATOM     35  C   UNL     1       2.541   5.069  20.498  0.00  0.00    +0.000 C 
BRANCH  35  37
ATOM     36  C   UNL     1       0.816   3.480  19.617  0.00  0.00    +0.000 C 
ATOM     37  C   UNL     1       1.511   3.999  20.878  0.00  0.00    +0.000 C 
ATOM     38  C   UNL     1       2.154   2.843  21.644  0.00  0.00    +0.000 C 
ENDBRANCH  35  37
ENDBRANCH  34  35
ENDBRANCH  28  34
ENDBRANCH   1  32
TORSDOF 6
ENDMDL
