MODEL 1
REMARK VINA RESULT:      -7.7      0.000      0.000
REMARK  Name = 
REMARK  3 active torsions:
REMARK  status: ('A' for Active; 'I' for Inactive)
REMARK    1  A    between atoms: C_3  and  C_4
REMARK    2  A    between atoms: N_10  and  C_11
REMARK    3  A    between atoms: C_11  and  C_12
REMARK                            x       y       z     vdW  Elec       q    Type
REMARK                         _______ _______ _______ _____ _____    ______ ____
ROOT
ATOM      1  N   UNL     1       4.997   6.855  15.381  0.00  0.00    +0.000 NA
ATOM      2  C   UNL     1       5.472   6.087  16.324  0.00  0.00    +0.000 A 
ATOM      3  C   UNL     1       6.577   5.076  16.029  0.00  0.00    +0.000 A 
ATOM      4  C   UNL     1       7.148   4.490  17.102  0.00  0.00    +0.000 A 
ATOM      5  C   UNL     1       6.721   4.770  18.460  0.00  0.00    +0.000 A 
ATOM      6  C   UNL     1       5.662   5.556  18.666  0.00  0.00    +0.000 A 
ATOM      7  N   UNL     1       4.973   6.186  17.633  0.00  0.00    +0.000 N 
ATOM      8  H   UNL     1       5.501   6.670  14.495  0.00  0.00    +0.000 HD
ENDROOT
BRANCH   3   9
ATOM      9  C   UNL     1       7.001   4.767  14.635  0.00  0.00    +0.000 C 
ATOM     10  N   UNL     1       6.460   3.675  14.023  0.00  0.00    +0.000 N 
ATOM     11  O   UNL     1       7.779   5.492  14.018  0.00  0.00    +0.000 OA
ATOM     12  H   UNL     1       5.683   3.149  14.395  0.00  0.00    +0.000 HD
ATOM     13  H   UNL     1       6.693   3.545  13.045  0.00  0.00    +0.000 HD
ENDBRANCH   3   9
BRANCH   7  14
ATOM     14  C   UNL     1       3.664   6.813  17.864  0.00  0.00    +0.000 C 
BRANCH  14  15
ATOM     15  C   UNL     1       2.718   5.819  18.517  0.00  0.00    +0.000 A 
ATOM     16  C   UNL     1       2.363   5.941  19.868  0.00  0.00    +0.000 A 
ATOM     17  C   UNL     1       1.584   4.962  20.487  0.00  0.00    +0.000 A 
ATOM     18  C   UNL     1       1.147   3.853  19.763  0.00  0.00    +0.000 A 
ATOM     19  C   UNL     1       1.470   3.734  18.413  0.00  0.00    +0.000 A 
ATOM     20  C   UNL     1       2.251   4.711  17.794  0.00  0.00    +0.000 A 
ENDBRANCH  14  15
ENDBRANCH   7  14
TORSDOF 3
ENDMDL
MODEL 2
REMARK VINA RESULT:      -7.6      0.194      1.186
REMARK  Name = 
REMARK  3 active torsions:
REMARK  status: ('A' for Active; 'I' for Inactive)
REMARK    1  A    between atoms: C_3  and  C_4
REMARK    2  A    between atoms: N_10  and  C_11
REMARK    3  A    between atoms: C_11  and  C_12
REMARK                            x       y       z     vdW  Elec       q    Type
REMARK                         _______ _______ _______ _____ _____    ______ ____
ROOT
ATOM      1  N   UNL     1       4.951   6.728  15.469  0.00  0.00    +0.000 NA
ATOM      2  C   UNL     1       5.511   6.017  16.409  0.00  0.00    +0.000 A 
ATOM      3  C   UNL     1       6.674   5.080  16.095  0.00  0.00    +0.000 A 
ATOM      4  C   UNL     1       7.322   4.561  17.159  0.00  0.00    +0.000 A 
ATOM      5  C   UNL     1       6.924   4.841  18.526  0.00  0.00    +0.000 A 
ATOM      6  C   UNL     1       5.819   5.555  18.753  0.00  0.00    +0.000 A 
ATOM      7  N   UNL     1       5.052   6.111  17.733  0.00  0.00    +0.000 N 
ATOM      8  H   UNL     1       5.436   6.559  14.569  0.00  0.00    +0.000 HD
ENDROOT
BRANCH   3   9
ATOM      9  C   UNL     1       7.071   4.769  14.694  0.00  0.00    +0.000 C 
ATOM     10  N   UNL     1       6.405   3.775  14.040  0.00  0.00    +0.000 N 
ATOM     11  O   UNL     1       7.939   5.414  14.108  0.00  0.00    +0.000 OA
ATOM     12  H   UNL     1       5.565   3.337  14.388  0.00  0.00    +0.000 HD
ATOM     13  H   UNL     1       6.630   3.652  13.059  0.00  0.00    +0.000 HD
ENDBRANCH   3   9
BRANCH   7  14
ATOM     14  C   UNL     1       3.710   6.650  17.998  0.00  0.00    +0.000 C 
BRANCH  14  15
ATOM     15  C   UNL     1       2.825   5.571  18.598  0.00  0.00    +0.000 A 
ATOM     16  C   UNL     1       2.341   4.515  17.813  0.00  0.00    +0.000 A 
ATOM     17  C   UNL     1       1.439   3.591  18.346  0.00  0.00    +0.000 A 
ATOM     18  C   UNL     1       1.014   3.711  19.668  0.00  0.00    +0.000 A 
ATOM     19  C   UNL     1       1.507   4.740  20.467  0.00  0.00    +0.000 A 
ATOM     20  C   UNL     1       2.407   5.665  19.935  0.00  0.00    +0.000 A 
ENDBRANCH  14  15
ENDBRANCH   7  14
TORSDOF 3
ENDMDL
MODEL 3
REMARK VINA RESULT:      -7.4      1.578      2.430
REMARK  Name = 
REMARK  3 active torsions:
REMARK  status: ('A' for Active; 'I' for Inactive)
REMARK    1  A    between atoms: C_3  and  C_4
REMARK    2  A    between atoms: N_10  and  C_11
REMARK    3  A    between atoms: C_11  and  C_12
REMARK                            x       y       z     vdW  Elec       q    Type
REMARK                         _______ _______ _______ _____ _____    ______ ____
ROOT
ATOM      1  N   UNL     1       5.550   2.955  16.462  0.00  0.00    +0.000 NA
ATOM      2  C   UNL     1       5.346   4.235  16.616  0.00  0.00    +0.000 A 
ATOM      3  C   UNL     1       5.786   5.233  15.548  0.00  0.00    +0.000 A 
ATOM      4  C   UNL     1       5.338   6.497  15.695  0.00  0.00    +0.000 A 
ATOM      5  C   UNL     1       4.516   6.905  16.819  0.00  0.00    +0.000 A 
ATOM      6  C   UNL     1       4.268   6.034  17.800  0.00  0.00    +0.000 A 
ATOM      7  N   UNL     1       4.708   4.714  17.772  0.00  0.00    +0.000 N 
ATOM      8  H   UNL     1       5.998   2.782  15.544  0.00  0.00    +0.000 HD
ENDROOT
BRANCH   3   9
ATOM      9  C   UNL     1       6.652   4.824  14.406  0.00  0.00    +0.000 C 
ATOM     10  N   UNL     1       6.286   3.732  13.678  0.00  0.00    +0.000 N 
ATOM     11  O   UNL     1       7.647   5.470  14.084  0.00  0.00    +0.000 OA
ATOM     12  H   UNL     1       5.392   3.271  13.766  0.00  0.00    +0.000 HD
ATOM     13  H   UNL     1       6.838   3.535  12.851  0.00  0.00    +0.000 HD
ENDBRANCH   3   9
BRANCH   7  14
ATOM     14  C   UNL     1       4.657   3.870  18.974  0.00  0.00    +0.000 C 
BRANCH  14  15
ATOM     15  C   UNL     1       3.215   3.538  19.317  0.00  0.00    +0.000 A 
ATOM     16  C   UNL     1       2.427   2.766  18.452  0.00  0.00    +0.000 A 
ATOM     17  C   UNL     1       1.072   2.560  18.722  0.00  0.00    +0.000 A 
ATOM     18  C   UNL     1       0.492   3.119  19.859  0.00  0.00    +0.000 A 
ATOM     19  C   UNL     1       1.270   3.866  20.741  0.00  0.00    +0.000 A 
ATOM     20  C   UNL     1       2.624   4.074  20.471  0.00  0.00    +0.000 A 
ENDBRANCH  14  15
ENDBRANCH   7  14
TORSDOF 3
ENDMDL
MODEL 4
REMARK VINA RESULT:      -7.4      1.566      2.111
REMARK  Name = 
REMARK  3 active torsions:
REMARK  status: ('A' for Active; 'I' for Inactive)
REMARK    1  A    between atoms: C_3  and  C_4
REMARK    2  A    between atoms: N_10  and  C_11
REMARK    3  A    between atoms: C_11  and  C_12
REMARK                            x       y       z     vdW  Elec       q    Type
REMARK                         _______ _______ _______ _____ _____    ______ ____
ROOT
ATOM      1  N   UNL     1       5.541   2.959  16.361  0.00  0.00    +0.000 NA
ATOM      2  C   UNL     1       5.352   4.243  16.506  0.00  0.00    +0.000 A 
ATOM      3  C   UNL     1       5.828   5.231  15.444  0.00  0.00    +0.000 A 
ATOM      4  C   UNL     1       5.395   6.501  15.578  0.00  0.00    +0.000 A 
ATOM      5  C   UNL     1       4.554   6.924  16.682  0.00  0.00    +0.000 A 
ATOM      6  C   UNL     1       4.274   6.061  17.662  0.00  0.00    +0.000 A 
ATOM      7  N   UNL     1       4.696   4.735  17.647  0.00  0.00    +0.000 N 
ATOM      8  H   UNL     1       6.006   2.777  15.453  0.00  0.00    +0.000 HD
ENDROOT
BRANCH   3   9
ATOM      9  C   UNL     1       6.711   4.806  14.322  0.00  0.00    +0.000 C 
ATOM     10  N   UNL     1       6.350   3.710  13.596  0.00  0.00    +0.000 N 
ATOM     11  O   UNL     1       7.717   5.442  14.013  0.00  0.00    +0.000 OA
ATOM     12  H   UNL     1       5.451   3.256  13.671  0.00  0.00    +0.000 HD
ATOM     13  H   UNL     1       6.917   3.502  12.782  0.00  0.00    +0.000 HD
ENDBRANCH   3   9
BRANCH   7  14
ATOM     14  C   UNL     1       4.609   3.896  18.851  0.00  0.00    +0.000 C 
BRANCH  14  15
ATOM     15  C   UNL     1       3.154   3.663  19.219  0.00  0.00    +0.000 A 
ATOM     16  C   UNL     1       2.632   4.135  20.431  0.00  0.00    +0.000 A 
ATOM     17  C   UNL     1       1.325   3.821  20.811  0.00  0.00    +0.000 A 
ATOM     18  C   UNL     1       0.525   3.035  19.982  0.00  0.00    +0.000 A 
ATOM     19  C   UNL     1       1.023   2.582  18.762  0.00  0.00    +0.000 A 
ATOM     20  C   UNL     1       2.330   2.893  18.383  0.00  0.00    +0.000 A 
ENDBRANCH  14  15
ENDBRANCH   7  14
TORSDOF 3
ENDMDL
MODEL 5
REMARK VINA RESULT:      -7.3      1.934      2.855
REMARK  Name = 
REMARK  3 active torsions:
REMARK  status: ('A' for Active; 'I' for Inactive)
REMARK    1  A    between atoms: C_3  and  C_4
REMARK    2  A    between atoms: N_10  and  C_11
REMARK    3  A    between atoms: C_11  and  C_12
REMARK                            x       y       z     vdW  Elec       q    Type
REMARK                         _______ _______ _______ _____ _____    ______ ____
ROOT
ATOM      1  N   UNL     1       5.239   3.379  16.275  0.00  0.00    +0.000 NA
ATOM      2  C   UNL     1       4.800   4.459  16.863  0.00  0.00    +0.000 A 
ATOM      3  C   UNL     1       5.706   5.674  17.047  0.00  0.00    +0.000 A 
ATOM      4  C   UNL     1       5.102   6.808  17.462  0.00  0.00    +0.000 A 
ATOM      5  C   UNL     1       3.682   6.871  17.754  0.00  0.00    +0.000 A 
ATOM      6  C   UNL     1       2.953   5.753  17.711  0.00  0.00    +0.000 A 
ATOM      7  N   UNL     1       3.477   4.521  17.330  0.00  0.00    +0.000 N 
ATOM      8  H   UNL     1       6.218   3.524  15.968  0.00  0.00    +0.000 HD
ENDROOT
BRANCH   3   9
ATOM      9  C   UNL     1       7.168   5.607  16.773  0.00  0.00    +0.000 C 
ATOM     10  N   UNL     1       7.825   4.447  17.058  0.00  0.00    +0.000 N 
ATOM     11  O   UNL     1       7.775   6.544  16.259  0.00  0.00    +0.000 OA
ATOM     12  H   UNL     1       7.362   3.583  17.301  0.00  0.00    +0.000 HD
ATOM     13  H   UNL     1       8.796   4.397  16.772  0.00  0.00    +0.000 HD
ENDBRANCH   3   9
BRANCH   7  14
ATOM     14  C   UNL     1       2.729   3.275  17.554  0.00  0.00    +0.000 C 
BRANCH  14  15
ATOM     15  C   UNL     1       2.404   3.121  19.030  0.00  0.00    +0.000 A 
ATOM     16  C   UNL     1       3.403   2.796  19.959  0.00  0.00    +0.000 A 
ATOM     17  C   UNL     1       3.075   2.547  21.294  0.00  0.00    +0.000 A 
ATOM     18  C   UNL     1       1.749   2.625  21.715  0.00  0.00    +0.000 A 
ATOM     19  C   UNL     1       0.750   2.973  20.808  0.00  0.00    +0.000 A 
ATOM     20  C   UNL     1       1.076   3.220  19.473  0.00  0.00    +0.000 A 
ENDBRANCH  14  15
ENDBRANCH   7  14
TORSDOF 3
ENDMDL
MODEL 6
REMARK VINA RESULT:      -7.3      1.827      3.011
REMARK  Name = 
REMARK  3 active torsions:
REMARK  status: ('A' for Active; 'I' for Inactive)
REMARK    1  A    between atoms: C_3  and  C_4
REMARK    2  A    between atoms: N_10  and  C_11
REMARK    3  A    between atoms: C_11  and  C_12
REMARK                            x       y       z     vdW  Elec       q    Type
REMARK                         _______ _______ _______ _____ _____    ______ ____
ROOT
ATOM      1  N   UNL     1       5.635   3.454  16.077  0.00  0.00    +0.000 NA
ATOM      2  C   UNL     1       5.021   4.412  16.714  0.00  0.00    +0.000 A 
ATOM      3  C   UNL     1       5.624   5.813  16.795  0.00  0.00    +0.000 A 
ATOM      4  C   UNL     1       4.818   6.780  17.281  0.00  0.00    +0.000 A 
ATOM      5  C   UNL     1       3.467   6.510  17.736  0.00  0.00    +0.000 A 
ATOM      6  C   UNL     1       3.026   5.251  17.775  0.00  0.00    +0.000 A 
ATOM      7  N   UNL     1       3.783   4.169  17.333  0.00  0.00    +0.000 N 
ATOM      8  H   UNL     1       6.510   3.819  15.658  0.00  0.00    +0.000 HD
ENDROOT
BRANCH   3   9
ATOM      9  C   UNL     1       7.019   6.089  16.352  0.00  0.00    +0.000 C 
ATOM     10  N   UNL     1       7.713   7.078  16.984  0.00  0.00    +0.000 N 
ATOM     11  O   UNL     1       7.565   5.421  15.476  0.00  0.00    +0.000 OA
ATOM     12  H   UNL     1       7.399   7.534  17.828  0.00  0.00    +0.000 HD
ATOM     13  H   UNL     1       8.688   7.178  16.728  0.00  0.00    +0.000 HD
ENDBRANCH   3   9
BRANCH   7  14
ATOM     14  C   UNL     1       3.386   2.787  17.639  0.00  0.00    +0.000 C 
BRANCH  14  15
ATOM     15  C   UNL     1       2.672   2.735  18.979  0.00  0.00    +0.000 A 
ATOM     16  C   UNL     1       1.278   2.863  19.059  0.00  0.00    +0.000 A 
ATOM     17  C   UNL     1       0.643   2.926  20.302  0.00  0.00    +0.000 A 
ATOM     18  C   UNL     1       1.392   2.858  21.475  0.00  0.00    +0.000 A 
ATOM     19  C   UNL     1       2.775   2.704  21.409  0.00  0.00    +0.000 A 
ATOM     20  C   UNL     1       3.411   2.644  20.169  0.00  0.00    +0.000 A 
ENDBRANCH  14  15
ENDBRANCH   7  14
TORSDOF 3
ENDMDL
MODEL 7
REMARK VINA RESULT:      -7.2      2.031      2.957
REMARK  Name = 
REMARK  3 active torsions:
REMARK  status: ('A' for Active; 'I' for Inactive)
REMARK    1  A    between atoms: C_3  and  C_4
REMARK    2  A    between atoms: N_10  and  C_11
REMARK    3  A    between atoms: C_11  and  C_12
REMARK                            x       y       z     vdW  Elec       q    Type
REMARK                         _______ _______ _______ _____ _____    ______ ____
ROOT
ATOM      1  N   UNL     1       4.930   5.853  19.683  0.00  0.00    +0.000 NA
ATOM      2  C   UNL     1       5.316   5.438  18.508  0.00  0.00    +0.000 A 
ATOM      3  C   UNL     1       6.798   5.375  18.146  0.00  0.00    +0.000 A 
ATOM      4  C   UNL     1       7.103   4.731  17.000  0.00  0.00    +0.000 A 
ATOM      5  C   UNL     1       6.088   4.157  16.136  0.00  0.00    +0.000 A 
ATOM      6  C   UNL     1       4.798   4.353  16.419  0.00  0.00    +0.000 A 
ATOM      7  N   UNL     1       4.366   5.032  17.555  0.00  0.00    +0.000 N 
ATOM      8  H   UNL     1       5.759   6.077  20.263  0.00  0.00    +0.000 HD
ENDROOT
BRANCH   3   9
ATOM      9  C   UNL     1       7.840   5.984  19.018  0.00  0.00    +0.000 C 
ATOM     10  N   UNL     1       8.244   5.292  20.121  0.00  0.00    +0.000 N 
ATOM     11  O   UNL     1       8.370   7.058  18.741  0.00  0.00    +0.000 OA
ATOM     12  H   UNL     1       7.994   4.332  20.305  0.00  0.00    +0.000 HD
ATOM     13  H   UNL     1       9.021   5.685  20.640  0.00  0.00    +0.000 HD
ENDBRANCH   3   9
BRANCH   7  14
ATOM     14  C   UNL     1       2.968   5.466  17.696  0.00  0.00    +0.000 C 
BRANCH  14  15
ATOM     15  C   UNL     1       2.194   4.463  18.534  0.00  0.00    +0.000 A 
ATOM     16  C   UNL     1       1.788   4.774  19.840  0.00  0.00    +0.000 A 
ATOM     17  C   UNL     1       1.176   3.808  20.641  0.00  0.00    +0.000 A 
ATOM     18  C   UNL     1       0.959   2.523  20.145  0.00  0.00    +0.000 A 
ATOM     19  C   UNL     1       1.333   2.209  18.840  0.00  0.00    +0.000 A 
ATOM     20  C   UNL     1       1.947   3.173  18.040  0.00  0.00    +0.000 A 
ENDBRANCH  14  15
ENDBRANCH   7  14
TORSDOF 3
ENDMDL
MODEL 8
REMARK VINA RESULT:      -7.2      2.131      2.888
REMARK  Name = 
REMARK  3 active torsions:
REMARK  status: ('A' for Active; 'I' for Inactive)
REMARK    1  A    between atoms: C_3  and  C_4
REMARK    2  A    between atoms: N_10  and  C_11
REMARK    3  A    between atoms: C_11  and  C_12
REMARK                            x       y       z     vdW  Elec       q    Type
REMARK                         _______ _______ _______ _____ _____    ______ ____
ROOT
ATOM      1  N   UNL     1       5.228   4.560  19.830  0.00  0.00    +0.000 NA
ATOM      2  C   UNL     1       5.264   5.360  18.799  0.00  0.00    +0.000 A 
ATOM      3  C   UNL     1       6.545   5.532  17.985  0.00  0.00    +0.000 A 
ATOM      4  C   UNL     1       6.423   6.202  16.821  0.00  0.00    +0.000 A 
ATOM      5  C   UNL     1       5.161   6.762  16.373  0.00  0.00    +0.000 A 
ATOM      6  C   UNL     1       4.097   6.707  17.178  0.00  0.00    +0.000 A 
ATOM      7  N   UNL     1       4.115   6.072  18.417  0.00  0.00    +0.000 N 
ATOM      8  H   UNL     1       6.147   4.096  19.943  0.00  0.00    +0.000 HD
ENDROOT
BRANCH   3   9
ATOM      9  C   UNL     1       7.847   4.981  18.453  0.00  0.00    +0.000 C 
ATOM     10  N   UNL     1       8.330   5.401  19.657  0.00  0.00    +0.000 N 
ATOM     11  O   UNL     1       8.460   4.133  17.809  0.00  0.00    +0.000 OA
ATOM     12  H   UNL     1       7.796   5.945  20.319  0.00  0.00    +0.000 HD
ATOM     13  H   UNL     1       9.167   4.938  19.993  0.00  0.00    +0.000 HD
ENDBRANCH   3   9
BRANCH   7  14
ATOM     14  C   UNL     1       3.026   6.263  19.385  0.00  0.00    +0.000 C 
BRANCH  14  15
ATOM     15  C   UNL     1       2.161   5.017  19.449  0.00  0.00    +0.000 A 
ATOM     16  C   UNL     1       1.746   4.488  20.680  0.00  0.00    +0.000 A 
ATOM     17  C   UNL     1       1.045   3.281  20.733  0.00  0.00    +0.000 A 
ATOM     18  C   UNL     1       0.748   2.592  19.558  0.00  0.00    +0.000 A 
ATOM     19  C   UNL     1       1.131   3.120  18.327  0.00  0.00    +0.000 A 
ATOM     20  C   UNL     1       1.833   4.325  18.273  0.00  0.00    +0.000 A 
ENDBRANCH  14  15
ENDBRANCH   7  14
TORSDOF 3
ENDMDL
MODEL 9
REMARK VINA RESULT:      -7.1      1.968      2.890
REMARK  Name = 
REMARK  3 active torsions:
REMARK  status: ('A' for Active; 'I' for Inactive)
REMARK    1  A    between atoms: C_3  and  C_4
REMARK    2  A    between atoms: N_10  and  C_11
REMARK    3  A    between atoms: C_11  and  C_12
REMARK                            x       y       z     vdW  Elec       q    Type
REMARK                         _______ _______ _______ _____ _____    ______ ____
ROOT
ATOM      1  N   UNL     1       5.007   2.957  16.301  0.00  0.00    +0.000 NA
ATOM      2  C   UNL     1       4.780   4.094  16.901  0.00  0.00    +0.000 A 
ATOM      3  C   UNL     1       5.910   5.089  17.150  0.00  0.00    +0.000 A 
ATOM      4  C   UNL     1       5.539   6.315  17.573  0.00  0.00    +0.000 A 
ATOM      5  C   UNL     1       4.153   6.669  17.815  0.00  0.00    +0.000 A 
ATOM      6  C   UNL     1       3.210   5.729  17.716  0.00  0.00    +0.000 A 
ATOM      7  N   UNL     1       3.480   4.422  17.322  0.00  0.00    +0.000 N 
ATOM      8  H   UNL     1       6.006   2.899  16.033  0.00  0.00    +0.000 HD
ENDROOT
BRANCH   3   9
ATOM      9  C   UNL     1       7.336   4.722  16.926  0.00  0.00    +0.000 C 
ATOM     10  N   UNL     1       8.100   4.412  18.012  0.00  0.00    +0.000 N 
ATOM     11  O   UNL     1       7.817   4.648  15.798  0.00  0.00    +0.000 OA
ATOM     12  H   UNL     1       7.728   4.269  18.940  0.00  0.00    +0.000 HD
ATOM     13  H   UNL     1       9.036   4.073  17.823  0.00  0.00    +0.000 HD
ENDBRANCH   3   9
BRANCH   7  14
ATOM     14  C   UNL     1       2.481   3.356  17.486  0.00  0.00    +0.000 C 
BRANCH  14  15
ATOM     15  C   UNL     1       2.280   3.053  18.961  0.00  0.00    +0.000 A 
ATOM     16  C   UNL     1       1.046   3.286  19.584  0.00  0.00    +0.000 A 
ATOM     17  C   UNL     1       0.903   3.110  20.962  0.00  0.00    +0.000 A 
ATOM     18  C   UNL     1       1.990   2.696  21.731  0.00  0.00    +0.000 A 
ATOM     19  C   UNL     1       3.214   2.435  21.120  0.00  0.00    +0.000 A 
ATOM     20  C   UNL     1       3.359   2.613  19.744  0.00  0.00    +0.000 A 
ENDBRANCH  14  15
ENDBRANCH   7  14
TORSDOF 3
ENDMDL
