MODEL 1
REMARK VINA RESULT:      -6.5      0.000      0.000
REMARK  Name = 
REMARK  9 active torsions:
REMARK  status: ('A' for Active; 'I' for Inactive)
REMARK    1  A    between atoms: C_1  and  O_2
REMARK    2  A    between atoms: O_2  and  C_3
REMARK    3  A    between atoms: C_3  and  C_4
REMARK    4  A    between atoms: C_4  and  N_5
REMARK    5  A    between atoms: C_9  and  C_10
REMARK    6  A    between atoms: C_14  and  C_16
REMARK    7  A    between atoms: C_16  and  S_17
REMARK    8  A    between atoms: S_17  and  C_18
REMARK    9  A    between atoms: C_21  and  C_22
REMARK                            x       y       z     vdW  Elec       q    Type
REMARK                         _______ _______ _______ _____ _____    ______ ____
ROOT
ATOM      1  C   UNL     1       2.432   5.673  19.241  0.00  0.00    +0.000 C 
ATOM      2  C   UNL     1       3.670   5.206  20.001  0.00  0.00    +0.000 C 
ATOM      3  C   UNL     1       4.934   5.318  19.175  0.00  0.00    +0.000 C 
ATOM      4  N   UNL     1       4.841   4.623  17.894  0.00  0.00    +0.000 N 
ATOM      5  C   UNL     1       6.072   4.355  17.272  0.00  0.00    +0.000 C 
ATOM      6  O   UNL     1       7.138   4.686  17.800  0.00  0.00    +0.000 OA
ATOM      7  C   UNL     1       3.612   4.836  17.120  0.00  0.00    +0.000 C 
ATOM      8  C   UNL     1       2.337   4.801  17.971  0.00  0.00    +0.000 C 
ENDROOT
BRANCH   1  13
ATOM      9  N   UNL     1       1.752   8.155  19.705  0.00  0.00    +0.000 N 
ATOM     10  C   UNL     1       1.577   9.255  18.908  0.00  0.00    +0.000 A 
ATOM     11  C   UNL     1       2.126   8.926  17.698  0.00  0.00    +0.000 A 
ATOM     12  N   UNL     1       2.597   7.648  17.720  0.00  0.00    +0.000 NA
ATOM     13  C   UNL     1       2.313   7.156  18.918  0.00  0.00    +0.000 A 
BRANCH   9  14
ATOM     14  C   UNL     1       1.417   8.074  21.112  0.00  0.00    +0.000 C 
BRANCH  14  15
ATOM     15  C   UNL     1       0.062   8.626  21.563  0.00  0.00    +0.000 C 
BRANCH  15  17
ATOM     16  C   UNL     1      -0.155  10.973  21.825  0.00  0.00    +0.000 C 
ATOM     17  O   UNL     1       0.310   9.760  22.402  0.00  0.00    +0.000 OA
ENDBRANCH  15  17
ENDBRANCH  14  15
ENDBRANCH   9  14
ENDBRANCH   1  13
BRANCH   5  18
ATOM     18  C   UNL     1       6.035   3.655  15.916  0.00  0.00    +0.000 C 
BRANCH  18  19
ATOM     19  S   UNL     1       6.469   4.778  14.549  0.00  0.00    +0.000 S 
BRANCH  19  20
ATOM     20  C   UNL     1       5.887   3.860  13.193  0.00  0.00    +0.000 A 
ATOM     21  N   UNL     1       6.517   2.839  12.644  0.00  0.00    +0.000 NA
ATOM     22  N   UNL     1       5.711   2.377  11.621  0.00  0.00    +0.000 NA
ATOM     23  C   UNL     1       4.644   3.147  11.621  0.00  0.00    +0.000 A 
ATOM     24  C   UNL     1       3.458   3.119  10.750  0.00  0.00    +0.000 C 
ATOM     25  O   UNL     1       4.675   4.102  12.598  0.00  0.00    +0.000 OA
ENDBRANCH  19  20
ENDBRANCH  18  19
ENDBRANCH   5  18
TORSDOF 7
ENDMDL
MODEL 2
REMARK VINA RESULT:      -6.3      2.761      3.525
REMARK  Name = 
REMARK  9 active torsions:
REMARK  status: ('A' for Active; 'I' for Inactive)
REMARK    1  A    between atoms: C_1  and  O_2
REMARK    2  A    between atoms: O_2  and  C_3
REMARK    3  A    between atoms: C_3  and  C_4
REMARK    4  A    between atoms: C_4  and  N_5
REMARK    5  A    between atoms: C_9  and  C_10
REMARK    6  A    between atoms: C_14  and  C_16
REMARK    7  A    between atoms: C_16  and  S_17
REMARK    8  A    between atoms: S_17  and  C_18
REMARK    9  A    between atoms: C_21  and  C_22
REMARK                            x       y       z     vdW  Elec       q    Type
REMARK                         _______ _______ _______ _____ _____    ______ ____
ROOT
ATOM      1  C   UNL     1       1.808   5.832  19.523  0.00  0.00    +0.000 C 
ATOM      2  C   UNL     1       2.860   5.181  20.417  0.00  0.00    +0.000 C 
ATOM      3  C   UNL     1       4.228   5.149  19.770  0.00  0.00    +0.000 C 
ATOM      4  N   UNL     1       4.224   4.511  18.456  0.00  0.00    +0.000 N 
ATOM      5  C   UNL     1       5.483   4.101  17.990  0.00  0.00    +0.000 C 
ATOM      6  O   UNL     1       6.501   4.270  18.668  0.00  0.00    +0.000 OA
ATOM      7  C   UNL     1       3.149   4.910  17.538  0.00  0.00    +0.000 C 
ATOM      8  C   UNL     1       1.776   5.020  18.211  0.00  0.00    +0.000 C 
ENDROOT
BRANCH   1  13
ATOM      9  N   UNL     1       1.456   8.369  20.050  0.00  0.00    +0.000 N 
ATOM     10  C   UNL     1       1.497   9.509  19.293  0.00  0.00    +0.000 A 
ATOM     11  C   UNL     1       2.081   9.146  18.109  0.00  0.00    +0.000 A 
ATOM     12  N   UNL     1       2.362   7.813  18.106  0.00  0.00    +0.000 NA
ATOM     13  C   UNL     1       1.924   7.326  19.259  0.00  0.00    +0.000 A 
BRANCH   9  14
ATOM     14  C   UNL     1       1.011   8.290  21.426  0.00  0.00    +0.000 C 
BRANCH  14  15
ATOM     15  C   UNL     1       1.483   9.372  22.401  0.00  0.00    +0.000 C 
BRANCH  15  17
ATOM     16  C   UNL     1      -0.664  10.178  23.005  0.00  0.00    +0.000 C 
ATOM     17  O   UNL     1       0.501   9.486  23.437  0.00  0.00    +0.000 OA
ENDBRANCH  15  17
ENDBRANCH  14  15
ENDBRANCH   9  14
ENDBRANCH   1  13
BRANCH   5  18
ATOM     18  C   UNL     1       5.543   3.453  16.608  0.00  0.00    +0.000 C 
BRANCH  18  19
ATOM     19  S   UNL     1       6.717   4.299  15.501  0.00  0.00    +0.000 S 
BRANCH  19  20
ATOM     20  C   UNL     1       6.690   5.899  16.181  0.00  0.00    +0.000 A 
ATOM     21  N   UNL     1       5.648   6.707  16.172  0.00  0.00    +0.000 NA
ATOM     22  N   UNL     1       6.032   7.859  16.832  0.00  0.00    +0.000 NA
ATOM     23  C   UNL     1       7.280   7.668  17.202  0.00  0.00    +0.000 A 
ATOM     24  C   UNL     1       8.196   8.558  17.935  0.00  0.00    +0.000 C 
ATOM     25  O   UNL     1       7.764   6.443  16.839  0.00  0.00    +0.000 OA
ENDBRANCH  19  20
ENDBRANCH  18  19
ENDBRANCH   5  18
TORSDOF 7
ENDMDL
MODEL 3
REMARK VINA RESULT:      -6.0      1.078      1.192
REMARK  Name = 
REMARK  9 active torsions:
REMARK  status: ('A' for Active; 'I' for Inactive)
REMARK    1  A    between atoms: C_1  and  O_2
REMARK    2  A    between atoms: O_2  and  C_3
REMARK    3  A    between atoms: C_3  and  C_4
REMARK    4  A    between atoms: C_4  and  N_5
REMARK    5  A    between atoms: C_9  and  C_10
REMARK    6  A    between atoms: C_14  and  C_16
REMARK    7  A    between atoms: C_16  and  S_17
REMARK    8  A    between atoms: S_17  and  C_18
REMARK    9  A    between atoms: C_21  and  C_22
REMARK                            x       y       z     vdW  Elec       q    Type
REMARK                         _______ _______ _______ _____ _____    ______ ____
ROOT
ATOM      1  C   UNL     1       2.894   5.710  19.386  0.00  0.00    +0.000 C 
ATOM      2  C   UNL     1       4.278   5.384  19.939  0.00  0.00    +0.000 C 
ATOM      3  C   UNL     1       5.366   5.522  18.895  0.00  0.00    +0.000 C 
ATOM      4  N   UNL     1       5.107   4.730  17.694  0.00  0.00    +0.000 N 
ATOM      5  C   UNL     1       6.229   4.502  16.880  0.00  0.00    +0.000 C 
ATOM      6  O   UNL     1       7.340   4.942  17.187  0.00  0.00    +0.000 OA
ATOM      7  C   UNL     1       3.749   4.801  17.142  0.00  0.00    +0.000 C 
ATOM      8  C   UNL     1       2.649   4.743  18.208  0.00  0.00    +0.000 C 
ENDROOT
BRANCH   1  13
ATOM      9  N   UNL     1       1.792   8.064  19.670  0.00  0.00    +0.000 N 
ATOM     10  C   UNL     1       1.570   9.115  18.821  0.00  0.00    +0.000 A 
ATOM     11  C   UNL     1       2.329   8.861  17.710  0.00  0.00    +0.000 A 
ATOM     12  N   UNL     1       2.977   7.670  17.839  0.00  0.00    +0.000 NA
ATOM     13  C   UNL     1       2.601   7.153  19.002  0.00  0.00    +0.000 A 
BRANCH   9  14
ATOM     14  C   UNL     1       1.275   7.948  21.018  0.00  0.00    +0.000 C 
BRANCH  14  15
ATOM     15  C   UNL     1       1.793   8.928  22.075  0.00  0.00    +0.000 C 
BRANCH  15  17
ATOM     16  C   UNL     1      -0.409   9.688  22.520  0.00  0.00    +0.000 C 
ATOM     17  O   UNL     1       0.902  10.049  22.106  0.00  0.00    +0.000 OA
ENDBRANCH  15  17
ENDBRANCH  14  15
ENDBRANCH   9  14
ENDBRANCH   1  13
BRANCH   5  18
ATOM     18  C   UNL     1       6.012   3.703  15.596  0.00  0.00    +0.000 C 
BRANCH  18  19
ATOM     19  S   UNL     1       6.495   4.642  14.112  0.00  0.00    +0.000 S 
BRANCH  19  20
ATOM     20  C   UNL     1       5.872   3.601  12.867  0.00  0.00    +0.000 A 
ATOM     21  N   UNL     1       4.738   3.790  12.220  0.00  0.00    +0.000 NA
ATOM     22  N   UNL     1       4.627   2.762  11.303  0.00  0.00    +0.000 NA
ATOM     23  C   UNL     1       5.704   2.022  11.453  0.00  0.00    +0.000 A 
ATOM     24  C   UNL     1       6.116   0.798  10.746  0.00  0.00    +0.000 C 
ATOM     25  O   UNL     1       6.549   2.497  12.415  0.00  0.00    +0.000 OA
ENDBRANCH  19  20
ENDBRANCH  18  19
ENDBRANCH   5  18
TORSDOF 7
ENDMDL
MODEL 4
REMARK VINA RESULT:      -6.0      2.387      3.017
REMARK  Name = 
REMARK  9 active torsions:
REMARK  status: ('A' for Active; 'I' for Inactive)
REMARK    1  A    between atoms: C_1  and  O_2
REMARK    2  A    between atoms: O_2  and  C_3
REMARK    3  A    between atoms: C_3  and  C_4
REMARK    4  A    between atoms: C_4  and  N_5
REMARK    5  A    between atoms: C_9  and  C_10
REMARK    6  A    between atoms: C_14  and  C_16
REMARK    7  A    between atoms: C_16  and  S_17
REMARK    8  A    between atoms: S_17  and  C_18
REMARK    9  A    between atoms: C_21  and  C_22
REMARK                            x       y       z     vdW  Elec       q    Type
REMARK                         _______ _______ _______ _____ _____    ______ ____
ROOT
ATOM      1  C   UNL     1       4.582   4.822  19.405  0.00  0.00    +0.000 C 
ATOM      2  C   UNL     1       6.067   5.151  19.278  0.00  0.00    +0.000 C 
ATOM      3  C   UNL     1       6.451   5.552  17.869  0.00  0.00    +0.000 C 
ATOM      4  N   UNL     1       6.071   4.558  16.869  0.00  0.00    +0.000 N 
ATOM      5  C   UNL     1       6.731   4.674  15.634  0.00  0.00    +0.000 C 
ATOM      6  O   UNL     1       7.574   5.555  15.442  0.00  0.00    +0.000 OA
ATOM      7  C   UNL     1       4.714   4.008  16.974  0.00  0.00    +0.000 C 
ATOM      8  C   UNL     1       4.295   3.677  18.411  0.00  0.00    +0.000 C 
ENDROOT
BRANCH   1  13
ATOM      9  N   UNL     1       2.281   6.019  19.737  0.00  0.00    +0.000 N 
ATOM     10  C   UNL     1       1.661   7.070  19.116  0.00  0.00    +0.000 A 
ATOM     11  C   UNL     1       2.629   7.677  18.361  0.00  0.00    +0.000 A 
ATOM     12  N   UNL     1       3.809   7.006  18.473  0.00  0.00    +0.000 NA
ATOM     13  C   UNL     1       3.584   5.961  19.258  0.00  0.00    +0.000 A 
BRANCH   9  14
ATOM     14  C   UNL     1       1.673   5.146  20.720  0.00  0.00    +0.000 C 
BRANCH  14  15
ATOM     15  C   UNL     1       0.847   3.959  20.217  0.00  0.00    +0.000 C 
BRANCH  15  17
ATOM     16  C   UNL     1       2.419   2.926  21.662  0.00  0.00    +0.000 C 
ATOM     17  O   UNL     1       1.563   2.761  20.539  0.00  0.00    +0.000 OA
ENDBRANCH  15  17
ENDBRANCH  14  15
ENDBRANCH   9  14
ENDBRANCH   1  13
BRANCH   5  18
ATOM     18  C   UNL     1       6.353   3.677  14.541  0.00  0.00    +0.000 C 
BRANCH  18  19
ATOM     19  S   UNL     1       6.859   4.247  12.886  0.00  0.00    +0.000 S 
BRANCH  19  20
ATOM     20  C   UNL     1       5.632   3.498  11.908  0.00  0.00    +0.000 A 
ATOM     21  N   UNL     1       5.514   2.200  11.706  0.00  0.00    +0.000 NA
ATOM     22  N   UNL     1       4.405   2.022  10.901  0.00  0.00    +0.000 NA
ATOM     23  C   UNL     1       3.922   3.224  10.674  0.00  0.00    +0.000 A 
ATOM     24  C   UNL     1       2.754   3.640   9.881  0.00  0.00    +0.000 C 
ATOM     25  O   UNL     1       4.637   4.212  11.291  0.00  0.00    +0.000 OA
ENDBRANCH  19  20
ENDBRANCH  18  19
ENDBRANCH   5  18
TORSDOF 7
ENDMDL
MODEL 5
REMARK VINA RESULT:      -6.0      3.437      9.335
REMARK  Name = 
REMARK  9 active torsions:
REMARK  status: ('A' for Active; 'I' for Inactive)
REMARK    1  A    between atoms: C_1  and  O_2
REMARK    2  A    between atoms: O_2  and  C_3
REMARK    3  A    between atoms: C_3  and  C_4
REMARK    4  A    between atoms: C_4  and  N_5
REMARK    5  A    between atoms: C_9  and  C_10
REMARK    6  A    between atoms: C_14  and  C_16
REMARK    7  A    between atoms: C_16  and  S_17
REMARK    8  A    between atoms: S_17  and  C_18
REMARK    9  A    between atoms: C_21  and  C_22
REMARK                            x       y       z     vdW  Elec       q    Type
REMARK                         _______ _______ _______ _____ _____    ______ ____
ROOT
ATOM      1  C   UNL     1       4.219   4.844  18.334  0.00  0.00    +0.000 C 
ATOM      2  C   UNL     1       3.358   5.698  17.408  0.00  0.00    +0.000 C 
ATOM      3  C   UNL     1       2.992   7.031  18.026  0.00  0.00    +0.000 C 
ATOM      4  N   UNL     1       2.345   6.898  19.329  0.00  0.00    +0.000 N 
ATOM      5  C   UNL     1       1.641   8.033  19.762  0.00  0.00    +0.000 C 
ATOM      6  O   UNL     1       1.581   9.051  19.066  0.00  0.00    +0.000 OA
ATOM      7  C   UNL     1       2.965   5.962  20.275  0.00  0.00    +0.000 C 
ATOM      8  C   UNL     1       3.408   4.643  19.633  0.00  0.00    +0.000 C 
ENDROOT
BRANCH   1  13
ATOM      9  N   UNL     1       6.605   5.710  17.705  0.00  0.00    +0.000 N 
ATOM     10  C   UNL     1       7.805   5.744  18.363  0.00  0.00    +0.000 A 
ATOM     11  C   UNL     1       7.517   5.468  19.673  0.00  0.00    +0.000 A 
ATOM     12  N   UNL     1       6.184   5.229  19.827  0.00  0.00    +0.000 NA
ATOM     13  C   UNL     1       5.638   5.312  18.621  0.00  0.00    +0.000 A 
BRANCH   9  14
ATOM     14  C   UNL     1       6.401   6.041  16.310  0.00  0.00    +0.000 C 
BRANCH  14  15
ATOM     15  C   UNL     1       6.737   4.979  15.260  0.00  0.00    +0.000 C 
BRANCH  15  17
ATOM     16  C   UNL     1       7.671   5.075  13.082  0.00  0.00    +0.000 C 
ATOM     17  O   UNL     1       7.787   5.496  14.435  0.00  0.00    +0.000 OA
ENDBRANCH  15  17
ENDBRANCH  14  15
ENDBRANCH   9  14
ENDBRANCH   1  13
BRANCH   5  18
ATOM     18  C   UNL     1       0.967   7.961  21.131  0.00  0.00    +0.000 C 
BRANCH  18  19
ATOM     19  S   UNL     1       1.554   9.268  22.257  0.00  0.00    +0.000 S 
BRANCH  19  20
ATOM     20  C   UNL     1       0.131  10.261  22.351  0.00  0.00    +0.000 A 
ATOM     21  N   UNL     1      -0.677  10.328  23.391  0.00  0.00    +0.000 NA
ATOM     22  N   UNL     1      -1.660  11.245  23.073  0.00  0.00    +0.000 NA
ATOM     23  C   UNL     1      -1.379  11.677  21.863  0.00  0.00    +0.000 A 
ATOM     24  C   UNL     1      -2.083  12.659  21.021  0.00  0.00    +0.000 C 
ATOM     25  O   UNL     1      -0.249  11.111  21.344  0.00  0.00    +0.000 OA
ENDBRANCH  19  20
ENDBRANCH  18  19
ENDBRANCH   5  18
TORSDOF 7
ENDMDL
MODEL 6
REMARK VINA RESULT:      -5.9      4.104      6.506
REMARK  Name = 
REMARK  9 active torsions:
REMARK  status: ('A' for Active; 'I' for Inactive)
REMARK    1  A    between atoms: C_1  and  O_2
REMARK    2  A    between atoms: O_2  and  C_3
REMARK    3  A    between atoms: C_3  and  C_4
REMARK    4  A    between atoms: C_4  and  N_5
REMARK    5  A    between atoms: C_9  and  C_10
REMARK    6  A    between atoms: C_14  and  C_16
REMARK    7  A    between atoms: C_16  and  S_17
REMARK    8  A    between atoms: S_17  and  C_18
REMARK    9  A    between atoms: C_21  and  C_22
REMARK                            x       y       z     vdW  Elec       q    Type
REMARK                         _______ _______ _______ _____ _____    ______ ____
ROOT
ATOM      1  C   UNL     1      -0.598  11.730  19.673  0.00  0.00    +0.000 C 
ATOM      2  C   UNL     1       0.735  11.975  18.970  0.00  0.00    +0.000 C 
ATOM      3  C   UNL     1       1.219  10.759  18.208  0.00  0.00    +0.000 C 
ATOM      4  N   UNL     1       1.304   9.561  19.039  0.00  0.00    +0.000 N 
ATOM      5  C   UNL     1       2.099   8.529  18.514  0.00  0.00    +0.000 C 
ATOM      6  O   UNL     1       2.681   8.659  17.433  0.00  0.00    +0.000 OA
ATOM      7  C   UNL     1       0.157   9.288  19.914  0.00  0.00    +0.000 C 
ATOM      8  C   UNL     1      -0.384  10.534  20.625  0.00  0.00    +0.000 C 
ENDROOT
BRANCH   1  13
ATOM      9  N   UNL     1      -3.149  11.880  19.120  0.00  0.00    +0.000 N 
ATOM     10  C   UNL     1      -3.958  11.266  18.201  0.00  0.00    +0.000 A 
ATOM     11  C   UNL     1      -3.113  10.668  17.305  0.00  0.00    +0.000 A 
ATOM     12  N   UNL     1      -1.815  10.867  17.670  0.00  0.00    +0.000 NA
ATOM     13  C   UNL     1      -1.836  11.548  18.807  0.00  0.00    +0.000 A 
BRANCH   9  14
ATOM     14  C   UNL     1      -3.601  12.726  20.205  0.00  0.00    +0.000 C 
BRANCH  14  15
ATOM     15  C   UNL     1      -5.054  12.592  20.668  0.00  0.00    +0.000 C 
BRANCH  15  17
ATOM     16  C   UNL     1      -4.294  13.277  22.807  0.00  0.00    +0.000 C 
ATOM     17  O   UNL     1      -5.042  12.316  22.073  0.00  0.00    +0.000 OA
ENDBRANCH  15  17
ENDBRANCH  14  15
ENDBRANCH   9  14
ENDBRANCH   1  13
BRANCH   5  18
ATOM     18  C   UNL     1       2.202   7.240  19.328  0.00  0.00    +0.000 C 
BRANCH  18  19
ATOM     19  S   UNL     1       2.452   5.778  18.271  0.00  0.00    +0.000 S 
BRANCH  19  20
ATOM     20  C   UNL     1       4.118   5.422  18.620  0.00  0.00    +0.000 A 
ATOM     21  N   UNL     1       4.543   4.359  19.276  0.00  0.00    +0.000 NA
ATOM     22  N   UNL     1       5.922   4.440  19.313  0.00  0.00    +0.000 NA
ATOM     23  C   UNL     1       6.240   5.544  18.672  0.00  0.00    +0.000 A 
ATOM     24  C   UNL     1       7.562   6.135  18.404  0.00  0.00    +0.000 C 
ATOM     25  O   UNL     1       5.152   6.215  18.190  0.00  0.00    +0.000 OA
ENDBRANCH  19  20
ENDBRANCH  18  19
ENDBRANCH   5  18
TORSDOF 7
ENDMDL
MODEL 7
REMARK VINA RESULT:      -5.9      4.412      6.521
REMARK  Name = 
REMARK  9 active torsions:
REMARK  status: ('A' for Active; 'I' for Inactive)
REMARK    1  A    between atoms: C_1  and  O_2
REMARK    2  A    between atoms: O_2  and  C_3
REMARK    3  A    between atoms: C_3  and  C_4
REMARK    4  A    between atoms: C_4  and  N_5
REMARK    5  A    between atoms: C_9  and  C_10
REMARK    6  A    between atoms: C_14  and  C_16
REMARK    7  A    between atoms: C_16  and  S_17
REMARK    8  A    between atoms: S_17  and  C_18
REMARK    9  A    between atoms: C_21  and  C_22
REMARK                            x       y       z     vdW  Elec       q    Type
REMARK                         _______ _______ _______ _____ _____    ______ ____
ROOT
ATOM      1  C   UNL     1       0.430  11.797  19.774  0.00  0.00    +0.000 C 
ATOM      2  C   UNL     1       1.622  11.852  18.821  0.00  0.00    +0.000 C 
ATOM      3  C   UNL     1       1.775  10.581  18.013  0.00  0.00    +0.000 C 
ATOM      4  N   UNL     1       1.853   9.382  18.843  0.00  0.00    +0.000 N 
ATOM      5  C   UNL     1       2.380   8.249  18.203  0.00  0.00    +0.000 C 
ATOM      6  O   UNL     1       2.753   8.296  17.027  0.00  0.00    +0.000 OA
ATOM      7  C   UNL     1       0.872   9.273  19.930  0.00  0.00    +0.000 C 
ATOM      8  C   UNL     1       0.658  10.582  20.698  0.00  0.00    +0.000 C 
ENDROOT
BRANCH   1  13
ATOM      9  N   UNL     1      -2.153  12.204  19.763  0.00  0.00    +0.000 N 
ATOM     10  C   UNL     1      -3.183  11.738  18.990  0.00  0.00    +0.000 A 
ATOM     11  C   UNL     1      -2.593  11.151  17.902  0.00  0.00    +0.000 A 
ATOM     12  N   UNL     1      -1.236  11.211  18.007  0.00  0.00    +0.000 NA
ATOM     13  C   UNL     1      -0.966  11.792  19.168  0.00  0.00    +0.000 A 
BRANCH   9  14
ATOM     14  C   UNL     1      -2.297  12.989  20.972  0.00  0.00    +0.000 C 
BRANCH  14  15
ATOM     15  C   UNL     1      -2.368  12.247  22.309  0.00  0.00    +0.000 C 
BRANCH  15  17
ATOM     16  C   UNL     1      -3.853  12.475  24.144  0.00  0.00    +0.000 C 
ATOM     17  O   UNL     1      -3.733  12.259  22.744  0.00  0.00    +0.000 OA
ENDBRANCH  15  17
ENDBRANCH  14  15
ENDBRANCH   9  14
ENDBRANCH   1  13
BRANCH   5  18
ATOM     18  C   UNL     1       2.460   6.958  19.016  0.00  0.00    +0.000 C 
BRANCH  18  19
ATOM     19  S   UNL     1       3.876   5.922  18.524  0.00  0.00    +0.000 S 
BRANCH  19  20
ATOM     20  C   UNL     1       3.547   4.485  19.445  0.00  0.00    +0.000 A 
ATOM     21  N   UNL     1       4.319   3.416  19.481  0.00  0.00    +0.000 NA
ATOM     22  N   UNL     1       3.718   2.520  20.345  0.00  0.00    +0.000 NA
ATOM     23  C   UNL     1       2.624   3.109  20.778  0.00  0.00    +0.000 A 
ATOM     24  C   UNL     1       1.596   2.624  21.714  0.00  0.00    +0.000 C 
ATOM     25  O   UNL     1       2.454   4.363  20.265  0.00  0.00    +0.000 OA
ENDBRANCH  19  20
ENDBRANCH  18  19
ENDBRANCH   5  18
TORSDOF 7
ENDMDL
MODEL 8
REMARK VINA RESULT:      -5.8      3.105      9.422
REMARK  Name = 
REMARK  9 active torsions:
REMARK  status: ('A' for Active; 'I' for Inactive)
REMARK    1  A    between atoms: C_1  and  O_2
REMARK    2  A    between atoms: O_2  and  C_3
REMARK    3  A    between atoms: C_3  and  C_4
REMARK    4  A    between atoms: C_4  and  N_5
REMARK    5  A    between atoms: C_9  and  C_10
REMARK    6  A    between atoms: C_14  and  C_16
REMARK    7  A    between atoms: C_16  and  S_17
REMARK    8  A    between atoms: S_17  and  C_18
REMARK    9  A    between atoms: C_21  and  C_22
REMARK                            x       y       z     vdW  Elec       q    Type
REMARK                         _______ _______ _______ _____ _____    ______ ____
ROOT
ATOM      1  C   UNL     1       3.681   4.388  18.500  0.00  0.00    +0.000 C 
ATOM      2  C   UNL     1       2.647   5.111  17.643  0.00  0.00    +0.000 C 
ATOM      3  C   UNL     1       2.530   6.579  17.992  0.00  0.00    +0.000 C 
ATOM      4  N   UNL     1       2.255   6.809  19.409  0.00  0.00    +0.000 N 
ATOM      5  C   UNL     1       1.753   8.083  19.718  0.00  0.00    +0.000 C 
ATOM      6  O   UNL     1       1.558   8.924  18.835  0.00  0.00    +0.000 OA
ATOM      7  C   UNL     1       3.059   6.038  20.365  0.00  0.00    +0.000 C 
ATOM      8  C   UNL     1       3.244   4.569  19.969  0.00  0.00    +0.000 C 
ENDROOT
BRANCH   1  13
ATOM      9  N   UNL     1       5.973   4.385  17.241  0.00  0.00    +0.000 N 
ATOM     10  C   UNL     1       7.263   4.648  17.618  0.00  0.00    +0.000 A 
ATOM     11  C   UNL     1       7.174   5.250  18.844  0.00  0.00    +0.000 A 
ATOM     12  N   UNL     1       5.873   5.327  19.243  0.00  0.00    +0.000 NA
ATOM     13  C   UNL     1       5.147   4.744  18.299  0.00  0.00    +0.000 A 
BRANCH   9  14
ATOM     14  C   UNL     1       5.566   3.840  15.961  0.00  0.00    +0.000 C 
BRANCH  14  15
ATOM     15  C   UNL     1       6.028   4.559  14.691  0.00  0.00    +0.000 C 
BRANCH  15  17
ATOM     16  C   UNL     1       6.704   3.846  12.533  0.00  0.00    +0.000 C 
ATOM     17  O   UNL     1       5.751   3.701  13.578  0.00  0.00    +0.000 OA
ENDBRANCH  15  17
ENDBRANCH  14  15
ENDBRANCH   9  14
ENDBRANCH   1  13
BRANCH   5  18
ATOM     18  C   UNL     1       1.473   8.389  21.188  0.00  0.00    +0.000 C 
BRANCH  18  19
ATOM     19  S   UNL     1      -0.306   8.604  21.519  0.00  0.00    +0.000 S 
BRANCH  19  20
ATOM     20  C   UNL     1      -0.404  10.338  21.587  0.00  0.00    +0.000 A 
ATOM     21  N   UNL     1      -0.129  11.151  20.585  0.00  0.00    +0.000 NA
ATOM     22  N   UNL     1      -0.357  12.436  21.042  0.00  0.00    +0.000 NA
ATOM     23  C   UNL     1      -0.759  12.314  22.288  0.00  0.00    +0.000 A 
ATOM     24  C   UNL     1      -1.140  13.348  23.265  0.00  0.00    +0.000 C 
ATOM     25  O   UNL     1      -0.829  11.014  22.703  0.00  0.00    +0.000 OA
ENDBRANCH  19  20
ENDBRANCH  18  19
ENDBRANCH   5  18
TORSDOF 7
ENDMDL
MODEL 9
REMARK VINA RESULT:      -5.8      3.215      8.951
REMARK  Name = 
REMARK  9 active torsions:
REMARK  status: ('A' for Active; 'I' for Inactive)
REMARK    1  A    between atoms: C_1  and  O_2
REMARK    2  A    between atoms: O_2  and  C_3
REMARK    3  A    between atoms: C_3  and  C_4
REMARK    4  A    between atoms: C_4  and  N_5
REMARK    5  A    between atoms: C_9  and  C_10
REMARK    6  A    between atoms: C_14  and  C_16
REMARK    7  A    between atoms: C_16  and  S_17
REMARK    8  A    between atoms: S_17  and  C_18
REMARK    9  A    between atoms: C_21  and  C_22
REMARK                            x       y       z     vdW  Elec       q    Type
REMARK                         _______ _______ _______ _____ _____    ______ ____
ROOT
ATOM      1  C   UNL     1       3.991   4.714  18.478  0.00  0.00    +0.000 C 
ATOM      2  C   UNL     1       3.108   5.368  17.420  0.00  0.00    +0.000 C 
ATOM      3  C   UNL     1       2.886   6.843  17.682  0.00  0.00    +0.000 C 
ATOM      4  N   UNL     1       2.353   7.112  19.015  0.00  0.00    +0.000 N 
ATOM      5  C   UNL     1       1.766   8.377  19.176  0.00  0.00    +0.000 C 
ATOM      6  O   UNL     1       1.710   9.178  18.239  0.00  0.00    +0.000 OA
ATOM      7  C   UNL     1       2.993   6.406  20.131  0.00  0.00    +0.000 C 
ATOM      8  C   UNL     1       3.290   4.931  19.836  0.00  0.00    +0.000 C 
ENDROOT
BRANCH   1  13
ATOM      9  N   UNL     1       6.343   5.243  17.465  0.00  0.00    +0.000 N 
ATOM     10  C   UNL     1       7.607   5.313  17.988  0.00  0.00    +0.000 A 
ATOM     11  C   UNL     1       7.444   5.331  19.347  0.00  0.00    +0.000 A 
ATOM     12  N   UNL     1       6.124   5.235  19.670  0.00  0.00    +0.000 NA
ATOM     13  C   UNL     1       5.458   5.116  18.529  0.00  0.00    +0.000 A 
BRANCH   9  14
ATOM     14  C   UNL     1       6.012   5.301  16.056  0.00  0.00    +0.000 C 
BRANCH  14  15
ATOM     15  C   UNL     1       6.178   4.028  15.223  0.00  0.00    +0.000 C 
BRANCH  15  17
ATOM     16  C   UNL     1       6.146   3.568  12.897  0.00  0.00    +0.000 C 
ATOM     17  O   UNL     1       6.646   4.412  13.925  0.00  0.00    +0.000 OA
ENDBRANCH  15  17
ENDBRANCH  14  15
ENDBRANCH   9  14
ENDBRANCH   1  13
BRANCH   5  18
ATOM     18  C   UNL     1       1.216   8.724  20.558  0.00  0.00    +0.000 C 
BRANCH  18  19
ATOM     19  S   UNL     1      -0.254   9.797  20.464  0.00  0.00    +0.000 S 
BRANCH  19  20
ATOM     20  C   UNL     1       0.501  11.362  20.464  0.00  0.00    +0.000 A 
ATOM     21  N   UNL     1       1.126  11.901  21.493  0.00  0.00    +0.000 NA
ATOM     22  N   UNL     1       1.601  13.129  21.072  0.00  0.00    +0.000 NA
ATOM     23  C   UNL     1       1.236  13.249  19.814  0.00  0.00    +0.000 A 
ATOM     24  C   UNL     1       1.466  14.350  18.864  0.00  0.00    +0.000 C 
ATOM     25  O   UNL     1       0.547  12.164  19.351  0.00  0.00    +0.000 OA
ENDBRANCH  19  20
ENDBRANCH  18  19
ENDBRANCH   5  18
TORSDOF 7
ENDMDL
