MODEL 1
REMARK VINA RESULT:      -7.5      0.000      0.000
REMARK  Name = 
REMARK  5 active torsions:
REMARK  status: ('A' for Active; 'I' for Inactive)
REMARK    1  A    between atoms: C_2  and  C_3
REMARK    2  A    between atoms: C_6  and  N_7
REMARK    3  A    between atoms: C_12  and  C_13
REMARK    4  A    between atoms: C_13  and  O_14
REMARK    5  A    between atoms: C_13  and  C_15
REMARK                            x       y       z     vdW  Elec       q    Type
REMARK                         _______ _______ _______ _____ _____    ______ ____
ROOT
ATOM      1  N   UNL     1       6.265   5.579  18.241  0.00  0.00    +0.000 N 
ATOM      2  C   UNL     1       7.197   5.782  19.259  0.00  0.00    +0.000 C 
ATOM      3  O   UNL     1       7.202   5.328  20.390  0.00  0.00    +0.000 OA
ATOM      4  O   UNL     1       8.175   6.639  18.838  0.00  0.00    +0.000 OA
ATOM      5  C   UNL     1       7.836   7.153  17.556  0.00  0.00    +0.000 C 
ATOM      6  C   UNL     1       6.643   6.341  17.079  0.00  0.00    +0.000 C 
ENDROOT
BRANCH   1  10
ATOM      7  C   UNL     1       2.543   3.532  18.524  0.00  0.00    +0.000 A 
ATOM      8  C   UNL     1       2.580   4.923  18.455  0.00  0.00    +0.000 A 
ATOM      9  C   UNL     1       3.806   5.595  18.392  0.00  0.00    +0.000 A 
ATOM     10  C   UNL     1       5.022   4.900  18.386  0.00  0.00    +0.000 A 
ATOM     11  C   UNL     1       4.968   3.502  18.488  0.00  0.00    +0.000 A 
ATOM     12  C   UNL     1       3.743   2.823  18.551  0.00  0.00    +0.000 A 
ATOM     13 CL   UNL     1       3.786   1.096  18.639  0.00  0.00    +0.000 Cl
BRANCH   7  15
ATOM     14  N   UNL     1       0.256   2.323  18.590  0.00  0.00    +0.000 NA
ATOM     15  C   UNL     1       1.270   2.879  18.567  0.00  0.00    +0.000 C 
ENDBRANCH   7  15
ENDBRANCH   1  10
BRANCH   6  16
ATOM     16  C   UNL     1       6.951   5.560  15.785  0.00  0.00    +0.000 C 
BRANCH  16  17
ATOM     17  C   UNL     1       5.733   5.229  14.903  0.00  0.00    +0.000 C 
ATOM     18  F   UNL     1       4.995   4.208  15.373  0.00  0.00    +0.000 F 
ATOM     19  F   UNL     1       4.923   6.302  14.773  0.00  0.00    +0.000 F 
ATOM     20  F   UNL     1       6.149   4.879  13.661  0.00  0.00    +0.000 F 
ENDBRANCH  16  17
BRANCH  16  21
ATOM     21  O   UNL     1       7.707   4.382  16.177  0.00  0.00    +0.000 OA
ATOM     22  H   UNL     1       7.401   3.625  15.637  0.00  0.00    +0.000 HD
ENDBRANCH  16  21
ENDBRANCH   6  16
TORSDOF 5
ENDMDL
MODEL 2
REMARK VINA RESULT:      -7.1      3.480      5.584
REMARK  Name = 
REMARK  5 active torsions:
REMARK  status: ('A' for Active; 'I' for Inactive)
REMARK    1  A    between atoms: C_2  and  C_3
REMARK    2  A    between atoms: C_6  and  N_7
REMARK    3  A    between atoms: C_12  and  C_13
REMARK    4  A    between atoms: C_13  and  O_14
REMARK    5  A    between atoms: C_13  and  C_15
REMARK                            x       y       z     vdW  Elec       q    Type
REMARK                         _______ _______ _______ _____ _____    ______ ____
ROOT
ATOM      1  N   UNL     1       3.519   3.445  19.609  0.00  0.00    +0.000 N 
ATOM      2  C   UNL     1       3.745   2.476  20.585  0.00  0.00    +0.000 C 
ATOM      3  O   UNL     1       4.769   1.859  20.825  0.00  0.00    +0.000 OA
ATOM      4  O   UNL     1       2.598   2.242  21.291  0.00  0.00    +0.000 OA
ATOM      5  C   UNL     1       1.521   2.956  20.696  0.00  0.00    +0.000 C 
ATOM      6  C   UNL     1       2.147   3.882  19.667  0.00  0.00    +0.000 C 
ENDROOT
BRANCH   1  10
ATOM      7  C   UNL     1       6.170   4.638  16.500  0.00  0.00    +0.000 A 
ATOM      8  C   UNL     1       5.045   3.869  16.211  0.00  0.00    +0.000 A 
ATOM      9  C   UNL     1       4.192   3.453  17.238  0.00  0.00    +0.000 A 
ATOM     10  C   UNL     1       4.431   3.800  18.574  0.00  0.00    +0.000 A 
ATOM     11  C   UNL     1       5.585   4.548  18.851  0.00  0.00    +0.000 A 
ATOM     12  C   UNL     1       6.444   4.969  17.826  0.00  0.00    +0.000 A 
ATOM     13 CL   UNL     1       7.820   5.917  18.271  0.00  0.00    +0.000 Cl
BRANCH   7  15
ATOM     14  N   UNL     1       7.665   5.428  14.539  0.00  0.00    +0.000 NA
ATOM     15  C   UNL     1       7.010   5.062  15.420  0.00  0.00    +0.000 C 
ENDBRANCH   7  15
ENDBRANCH   1  10
BRANCH   6  16
ATOM     16  C   UNL     1       1.887   5.368  19.986  0.00  0.00    +0.000 C 
BRANCH  16  17
ATOM     17  C   UNL     1       2.325   6.367  18.899  0.00  0.00    +0.000 C 
ATOM     18  F   UNL     1       3.633   6.671  18.949  0.00  0.00    +0.000 F 
ATOM     19  F   UNL     1       2.056   5.889  17.665  0.00  0.00    +0.000 F 
ATOM     20  F   UNL     1       1.642   7.530  19.044  0.00  0.00    +0.000 F 
ENDBRANCH  16  17
BRANCH  16  21
ATOM     21  O   UNL     1       2.494   5.632  21.280  0.00  0.00    +0.000 OA
ATOM     22  H   UNL     1       3.337   6.107  21.135  0.00  0.00    +0.000 HD
ENDBRANCH  16  21
ENDBRANCH   6  16
TORSDOF 5
ENDMDL
MODEL 3
REMARK VINA RESULT:      -7.1      2.146      2.488
REMARK  Name = 
REMARK  5 active torsions:
REMARK  status: ('A' for Active; 'I' for Inactive)
REMARK    1  A    between atoms: C_2  and  C_3
REMARK    2  A    between atoms: C_6  and  N_7
REMARK    3  A    between atoms: C_12  and  C_13
REMARK    4  A    between atoms: C_13  and  O_14
REMARK    5  A    between atoms: C_13  and  C_15
REMARK                            x       y       z     vdW  Elec       q    Type
REMARK                         _______ _______ _______ _____ _____    ______ ____
ROOT
ATOM      1  N   UNL     1       5.893   5.657  18.402  0.00  0.00    +0.000 N 
ATOM      2  C   UNL     1       7.219   5.756  18.822  0.00  0.00    +0.000 C 
ATOM      3  O   UNL     1       7.769   5.190  19.752  0.00  0.00    +0.000 OA
ATOM      4  O   UNL     1       7.896   6.649  18.040  0.00  0.00    +0.000 OA
ATOM      5  C   UNL     1       6.985   7.289  17.155  0.00  0.00    +0.000 C 
ATOM      6  C   UNL     1       5.674   6.531  17.279  0.00  0.00    +0.000 C 
ENDROOT
BRANCH   1  10
ATOM      7  C   UNL     1       2.871   3.631  20.612  0.00  0.00    +0.000 A 
ATOM      8  C   UNL     1       3.967   2.932  20.111  0.00  0.00    +0.000 A 
ATOM      9  C   UNL     1       4.944   3.594  19.360  0.00  0.00    +0.000 A 
ATOM     10  C   UNL     1       4.859   4.968  19.097  0.00  0.00    +0.000 A 
ATOM     11  C   UNL     1       3.733   5.650  19.581  0.00  0.00    +0.000 A 
ATOM     12  C   UNL     1       2.751   4.992  20.336  0.00  0.00    +0.000 A 
ATOM     13 CL   UNL     1       1.420   5.932  20.916  0.00  0.00    +0.000 Cl
BRANCH   7  15
ATOM     14  N   UNL     1       1.110   2.380  22.039  0.00  0.00    +0.000 NA
ATOM     15  C   UNL     1       1.902   2.923  21.393  0.00  0.00    +0.000 C 
ENDBRANCH   7  15
ENDBRANCH   1  10
BRANCH   6  16
ATOM     16  C   UNL     1       5.249   5.882  15.945  0.00  0.00    +0.000 C 
BRANCH  16  17
ATOM     17  C   UNL     1       6.057   4.640  15.524  0.00  0.00    +0.000 C 
ATOM     18  F   UNL     1       7.384   4.789  15.679  0.00  0.00    +0.000 F 
ATOM     19  F   UNL     1       5.676   3.552  16.228  0.00  0.00    +0.000 F 
ATOM     20  F   UNL     1       5.839   4.375  14.212  0.00  0.00    +0.000 F 
ENDBRANCH  16  17
BRANCH  16  21
ATOM     21  O   UNL     1       5.260   6.935  14.944  0.00  0.00    +0.000 OA
ATOM     22  H   UNL     1       4.630   7.631  15.221  0.00  0.00    +0.000 HD
ENDBRANCH  16  21
ENDBRANCH   6  16
TORSDOF 5
ENDMDL
MODEL 4
REMARK VINA RESULT:      -7.0      4.644      6.093
REMARK  Name = 
REMARK  5 active torsions:
REMARK  status: ('A' for Active; 'I' for Inactive)
REMARK    1  A    between atoms: C_2  and  C_3
REMARK    2  A    between atoms: C_6  and  N_7
REMARK    3  A    between atoms: C_12  and  C_13
REMARK    4  A    between atoms: C_13  and  O_14
REMARK    5  A    between atoms: C_13  and  C_15
REMARK                            x       y       z     vdW  Elec       q    Type
REMARK                         _______ _______ _______ _____ _____    ______ ____
ROOT
ATOM      1  N   UNL     1       3.502   5.028  19.172  0.00  0.00    +0.000 N 
ATOM      2  C   UNL     1       4.853   4.745  19.373  0.00  0.00    +0.000 C 
ATOM      3  O   UNL     1       5.760   5.511  19.651  0.00  0.00    +0.000 OA
ATOM      4  O   UNL     1       5.088   3.412  19.183  0.00  0.00    +0.000 OA
ATOM      5  C   UNL     1       3.906   2.786  18.698  0.00  0.00    +0.000 C 
ATOM      6  C   UNL     1       2.799   3.818  18.829  0.00  0.00    +0.000 C 
ENDROOT
BRANCH   1  10
ATOM      7  C   UNL     1       1.679   8.866  18.917  0.00  0.00    +0.000 A 
ATOM      8  C   UNL     1       2.400   8.355  17.840  0.00  0.00    +0.000 A 
ATOM      9  C   UNL     1       3.024   7.106  17.937  0.00  0.00    +0.000 A 
ATOM     10  C   UNL     1       2.936   6.333  19.102  0.00  0.00    +0.000 A 
ATOM     11  C   UNL     1       2.233   6.876  20.187  0.00  0.00    +0.000 A 
ATOM     12  C   UNL     1       1.605   8.126  20.096  0.00  0.00    +0.000 A 
ATOM     13 CL   UNL     1       0.733   8.689  21.479  0.00  0.00    +0.000 Cl
BRANCH   7  15
ATOM     14  N   UNL     1       0.491  11.150  18.649  0.00  0.00    +0.000 NA
ATOM     15  C   UNL     1       1.038  10.138  18.774  0.00  0.00    +0.000 C 
ENDBRANCH   7  15
ENDBRANCH   1  10
BRANCH   6  16
ATOM     16  C   UNL     1       1.679   3.353  19.783  0.00  0.00    +0.000 C 
BRANCH  16  17
ATOM     17  C   UNL     1       2.102   3.140  21.248  0.00  0.00    +0.000 C 
ATOM     18  F   UNL     1       3.173   2.340  21.385  0.00  0.00    +0.000 F 
ATOM     19  F   UNL     1       2.384   4.318  21.847  0.00  0.00    +0.000 F 
ATOM     20  F   UNL     1       1.086   2.564  21.938  0.00  0.00    +0.000 F 
ENDBRANCH  16  17
BRANCH  16  21
ATOM     21  O   UNL     1       1.084   2.169  19.184  0.00  0.00    +0.000 OA
ATOM     22  H   UNL     1       1.133   1.438  19.833  0.00  0.00    +0.000 HD
ENDBRANCH  16  21
ENDBRANCH   6  16
TORSDOF 5
ENDMDL
MODEL 5
REMARK VINA RESULT:      -7.0      1.701      2.093
REMARK  Name = 
REMARK  5 active torsions:
REMARK  status: ('A' for Active; 'I' for Inactive)
REMARK    1  A    between atoms: C_2  and  C_3
REMARK    2  A    between atoms: C_6  and  N_7
REMARK    3  A    between atoms: C_12  and  C_13
REMARK    4  A    between atoms: C_13  and  O_14
REMARK    5  A    between atoms: C_13  and  C_15
REMARK                            x       y       z     vdW  Elec       q    Type
REMARK                         _______ _______ _______ _____ _____    ______ ____
ROOT
ATOM      1  N   UNL     1       6.457   5.620  18.654  0.00  0.00    +0.000 N 
ATOM      2  C   UNL     1       7.572   5.916  19.437  0.00  0.00    +0.000 C 
ATOM      3  O   UNL     1       7.825   5.554  20.573  0.00  0.00    +0.000 OA
ATOM      4  O   UNL     1       8.416   6.749  18.757  0.00  0.00    +0.000 OA
ATOM      5  C   UNL     1       7.804   7.155  17.539  0.00  0.00    +0.000 C 
ATOM      6  C   UNL     1       6.563   6.292  17.384  0.00  0.00    +0.000 C 
ENDROOT
BRANCH   1  10
ATOM      7  C   UNL     1       3.025   3.594  20.148  0.00  0.00    +0.000 A 
ATOM      8  C   UNL     1       4.136   2.874  19.715  0.00  0.00    +0.000 A 
ATOM      9  C   UNL     1       5.251   3.541  19.197  0.00  0.00    +0.000 A 
ATOM     10  C   UNL     1       5.291   4.938  19.106  0.00  0.00    +0.000 A 
ATOM     11  C   UNL     1       4.152   5.646  19.517  0.00  0.00    +0.000 A 
ATOM     12  C   UNL     1       3.031   4.983  20.038  0.00  0.00    +0.000 A 
ATOM     13 CL   UNL     1       1.692   5.951  20.549  0.00  0.00    +0.000 Cl
BRANCH   7  15
ATOM     14  N   UNL     1       0.991   2.327  21.129  0.00  0.00    +0.000 NA
ATOM     15  C   UNL     1       1.910   2.878  20.692  0.00  0.00    +0.000 C 
ENDBRANCH   7  15
ENDBRANCH   1  10
BRANCH   6  16
ATOM     16  C   UNL     1       6.620   5.413  16.117  0.00  0.00    +0.000 C 
BRANCH  16  17
ATOM     17  C   UNL     1       5.287   4.768  15.697  0.00  0.00    +0.000 C 
ATOM     18  F   UNL     1       4.212   5.351  16.254  0.00  0.00    +0.000 F 
ATOM     19  F   UNL     1       5.131   4.805  14.356  0.00  0.00    +0.000 F 
ATOM     20  F   UNL     1       5.270   3.465  16.073  0.00  0.00    +0.000 F 
ENDBRANCH  16  17
BRANCH  16  21
ATOM     21  O   UNL     1       7.682   4.443  16.327  0.00  0.00    +0.000 OA
ATOM     22  H   UNL     1       7.592   4.079  17.231  0.00  0.00    +0.000 HD
ENDBRANCH  16  21
ENDBRANCH   6  16
TORSDOF 5
ENDMDL
MODEL 6
REMARK VINA RESULT:      -6.9      4.066      5.476
REMARK  Name = 
REMARK  5 active torsions:
REMARK  status: ('A' for Active; 'I' for Inactive)
REMARK    1  A    between atoms: C_2  and  C_3
REMARK    2  A    between atoms: C_6  and  N_7
REMARK    3  A    between atoms: C_12  and  C_13
REMARK    4  A    between atoms: C_13  and  O_14
REMARK    5  A    between atoms: C_13  and  C_15
REMARK                            x       y       z     vdW  Elec       q    Type
REMARK                         _______ _______ _______ _____ _____    ______ ____
ROOT
ATOM      1  N   UNL     1       4.033   4.974  19.057  0.00  0.00    +0.000 N 
ATOM      2  C   UNL     1       5.400   4.845  19.303  0.00  0.00    +0.000 C 
ATOM      3  O   UNL     1       6.200   5.702  19.635  0.00  0.00    +0.000 OA
ATOM      4  O   UNL     1       5.797   3.555  19.087  0.00  0.00    +0.000 OA
ATOM      5  C   UNL     1       4.715   2.810  18.541  0.00  0.00    +0.000 C 
ATOM      6  C   UNL     1       3.490   3.701  18.656  0.00  0.00    +0.000 C 
ENDROOT
BRANCH   1  10
ATOM      7  C   UNL     1       1.778   8.578  18.838  0.00  0.00    +0.000 A 
ATOM      8  C   UNL     1       2.556   8.166  17.758  0.00  0.00    +0.000 A 
ATOM      9  C   UNL     1       3.320   6.997  17.844  0.00  0.00    +0.000 A 
ATOM     10  C   UNL     1       3.320   6.205  18.999  0.00  0.00    +0.000 A 
ATOM     11  C   UNL     1       2.556   6.651  20.088  0.00  0.00    +0.000 A 
ATOM     12  C   UNL     1       1.787   7.821  20.009  0.00  0.00    +0.000 A 
ATOM     13 CL   UNL     1       0.853   8.264  21.395  0.00  0.00    +0.000 Cl
BRANCH   7  15
ATOM     14  N   UNL     1       0.335  10.712  18.591  0.00  0.00    +0.000 NA
ATOM     15  C   UNL     1       0.995   9.769  18.706  0.00  0.00    +0.000 C 
ENDBRANCH   7  15
ENDBRANCH   1  10
BRANCH   6  16
ATOM     16  C   UNL     1       2.400   3.079  19.554  0.00  0.00    +0.000 C 
BRANCH  16  17
ATOM     17  C   UNL     1       0.950   3.442  19.185  0.00  0.00    +0.000 C 
ATOM     18  F   UNL     1       0.172   2.370  18.956  0.00  0.00    +0.000 F 
ATOM     19  F   UNL     1       0.370   4.174  20.161  0.00  0.00    +0.000 F 
ATOM     20  F   UNL     1       0.939   4.189  18.054  0.00  0.00    +0.000 F 
ENDBRANCH  16  17
BRANCH  16  21
ATOM     21  O   UNL     1       2.742   3.419  20.925  0.00  0.00    +0.000 OA
ATOM     22  H   UNL     1       2.935   2.590  21.409  0.00  0.00    +0.000 HD
ENDBRANCH  16  21
ENDBRANCH   6  16
TORSDOF 5
ENDMDL
MODEL 7
REMARK VINA RESULT:      -6.8      3.878      5.911
REMARK  Name = 
REMARK  5 active torsions:
REMARK  status: ('A' for Active; 'I' for Inactive)
REMARK    1  A    between atoms: C_2  and  C_3
REMARK    2  A    between atoms: C_6  and  N_7
REMARK    3  A    between atoms: C_12  and  C_13
REMARK    4  A    between atoms: C_13  and  O_14
REMARK    5  A    between atoms: C_13  and  C_15
REMARK                            x       y       z     vdW  Elec       q    Type
REMARK                         _______ _______ _______ _____ _____    ______ ____
ROOT
ATOM      1  N   UNL     1       3.230   5.355  19.082  0.00  0.00    +0.000 N 
ATOM      2  C   UNL     1       2.438   6.467  19.363  0.00  0.00    +0.000 C 
ATOM      3  O   UNL     1       2.342   7.512  18.743  0.00  0.00    +0.000 OA
ATOM      4  O   UNL     1       1.740   6.267  20.521  0.00  0.00    +0.000 OA
ATOM      5  C   UNL     1       2.167   5.055  21.130  0.00  0.00    +0.000 C 
ATOM      6  C   UNL     1       3.050   4.359  20.107  0.00  0.00    +0.000 C 
ENDROOT
BRANCH   1  10
ATOM      7  C   UNL     1       6.127   5.266  15.964  0.00  0.00    +0.000 A 
ATOM      8  C   UNL     1       5.025   4.415  15.927  0.00  0.00    +0.000 A 
ATOM      9  C   UNL     1       4.090   4.425  16.968  0.00  0.00    +0.000 A 
ATOM     10  C   UNL     1       4.224   5.287  18.064  0.00  0.00    +0.000 A 
ATOM     11  C   UNL     1       5.356   6.115  18.101  0.00  0.00    +0.000 A 
ATOM     12  C   UNL     1       6.296   6.111  17.060  0.00  0.00    +0.000 A 
ATOM     13 CL   UNL     1       7.637   7.195  17.185  0.00  0.00    +0.000 Cl
BRANCH   7  15
ATOM     14  N   UNL     1       7.811   5.252  13.998  0.00  0.00    +0.000 NA
ATOM     15  C   UNL     1       7.052   5.241  14.871  0.00  0.00    +0.000 C 
ENDBRANCH   7  15
ENDBRANCH   1  10
BRANCH   6  16
ATOM     16  C   UNL     1       2.478   2.992  19.679  0.00  0.00    +0.000 C 
BRANCH  16  17
ATOM     17  C   UNL     1       1.095   3.034  19.004  0.00  0.00    +0.000 C 
ATOM     18  F   UNL     1       1.039   3.868  17.950  0.00  0.00    +0.000 F 
ATOM     19  F   UNL     1       0.724   1.806  18.581  0.00  0.00    +0.000 F 
ATOM     20  F   UNL     1       0.164   3.458  19.894  0.00  0.00    +0.000 F 
ENDBRANCH  16  17
BRANCH  16  21
ATOM     21  O   UNL     1       2.513   2.136  20.852  0.00  0.00    +0.000 OA
ATOM     22  H   UNL     1       1.596   2.005  21.167  0.00  0.00    +0.000 HD
ENDBRANCH  16  21
ENDBRANCH   6  16
TORSDOF 5
ENDMDL
MODEL 8
REMARK VINA RESULT:      -6.8      3.939      4.999
REMARK  Name = 
REMARK  5 active torsions:
REMARK  status: ('A' for Active; 'I' for Inactive)
REMARK    1  A    between atoms: C_2  and  C_3
REMARK    2  A    between atoms: C_6  and  N_7
REMARK    3  A    between atoms: C_12  and  C_13
REMARK    4  A    between atoms: C_13  and  O_14
REMARK    5  A    between atoms: C_13  and  C_15
REMARK                            x       y       z     vdW  Elec       q    Type
REMARK                         _______ _______ _______ _____ _____    ______ ____
ROOT
ATOM      1  N   UNL     1       3.016   5.085  18.299  0.00  0.00    +0.000 N 
ATOM      2  C   UNL     1       2.209   4.073  17.781  0.00  0.00    +0.000 C 
ATOM      3  O   UNL     1       1.071   4.149  17.351  0.00  0.00    +0.000 OA
ATOM      4  O   UNL     1       2.865   2.875  17.833  0.00  0.00    +0.000 OA
ATOM      5  C   UNL     1       4.092   3.036  18.534  0.00  0.00    +0.000 C 
ATOM      6  C   UNL     1       4.279   4.533  18.718  0.00  0.00    +0.000 C 
ENDROOT
BRANCH   1  10
ATOM      7  C   UNL     1       1.605   9.023  19.091  0.00  0.00    +0.000 A 
ATOM      8  C   UNL     1       2.019   8.666  17.810  0.00  0.00    +0.000 A 
ATOM      9  C   UNL     1       2.510   7.381  17.559  0.00  0.00    +0.000 A 
ATOM     10  C   UNL     1       2.592   6.417  18.572  0.00  0.00    +0.000 A 
ATOM     11  C   UNL     1       2.201   6.802  19.863  0.00  0.00    +0.000 A 
ATOM     12  C   UNL     1       1.706   8.089  20.121  0.00  0.00    +0.000 A 
ATOM     13 CL   UNL     1       1.218   8.451  21.740  0.00  0.00    +0.000 Cl
BRANCH   7  15
ATOM     14  N   UNL     1       0.701  11.419  19.467  0.00  0.00    +0.000 NA
ATOM     15  C   UNL     1       1.089  10.341  19.306  0.00  0.00    +0.000 C 
ENDBRANCH   7  15
ENDBRANCH   1  10
BRANCH   6  16
ATOM     16  C   UNL     1       5.551   5.052  18.017  0.00  0.00    +0.000 C 
BRANCH  16  17
ATOM     17  C   UNL     1       5.463   5.166  16.484  0.00  0.00    +0.000 C 
ATOM     18  F   UNL     1       4.797   4.149  15.910  0.00  0.00    +0.000 F 
ATOM     19  F   UNL     1       4.860   6.317  16.116  0.00  0.00    +0.000 F 
ATOM     20  F   UNL     1       6.711   5.171  15.953  0.00  0.00    +0.000 F 
ENDBRANCH  16  17
BRANCH  16  21
ATOM     21  O   UNL     1       6.649   4.211  18.464  0.00  0.00    +0.000 OA
ATOM     22  H   UNL     1       7.456   4.762  18.521  0.00  0.00    +0.000 HD
ENDBRANCH  16  21
ENDBRANCH   6  16
TORSDOF 5
ENDMDL
MODEL 9
REMARK VINA RESULT:      -6.8      1.160      1.537
REMARK  Name = 
REMARK  5 active torsions:
REMARK  status: ('A' for Active; 'I' for Inactive)
REMARK    1  A    between atoms: C_2  and  C_3
REMARK    2  A    between atoms: C_6  and  N_7
REMARK    3  A    between atoms: C_12  and  C_13
REMARK    4  A    between atoms: C_13  and  O_14
REMARK    5  A    between atoms: C_13  and  C_15
REMARK                            x       y       z     vdW  Elec       q    Type
REMARK                         _______ _______ _______ _____ _____    ______ ____
ROOT
ATOM      1  N   UNL     1       6.292   5.475  18.186  0.00  0.00    +0.000 N 
ATOM      2  C   UNL     1       7.167   5.739  19.240  0.00  0.00    +0.000 C 
ATOM      3  O   UNL     1       7.147   5.298  20.376  0.00  0.00    +0.000 OA
ATOM      4  O   UNL     1       8.114   6.643  18.850  0.00  0.00    +0.000 OA
ATOM      5  C   UNL     1       7.804   7.125  17.548  0.00  0.00    +0.000 C 
ATOM      6  C   UNL     1       6.678   6.245  17.031  0.00  0.00    +0.000 C 
ENDROOT
BRANCH   1  10
ATOM      7  C   UNL     1       2.651   3.314  18.624  0.00  0.00    +0.000 A 
ATOM      8  C   UNL     1       3.861   2.744  19.013  0.00  0.00    +0.000 A 
ATOM      9  C   UNL     1       5.060   3.444  18.841  0.00  0.00    +0.000 A 
ATOM     10  C   UNL     1       5.083   4.731  18.287  0.00  0.00    +0.000 A 
ATOM     11  C   UNL     1       3.859   5.278  17.871  0.00  0.00    +0.000 A 
ATOM     12  C   UNL     1       2.654   4.581  18.043  0.00  0.00    +0.000 A 
ATOM     13 CL   UNL     1       1.198   5.358  17.529  0.00  0.00    +0.000 Cl
BRANCH   7  15
ATOM     14  N   UNL     1       0.452   2.006  19.015  0.00  0.00    +0.000 NA
ATOM     15  C   UNL     1       1.443   2.575  18.835  0.00  0.00    +0.000 C 
ENDBRANCH   7  15
ENDBRANCH   1  10
BRANCH   6  16
ATOM     16  C   UNL     1       7.084   5.467  15.762  0.00  0.00    +0.000 C 
BRANCH  16  17
ATOM     17  C   UNL     1       5.925   5.065  14.832  0.00  0.00    +0.000 C 
ATOM     18  F   UNL     1       5.295   3.942  15.218  0.00  0.00    +0.000 F 
ATOM     19  F   UNL     1       5.005   6.050  14.749  0.00  0.00    +0.000 F 
ATOM     20  F   UNL     1       6.398   4.843  13.580  0.00  0.00    +0.000 F 
ENDBRANCH  16  17
BRANCH  16  21
ATOM     21  O   UNL     1       7.882   4.334  16.201  0.00  0.00    +0.000 OA
ATOM     22  H   UNL     1       8.770   4.407  15.796  0.00  0.00    +0.000 HD
ENDBRANCH  16  21
ENDBRANCH   6  16
TORSDOF 5
ENDMDL
