MODEL 1
REMARK VINA RESULT:      -8.6      0.000      0.000
REMARK  Name = 
REMARK  4 active torsions:
REMARK  status: ('A' for Active; 'I' for Inactive)
REMARK    1  A    between atoms: C_2  and  C_16
REMARK    2  A    between atoms: N_3  and  C_4
REMARK    3  A    between atoms: C_4  and  C_5
REMARK    4  A    between atoms: C_8  and  N_9
REMARK                            x       y       z     vdW  Elec       q    Type
REMARK                         _______ _______ _______ _____ _____    ______ ____
ROOT
ATOM      1  O   UNL     1       1.608   8.335  20.692  0.00  0.00    +0.000 OA
ATOM      2  C   UNL     1       1.751   7.946  19.533  0.00  0.00    +0.000 C 
ATOM      3  N   UNL     1       1.685   8.804  18.457  0.00  0.00    +0.000 N 
ATOM      4  H   UNL     1       1.731   8.462  17.509  0.00  0.00    +0.000 HD
ENDROOT
BRANCH   2   5
ATOM      5  C   UNL     1       2.121   6.513  19.277  0.00  0.00    +0.000 A 
ATOM      6  C   UNL     1       2.241   5.684  20.405  0.00  0.00    +0.000 A 
ATOM      7  C   UNL     1       3.069   4.556  20.372  0.00  0.00    +0.000 A 
ATOM      8  C   UNL     1       3.736   4.309  19.158  0.00  0.00    +0.000 A 
ATOM      9  C   UNL     1       3.103   4.762  17.995  0.00  0.00    +0.000 A 
ATOM     10  C   UNL     1       2.485   6.023  18.011  0.00  0.00    +0.000 A 
ATOM     11  N   UNL     1       3.769   4.042  17.015  0.00  0.00    +0.000 N 
ATOM     12  C   UNL     1       5.104   4.234  17.330  0.00  0.00    +0.000 A 
ATOM     13  C   UNL     1       6.222   4.305  16.505  0.00  0.00    +0.000 A 
ATOM     14  C   UNL     1       7.349   4.906  17.068  0.00  0.00    +0.000 A 
ATOM     15  C   UNL     1       7.361   5.314  18.406  0.00  0.00    +0.000 A 
ATOM     16  C   UNL     1       6.272   5.060  19.257  0.00  0.00    +0.000 A 
ATOM     17  C   UNL     1       5.107   4.493  18.708  0.00  0.00    +0.000 A 
ATOM     18  H   UNL     1       3.458   3.137  16.702  0.00  0.00    +0.000 HD
ENDBRANCH   2   5
BRANCH   3  19
ATOM     19  C   UNL     1       1.445  10.211  18.646  0.00  0.00    +0.000 C 
BRANCH  19  20
ATOM     20  C   UNL     1      -0.021  10.561  18.589  0.00  0.00    +0.000 A 
ATOM     21  C   UNL     1      -0.551  11.567  19.408  0.00  0.00    +0.000 A 
ATOM     22  C   UNL     1      -1.898  11.937  19.312  0.00  0.00    +0.000 A 
ATOM     23  C   UNL     1      -2.751  11.308  18.389  0.00  0.00    +0.000 A 
ATOM     24  C   UNL     1      -2.229  10.289  17.584  0.00  0.00    +0.000 A 
ATOM     25  C   UNL     1      -0.874   9.924  17.682  0.00  0.00    +0.000 A 
BRANCH  23  26
ATOM     26  N   UNL     1      -4.108  11.699  18.283  0.00  0.00    +0.000 N 
ATOM     27  C   UNL     1      -4.955  11.563  17.197  0.00  0.00    +0.000 A 
ATOM     28  C   UNL     1      -6.180  12.043  17.594  0.00  0.00    +0.000 A 
ATOM     29  N   UNL     1      -6.132  12.501  18.869  0.00  0.00    +0.000 NA
ATOM     30  C   UNL     1      -4.898  12.288  19.262  0.00  0.00    +0.000 A 
ENDBRANCH  23  26
ENDBRANCH  19  20
ENDBRANCH   3  19
TORSDOF 4
ENDMDL
MODEL 2
REMARK VINA RESULT:      -8.5      6.667      9.398
REMARK  Name = 
REMARK  4 active torsions:
REMARK  status: ('A' for Active; 'I' for Inactive)
REMARK    1  A    between atoms: C_2  and  C_16
REMARK    2  A    between atoms: N_3  and  C_4
REMARK    3  A    between atoms: C_4  and  C_5
REMARK    4  A    between atoms: C_8  and  N_9
REMARK                            x       y       z     vdW  Elec       q    Type
REMARK                         _______ _______ _______ _____ _____    ______ ____
ROOT
ATOM      1  O   UNL     1       8.375   6.479  19.420  0.00  0.00    +0.000 OA
ATOM      2  C   UNL     1       7.927   7.101  18.458  0.00  0.00    +0.000 C 
ATOM      3  N   UNL     1       8.248   8.420  18.223  0.00  0.00    +0.000 N 
ATOM      4  H   UNL     1       7.818   8.941  17.473  0.00  0.00    +0.000 HD
ENDROOT
BRANCH   2   5
ATOM      5  C   UNL     1       7.092   6.381  17.438  0.00  0.00    +0.000 A 
ATOM      6  C   UNL     1       6.266   7.178  16.628  0.00  0.00    +0.000 A 
ATOM      7  C   UNL     1       5.100   6.647  16.064  0.00  0.00    +0.000 A 
ATOM      8  C   UNL     1       4.834   5.294  16.342  0.00  0.00    +0.000 A 
ATOM      9  C   UNL     1       5.945   4.477  16.583  0.00  0.00    +0.000 A 
ATOM     10  C   UNL     1       6.996   4.981  17.367  0.00  0.00    +0.000 A 
ATOM     11  N   UNL     1       5.403   3.211  16.422  0.00  0.00    +0.000 N 
ATOM     12  C   UNL     1       4.254   3.256  17.195  0.00  0.00    +0.000 A 
ATOM     13  C   UNL     1       3.615   2.251  17.915  0.00  0.00    +0.000 A 
ATOM     14  C   UNL     1       2.734   2.688  18.905  0.00  0.00    +0.000 A 
ATOM     15  C   UNL     1       2.454   4.047  19.080  0.00  0.00    +0.000 A 
ATOM     16  C   UNL     1       2.983   5.018  18.213  0.00  0.00    +0.000 A 
ATOM     17  C   UNL     1       3.906   4.613  17.231  0.00  0.00    +0.000 A 
ATOM     18  H   UNL     1       5.384   2.739  15.532  0.00  0.00    +0.000 HD
ENDBRANCH   2   5
BRANCH   3  19
ATOM     19  C   UNL     1       9.135   9.135  19.104  0.00  0.00    +0.000 C 
BRANCH  19  20
ATOM     20  C   UNL     1       9.398  10.547  18.641  0.00  0.00    +0.000 A 
ATOM     21  C   UNL     1       8.382  11.309  18.050  0.00  0.00    +0.000 A 
ATOM     22  C   UNL     1       8.605  12.640  17.678  0.00  0.00    +0.000 A 
ATOM     23  C   UNL     1       9.856  13.243  17.890  0.00  0.00    +0.000 A 
ATOM     24  C   UNL     1      10.879  12.478  18.462  0.00  0.00    +0.000 A 
ATOM     25  C   UNL     1      10.648  11.143  18.838  0.00  0.00    +0.000 A 
BRANCH  23  26
ATOM     26  N   UNL     1      10.072  14.596  17.527  0.00  0.00    +0.000 N 
ATOM     27  C   UNL     1       9.219  15.673  17.699  0.00  0.00    +0.000 A 
ATOM     28  C   UNL     1       9.890  16.779  17.236  0.00  0.00    +0.000 A 
ATOM     29  N   UNL     1      11.112  16.441  16.755  0.00  0.00    +0.000 NA
ATOM     30  C   UNL     1      11.202  15.144  16.936  0.00  0.00    +0.000 A 
ENDBRANCH  23  26
ENDBRANCH  19  20
ENDBRANCH   3  19
TORSDOF 4
ENDMDL
MODEL 3
REMARK VINA RESULT:      -8.5      5.623      8.757
REMARK  Name = 
REMARK  4 active torsions:
REMARK  status: ('A' for Active; 'I' for Inactive)
REMARK    1  A    between atoms: C_2  and  C_16
REMARK    2  A    between atoms: N_3  and  C_4
REMARK    3  A    between atoms: C_4  and  C_5
REMARK    4  A    between atoms: C_8  and  N_9
REMARK                            x       y       z     vdW  Elec       q    Type
REMARK                         _______ _______ _______ _____ _____    ______ ____
ROOT
ATOM      1  O   UNL     1       7.306   5.368  17.851  0.00  0.00    +0.000 OA
ATOM      2  C   UNL     1       6.509   6.303  17.774  0.00  0.00    +0.000 C 
ATOM      3  N   UNL     1       6.911   7.619  17.852  0.00  0.00    +0.000 N 
ATOM      4  H   UNL     1       6.242   8.374  17.862  0.00  0.00    +0.000 HD
ENDROOT
BRANCH   2   5
ATOM      5  C   UNL     1       5.065   6.019  17.475  0.00  0.00    +0.000 A 
ATOM      6  C   UNL     1       4.182   7.110  17.549  0.00  0.00    +0.000 A 
ATOM      7  C   UNL     1       2.827   6.907  17.831  0.00  0.00    +0.000 A 
ATOM      8  C   UNL     1       2.420   5.573  18.010  0.00  0.00    +0.000 A 
ATOM      9  C   UNL     1       3.158   4.600  17.327  0.00  0.00    +0.000 A 
ATOM     10  C   UNL     1       4.556   4.724  17.278  0.00  0.00    +0.000 A 
ATOM     11  N   UNL     1       2.303   3.509  17.381  0.00  0.00    +0.000 N 
ATOM     12  C   UNL     1       1.941   3.454  18.717  0.00  0.00    +0.000 A 
ATOM     13  C   UNL     1       1.628   2.361  19.519  0.00  0.00    +0.000 A 
ATOM     14  C   UNL     1       1.707   2.582  20.895  0.00  0.00    +0.000 A 
ATOM     15  C   UNL     1       1.989   3.851  21.411  0.00  0.00    +0.000 A 
ATOM     16  C   UNL     1       2.122   4.969  20.570  0.00  0.00    +0.000 A 
ATOM     17  C   UNL     1       2.088   4.770  19.177  0.00  0.00    +0.000 A 
ATOM     18  H   UNL     1       1.611   3.328  16.672  0.00  0.00    +0.000 HD
ENDBRANCH   2   5
BRANCH   3  19
ATOM     19  C   UNL     1       8.300   7.959  18.026  0.00  0.00    +0.000 C 
BRANCH  19  20
ATOM     20  C   UNL     1       8.508   9.434  18.269  0.00  0.00    +0.000 A 
ATOM     21  C   UNL     1       9.322   9.880  19.318  0.00  0.00    +0.000 A 
ATOM     22  C   UNL     1       9.569  11.245  19.507  0.00  0.00    +0.000 A 
ATOM     23  C   UNL     1       9.003  12.201  18.646  0.00  0.00    +0.000 A 
ATOM     24  C   UNL     1       8.173  11.759  17.609  0.00  0.00    +0.000 A 
ATOM     25  C   UNL     1       7.933  10.387  17.422  0.00  0.00    +0.000 A 
BRANCH  23  26
ATOM     26  N   UNL     1       9.270  13.580  18.830  0.00  0.00    +0.000 N 
ATOM     27  C   UNL     1      10.490  14.192  19.067  0.00  0.00    +0.000 A 
ATOM     28  C   UNL     1      10.245  15.542  19.126  0.00  0.00    +0.000 A 
ATOM     29  N   UNL     1       8.924  15.804  18.966  0.00  0.00    +0.000 NA
ATOM     30  C   UNL     1       8.362  14.631  18.792  0.00  0.00    +0.000 A 
ENDBRANCH  23  26
ENDBRANCH  19  20
ENDBRANCH   3  19
TORSDOF 4
ENDMDL
MODEL 4
REMARK VINA RESULT:      -8.5      6.663      9.265
REMARK  Name = 
REMARK  4 active torsions:
REMARK  status: ('A' for Active; 'I' for Inactive)
REMARK    1  A    between atoms: C_2  and  C_16
REMARK    2  A    between atoms: N_3  and  C_4
REMARK    3  A    between atoms: C_4  and  C_5
REMARK    4  A    between atoms: C_8  and  N_9
REMARK                            x       y       z     vdW  Elec       q    Type
REMARK                         _______ _______ _______ _____ _____    ______ ____
ROOT
ATOM      1  O   UNL     1       8.389   6.403  19.424  0.00  0.00    +0.000 OA
ATOM      2  C   UNL     1       7.926   7.062  18.494  0.00  0.00    +0.000 C 
ATOM      3  N   UNL     1       8.251   8.386  18.299  0.00  0.00    +0.000 N 
ATOM      4  H   UNL     1       7.809   8.936  17.578  0.00  0.00    +0.000 HD
ENDROOT
BRANCH   2   5
ATOM      5  C   UNL     1       7.066   6.384  17.466  0.00  0.00    +0.000 A 
ATOM      6  C   UNL     1       6.227   7.214  16.704  0.00  0.00    +0.000 A 
ATOM      7  C   UNL     1       5.046   6.710  16.146  0.00  0.00    +0.000 A 
ATOM      8  C   UNL     1       4.779   5.349  16.379  0.00  0.00    +0.000 A 
ATOM      9  C   UNL     1       5.890   4.519  16.566  0.00  0.00    +0.000 A 
ATOM     10  C   UNL     1       6.960   4.988  17.345  0.00  0.00    +0.000 A 
ATOM     11  N   UNL     1       5.338   3.262  16.369  0.00  0.00    +0.000 N 
ATOM     12  C   UNL     1       4.206   3.283  17.168  0.00  0.00    +0.000 A 
ATOM     13  C   UNL     1       3.577   2.255  17.864  0.00  0.00    +0.000 A 
ATOM     14  C   UNL     1       2.719   2.659  18.889  0.00  0.00    +0.000 A 
ATOM     15  C   UNL     1       2.451   4.012  19.119  0.00  0.00    +0.000 A 
ATOM     16  C   UNL     1       2.966   5.012  18.278  0.00  0.00    +0.000 A 
ATOM     17  C   UNL     1       3.866   4.639  17.262  0.00  0.00    +0.000 A 
ATOM     18  H   UNL     1       5.297   2.824  15.464  0.00  0.00    +0.000 HD
ENDBRANCH   2   5
BRANCH   3  19
ATOM     19  C   UNL     1       9.161   9.064  19.187  0.00  0.00    +0.000 C 
BRANCH  19  20
ATOM     20  C   UNL     1       9.329  10.522  18.842  0.00  0.00    +0.000 A 
ATOM     21  C   UNL     1      10.371  11.276  19.398  0.00  0.00    +0.000 A 
ATOM     22  C   UNL     1      10.568  12.612  19.031  0.00  0.00    +0.000 A 
ATOM     23  C   UNL     1       9.722  13.230  18.093  0.00  0.00    +0.000 A 
ATOM     24  C   UNL     1       8.668  12.486  17.551  0.00  0.00    +0.000 A 
ATOM     25  C   UNL     1       8.478  11.142  17.921  0.00  0.00    +0.000 A 
BRANCH  23  26
ATOM     26  N   UNL     1       9.936  14.578  17.712  0.00  0.00    +0.000 N 
ATOM     27  C   UNL     1      11.031  15.118  17.057  0.00  0.00    +0.000 A 
ATOM     28  C   UNL     1      10.753  16.449  16.866  0.00  0.00    +0.000 A 
ATOM     29  N   UNL     1       9.549  16.777  17.398  0.00  0.00    +0.000 NA
ATOM     30  C   UNL     1       9.079  15.655  17.893  0.00  0.00    +0.000 A 
ENDBRANCH  23  26
ENDBRANCH  19  20
ENDBRANCH   3  19
TORSDOF 4
ENDMDL
MODEL 5
REMARK VINA RESULT:      -8.3      1.369      1.655
REMARK  Name = 
REMARK  4 active torsions:
REMARK  status: ('A' for Active; 'I' for Inactive)
REMARK    1  A    between atoms: C_2  and  C_16
REMARK    2  A    between atoms: N_3  and  C_4
REMARK    3  A    between atoms: C_4  and  C_5
REMARK    4  A    between atoms: C_8  and  N_9
REMARK                            x       y       z     vdW  Elec       q    Type
REMARK                         _______ _______ _______ _____ _____    ______ ____
ROOT
ATOM      1  O   UNL     1       1.573   8.018  20.504  0.00  0.00    +0.000 OA
ATOM      2  C   UNL     1       1.656   8.376  19.330  0.00  0.00    +0.000 C 
ATOM      3  N   UNL     1       1.217   9.611  18.905  0.00  0.00    +0.000 N 
ATOM      4  H   UNL     1       1.223   9.864  17.928  0.00  0.00    +0.000 HD
ENDROOT
BRANCH   2   5
ATOM      5  C   UNL     1       2.359   7.494  18.338  0.00  0.00    +0.000 A 
ATOM      6  C   UNL     1       1.993   6.137  18.336  0.00  0.00    +0.000 A 
ATOM      7  C   UNL     1       2.894   5.160  17.897  0.00  0.00    +0.000 A 
ATOM      8  C   UNL     1       4.146   5.621  17.453  0.00  0.00    +0.000 A 
ATOM      9  C   UNL     1       4.180   6.913  16.916  0.00  0.00    +0.000 A 
ATOM     10  C   UNL     1       3.436   7.925  17.546  0.00  0.00    +0.000 A 
ATOM     11  N   UNL     1       5.390   6.905  16.240  0.00  0.00    +0.000 N 
ATOM     12  C   UNL     1       6.276   6.401  17.177  0.00  0.00    +0.000 A 
ATOM     13  C   UNL     1       7.628   6.667  17.372  0.00  0.00    +0.000 A 
ATOM     14  C   UNL     1       8.134   6.326  18.628  0.00  0.00    +0.000 A 
ATOM     15  C   UNL     1       7.340   5.675  19.577  0.00  0.00    +0.000 A 
ATOM     16  C   UNL     1       6.031   5.261  19.276  0.00  0.00    +0.000 A 
ATOM     17  C   UNL     1       5.480   5.626  18.033  0.00  0.00    +0.000 A 
ATOM     18  H   UNL     1       5.471   6.620  15.277  0.00  0.00    +0.000 HD
ENDBRANCH   2   5
BRANCH   3  19
ATOM     19  C   UNL     1       0.635  10.548  19.831  0.00  0.00    +0.000 C 
BRANCH  19  20
ATOM     20  C   UNL     1      -0.785  10.910  19.472  0.00  0.00    +0.000 A 
ATOM     21  C   UNL     1      -1.461  11.927  20.159  0.00  0.00    +0.000 A 
ATOM     22  C   UNL     1      -2.756  12.309  19.787  0.00  0.00    +0.000 A 
ATOM     23  C   UNL     1      -3.408  11.679  18.714  0.00  0.00    +0.000 A 
ATOM     24  C   UNL     1      -2.743  10.649  18.039  0.00  0.00    +0.000 A 
ATOM     25  C   UNL     1      -1.441  10.273  18.414  0.00  0.00    +0.000 A 
BRANCH  23  26
ATOM     26  N   UNL     1      -4.712  12.080  18.330  0.00  0.00    +0.000 N 
ATOM     27  C   UNL     1      -5.288  12.026  17.072  0.00  0.00    +0.000 A 
ATOM     28  C   UNL     1      -6.577  12.480  17.214  0.00  0.00    +0.000 A 
ATOM     29  N   UNL     1      -6.826  12.845  18.496  0.00  0.00    +0.000 NA
ATOM     30  C   UNL     1      -5.710  12.601  19.143  0.00  0.00    +0.000 A 
ENDBRANCH  23  26
ENDBRANCH  19  20
ENDBRANCH   3  19
TORSDOF 4
ENDMDL
MODEL 6
REMARK VINA RESULT:      -8.3      1.402      2.011
REMARK  Name = 
REMARK  4 active torsions:
REMARK  status: ('A' for Active; 'I' for Inactive)
REMARK    1  A    between atoms: C_2  and  C_16
REMARK    2  A    between atoms: N_3  and  C_4
REMARK    3  A    between atoms: C_4  and  C_5
REMARK    4  A    between atoms: C_8  and  N_9
REMARK                            x       y       z     vdW  Elec       q    Type
REMARK                         _______ _______ _______ _____ _____    ______ ____
ROOT
ATOM      1  O   UNL     1       1.544   7.861  20.566  0.00  0.00    +0.000 OA
ATOM      2  C   UNL     1       1.639   8.261  19.406  0.00  0.00    +0.000 C 
ATOM      3  N   UNL     1       1.198   9.508  19.020  0.00  0.00    +0.000 N 
ATOM      4  H   UNL     1       1.215   9.796  18.053  0.00  0.00    +0.000 HD
ENDROOT
BRANCH   2   5
ATOM      5  C   UNL     1       2.360   7.418  18.393  0.00  0.00    +0.000 A 
ATOM      6  C   UNL     1       2.018   6.056  18.353  0.00  0.00    +0.000 A 
ATOM      7  C   UNL     1       2.937   5.107  17.890  0.00  0.00    +0.000 A 
ATOM      8  C   UNL     1       4.182   5.603  17.462  0.00  0.00    +0.000 A 
ATOM      9  C   UNL     1       4.193   6.909  16.960  0.00  0.00    +0.000 A 
ATOM     10  C   UNL     1       3.430   7.890  17.615  0.00  0.00    +0.000 A 
ATOM     11  N   UNL     1       5.404   6.941  16.286  0.00  0.00    +0.000 N 
ATOM     12  C   UNL     1       6.298   6.427  17.212  0.00  0.00    +0.000 A 
ATOM     13  C   UNL     1       7.644   6.712  17.417  0.00  0.00    +0.000 A 
ATOM     14  C   UNL     1       8.154   6.346  18.665  0.00  0.00    +0.000 A 
ATOM     15  C   UNL     1       7.370   5.655  19.594  0.00  0.00    +0.000 A 
ATOM     16  C   UNL     1       6.070   5.227  19.279  0.00  0.00    +0.000 A 
ATOM     17  C   UNL     1       5.514   5.615  18.045  0.00  0.00    +0.000 A 
ATOM     18  H   UNL     1       5.492   6.683  15.317  0.00  0.00    +0.000 HD
ENDBRANCH   2   5
BRANCH   3  19
ATOM     19  C   UNL     1       0.599  10.408  19.971  0.00  0.00    +0.000 C 
BRANCH  19  20
ATOM     20  C   UNL     1      -0.760  10.894  19.533  0.00  0.00    +0.000 A 
ATOM     21  C   UNL     1      -1.408  10.315  18.434  0.00  0.00    +0.000 A 
ATOM     22  C   UNL     1      -2.696  10.721  18.064  0.00  0.00    +0.000 A 
ATOM     23  C   UNL     1      -3.370  11.719  18.788  0.00  0.00    +0.000 A 
ATOM     24  C   UNL     1      -2.717  12.312  19.875  0.00  0.00    +0.000 A 
ATOM     25  C   UNL     1      -1.425  11.898  20.244  0.00  0.00    +0.000 A 
BRANCH  23  26
ATOM     26  N   UNL     1      -4.680  12.112  18.420  0.00  0.00    +0.000 N 
ATOM     27  C   UNL     1      -5.621  12.777  19.188  0.00  0.00    +0.000 A 
ATOM     28  C   UNL     1      -6.714  12.977  18.381  0.00  0.00    +0.000 A 
ATOM     29  N   UNL     1      -6.514  12.442  17.150  0.00  0.00    +0.000 NA
ATOM     30  C   UNL     1      -5.304  11.935  17.192  0.00  0.00    +0.000 A 
ENDBRANCH  23  26
ENDBRANCH  19  20
ENDBRANCH   3  19
TORSDOF 4
ENDMDL
MODEL 7
REMARK VINA RESULT:      -8.2      5.795      8.733
REMARK  Name = 
REMARK  4 active torsions:
REMARK  status: ('A' for Active; 'I' for Inactive)
REMARK    1  A    between atoms: C_2  and  C_16
REMARK    2  A    between atoms: N_3  and  C_4
REMARK    3  A    between atoms: C_4  and  C_5
REMARK    4  A    between atoms: C_8  and  N_9
REMARK                            x       y       z     vdW  Elec       q    Type
REMARK                         _______ _______ _______ _____ _____    ______ ____
ROOT
ATOM      1  O   UNL     1       7.171   5.503  19.151  0.00  0.00    +0.000 OA
ATOM      2  C   UNL     1       6.587   6.284  18.401  0.00  0.00    +0.000 C 
ATOM      3  N   UNL     1       7.157   7.467  17.984  0.00  0.00    +0.000 N 
ATOM      4  H   UNL     1       6.641   8.133  17.429  0.00  0.00    +0.000 HD
ENDROOT
BRANCH   2   5
ATOM      5  C   UNL     1       5.256   5.896  17.824  0.00  0.00    +0.000 A 
ATOM      6  C   UNL     1       4.323   6.931  17.646  0.00  0.00    +0.000 A 
ATOM      7  C   UNL     1       2.950   6.659  17.650  0.00  0.00    +0.000 A 
ATOM      8  C   UNL     1       2.583   5.312  17.822  0.00  0.00    +0.000 A 
ATOM      9  C   UNL     1       3.498   4.354  17.369  0.00  0.00    +0.000 A 
ATOM     10  C   UNL     1       4.867   4.563  17.605  0.00  0.00    +0.000 A 
ATOM     11  N   UNL     1       2.707   3.217  17.309  0.00  0.00    +0.000 N 
ATOM     12  C   UNL     1       2.073   3.204  18.541  0.00  0.00    +0.000 A 
ATOM     13  C   UNL     1       1.653   2.135  19.326  0.00  0.00    +0.000 A 
ATOM     14  C   UNL     1       1.427   2.428  20.672  0.00  0.00    +0.000 A 
ATOM     15  C   UNL     1       1.529   3.735  21.156  0.00  0.00    +0.000 A 
ATOM     16  C   UNL     1       1.780   4.816  20.295  0.00  0.00    +0.000 A 
ATOM     17  C   UNL     1       2.052   4.548  18.940  0.00  0.00    +0.000 A 
ATOM     18  H   UNL     1       2.192   2.958  16.484  0.00  0.00    +0.000 HD
ENDBRANCH   2   5
BRANCH   3  19
ATOM     19  C   UNL     1       8.479   7.844  18.413  0.00  0.00    +0.000 C 
BRANCH  19  20
ATOM     20  C   UNL     1       8.676   9.339  18.439  0.00  0.00    +0.000 A 
ATOM     21  C   UNL     1       8.000  10.167  17.533  0.00  0.00    +0.000 A 
ATOM     22  C   UNL     1       8.132  11.560  17.596  0.00  0.00    +0.000 A 
ATOM     23  C   UNL     1       8.945  12.160  18.572  0.00  0.00    +0.000 A 
ATOM     24  C   UNL     1       9.637  11.334  19.466  0.00  0.00    +0.000 A 
ATOM     25  C   UNL     1       9.498   9.936  19.400  0.00  0.00    +0.000 A 
BRANCH  23  26
ATOM     26  N   UNL     1       9.061  13.570  18.642  0.00  0.00    +0.000 N 
ATOM     27  C   UNL     1       8.326  14.451  19.418  0.00  0.00    +0.000 A 
ATOM     28  C   UNL     1       8.837  15.703  19.178  0.00  0.00    +0.000 A 
ATOM     29  N   UNL     1       9.839  15.653  18.264  0.00  0.00    +0.000 NA
ATOM     30  C   UNL     1       9.957  14.381  17.959  0.00  0.00    +0.000 A 
ENDBRANCH  23  26
ENDBRANCH  19  20
ENDBRANCH   3  19
TORSDOF 4
ENDMDL
MODEL 8
REMARK VINA RESULT:      -8.2      0.988      1.376
REMARK  Name = 
REMARK  4 active torsions:
REMARK  status: ('A' for Active; 'I' for Inactive)
REMARK    1  A    between atoms: C_2  and  C_16
REMARK    2  A    between atoms: N_3  and  C_4
REMARK    3  A    between atoms: C_4  and  C_5
REMARK    4  A    between atoms: C_8  and  N_9
REMARK                            x       y       z     vdW  Elec       q    Type
REMARK                         _______ _______ _______ _____ _____    ______ ____
ROOT
ATOM      1  O   UNL     1       2.419   9.440  17.584  0.00  0.00    +0.000 OA
ATOM      2  C   UNL     1       1.961   8.842  18.557  0.00  0.00    +0.000 C 
ATOM      3  N   UNL     1       1.189   9.472  19.509  0.00  0.00    +0.000 N 
ATOM      4  H   UNL     1       0.880   8.989  20.339  0.00  0.00    +0.000 HD
ENDROOT
BRANCH   2   5
ATOM      5  C   UNL     1       2.147   7.356  18.664  0.00  0.00    +0.000 A 
ATOM      6  C   UNL     1       2.113   6.811  19.959  0.00  0.00    +0.000 A 
ATOM      7  C   UNL     1       2.785   5.617  20.244  0.00  0.00    +0.000 A 
ATOM      8  C   UNL     1       3.459   5.009  19.169  0.00  0.00    +0.000 A 
ATOM      9  C   UNL     1       2.936   5.245  17.893  0.00  0.00    +0.000 A 
ATOM     10  C   UNL     1       2.491   6.539  17.574  0.00  0.00    +0.000 A 
ATOM     11  N   UNL     1       3.538   4.239  17.152  0.00  0.00    +0.000 N 
ATOM     12  C   UNL     1       4.874   4.338  17.506  0.00  0.00    +0.000 A 
ATOM     13  C   UNL     1       6.022   4.077  16.765  0.00  0.00    +0.000 A 
ATOM     14  C   UNL     1       7.196   4.655  17.251  0.00  0.00    +0.000 A 
ATOM     15  C   UNL     1       7.211   5.365  18.455  0.00  0.00    +0.000 A 
ATOM     16  C   UNL     1       6.067   5.453  19.266  0.00  0.00    +0.000 A 
ATOM     17  C   UNL     1       4.858   4.915  18.783  0.00  0.00    +0.000 A 
ATOM     18  H   UNL     1       3.122   3.329  17.037  0.00  0.00    +0.000 HD
ENDBRANCH   2   5
BRANCH   3  19
ATOM     19  C   UNL     1       0.881  10.875  19.402  0.00  0.00    +0.000 C 
BRANCH  19  20
ATOM     20  C   UNL     1      -0.577  11.127  19.109  0.00  0.00    +0.000 A 
ATOM     21  C   UNL     1      -1.272  10.332  18.188  0.00  0.00    +0.000 A 
ATOM     22  C   UNL     1      -2.640  10.523  17.960  0.00  0.00    +0.000 A 
ATOM     23  C   UNL     1      -3.349  11.519  18.653  0.00  0.00    +0.000 A 
ATOM     24  C   UNL     1      -2.654  12.328  19.559  0.00  0.00    +0.000 A 
ATOM     25  C   UNL     1      -1.281  12.129  19.786  0.00  0.00    +0.000 A 
BRANCH  23  26
ATOM     26  N   UNL     1      -4.738  11.696  18.432  0.00  0.00    +0.000 N 
ATOM     27  C   UNL     1      -5.384  11.991  17.244  0.00  0.00    +0.000 A 
ATOM     28  C   UNL     1      -6.728  12.014  17.526  0.00  0.00    +0.000 A 
ATOM     29  N   UNL     1      -6.954  11.777  18.842  0.00  0.00    +0.000 NA
ATOM     30  C   UNL     1      -5.763  11.590  19.363  0.00  0.00    +0.000 A 
ENDBRANCH  23  26
ENDBRANCH  19  20
ENDBRANCH   3  19
TORSDOF 4
ENDMDL
MODEL 9
REMARK VINA RESULT:      -8.2      0.915      1.423
REMARK  Name = 
REMARK  4 active torsions:
REMARK  status: ('A' for Active; 'I' for Inactive)
REMARK    1  A    between atoms: C_2  and  C_16
REMARK    2  A    between atoms: N_3  and  C_4
REMARK    3  A    between atoms: C_4  and  C_5
REMARK    4  A    between atoms: C_8  and  N_9
REMARK                            x       y       z     vdW  Elec       q    Type
REMARK                         _______ _______ _______ _____ _____    ______ ____
ROOT
ATOM      1  O   UNL     1       1.431   7.218  21.136  0.00  0.00    +0.000 OA
ATOM      2  C   UNL     1       1.801   7.098  19.968  0.00  0.00    +0.000 C 
ATOM      3  N   UNL     1       1.980   8.184  19.139  0.00  0.00    +0.000 N 
ATOM      4  H   UNL     1       2.212   8.068  18.164  0.00  0.00    +0.000 HD
ENDROOT
BRANCH   2   5
ATOM      5  C   UNL     1       2.181   5.740  19.451  0.00  0.00    +0.000 A 
ATOM      6  C   UNL     1       2.530   4.777  20.413  0.00  0.00    +0.000 A 
ATOM      7  C   UNL     1       3.387   3.722  20.082  0.00  0.00    +0.000 A 
ATOM      8  C   UNL     1       3.843   3.683  18.751  0.00  0.00    +0.000 A 
ATOM      9  C   UNL     1       2.999   4.245  17.787  0.00  0.00    +0.000 A 
ATOM     10  C   UNL     1       2.340   5.449  18.086  0.00  0.00    +0.000 A 
ATOM     11  N   UNL     1       3.514   3.710  16.617  0.00  0.00    +0.000 N 
ATOM     12  C   UNL     1       4.875   3.945  16.730  0.00  0.00    +0.000 A 
ATOM     13  C   UNL     1       5.829   4.201  15.750  0.00  0.00    +0.000 A 
ATOM     14  C   UNL     1       7.010   4.794  16.199  0.00  0.00    +0.000 A 
ATOM     15  C   UNL     1       7.236   5.019  17.560  0.00  0.00    +0.000 A 
ATOM     16  C   UNL     1       6.324   4.581  18.535  0.00  0.00    +0.000 A 
ATOM     17  C   UNL     1       5.106   4.017  18.111  0.00  0.00    +0.000 A 
ATOM     18  H   UNL     1       3.193   2.836  16.233  0.00  0.00    +0.000 HD
ENDBRANCH   2   5
BRANCH   3  19
ATOM     19  C   UNL     1       1.740   9.523  19.611  0.00  0.00    +0.000 C 
BRANCH  19  20
ATOM     20  C   UNL     1       0.393  10.054  19.187  0.00  0.00    +0.000 A 
ATOM     21  C   UNL     1      -0.190   9.649  17.979  0.00  0.00    +0.000 A 
ATOM     22  C   UNL     1      -1.467  10.090  17.613  0.00  0.00    +0.000 A 
ATOM     23  C   UNL     1      -2.195  10.952  18.451  0.00  0.00    +0.000 A 
ATOM     24  C   UNL     1      -1.607  11.375  19.649  0.00  0.00    +0.000 A 
ATOM     25  C   UNL     1      -0.326  10.924  20.013  0.00  0.00    +0.000 A 
BRANCH  23  26
ATOM     26  N   UNL     1      -3.495  11.382  18.085  0.00  0.00    +0.000 N 
ATOM     27  C   UNL     1      -4.435  12.028  18.869  0.00  0.00    +0.000 A 
ATOM     28  C   UNL     1      -5.514  12.279  18.058  0.00  0.00    +0.000 A 
ATOM     29  N   UNL     1      -5.307  11.794  16.808  0.00  0.00    +0.000 NA
ATOM     30  C   UNL     1      -4.105  11.267  16.843  0.00  0.00    +0.000 A 
ENDBRANCH  23  26
ENDBRANCH  19  20
ENDBRANCH   3  19
TORSDOF 4
ENDMDL
