MODEL 1
REMARK VINA RESULT:      -7.5      0.000      0.000
REMARK  Name = 
REMARK  8 active torsions:
REMARK  status: ('A' for Active; 'I' for Inactive)
REMARK    1  A    between atoms: C_1  and  O_2
REMARK    2  A    between atoms: O_2  and  C_3
REMARK    3  A    between atoms: C_6  and  O_7
REMARK    4  A    between atoms: O_7  and  C_8
REMARK    5  A    between atoms: C_9  and  C_10
REMARK    6  A    between atoms: C_12  and  C_13
REMARK    7  A    between atoms: N_24  and  C_25
REMARK    8  A    between atoms: C_25  and  C_26
REMARK                            x       y       z     vdW  Elec       q    Type
REMARK                         _______ _______ _______ _____ _____    ______ ____
ROOT
ATOM      1  C   UNL     1      -1.234  11.389  18.369  0.00  0.00    +0.000 A 
ATOM      2  C   UNL     1      -0.573  10.185  18.402  0.00  0.00    +0.000 A 
ATOM      3  C   UNL     1       0.769  10.212  18.714  0.00  0.00    +0.000 A 
ATOM      4  N   UNL     1       1.406  11.366  18.999  0.00  0.00    +0.000 NA
ATOM      5  C   UNL     1       0.705  12.509  18.974  0.00  0.00    +0.000 A 
ATOM      6  N   UNL     1       1.323  13.674  19.346  0.00  0.00    +0.000 N 
ATOM      7  C   UNL     1       0.591  14.936  19.387  0.00  0.00    +0.000 C 
ATOM      8  C   UNL     1       1.087  15.790  20.586  0.00  0.00    +0.000 C 
ATOM      9  N   UNL     1       2.563  15.960  20.692  0.00  0.00    +0.000 NA
ATOM     10  C   UNL     1       3.179  14.607  20.640  0.00  0.00    +0.000 C 
ATOM     11  C   UNL     1       2.778  13.754  19.417  0.00  0.00    +0.000 C 
ATOM     12  N   UNL     1      -0.598  12.545  18.671  0.00  0.00    +0.000 NA
ENDROOT
BRANCH   1  17
ATOM     13  C   UNL     1      -4.913  12.015  18.998  0.00  0.00    +0.000 A 
ATOM     14  C   UNL     1      -5.463  11.797  17.740  0.00  0.00    +0.000 A 
ATOM     15  C   UNL     1      -4.653  11.429  16.666  0.00  0.00    +0.000 A 
ATOM     16  C   UNL     1      -3.273  11.258  16.839  0.00  0.00    +0.000 A 
ATOM     17  C   UNL     1      -2.682  11.508  18.100  0.00  0.00    +0.000 A 
ATOM     18  C   UNL     1      -3.535  11.881  19.166  0.00  0.00    +0.000 A 
BRANCH  13  20
ATOM     19  C   UNL     1      -5.279  12.781  21.214  0.00  0.00    +0.000 C 
ATOM     20  O   UNL     1      -5.813  12.345  19.970  0.00  0.00    +0.000 OA
ENDBRANCH  13  20
BRANCH  16  21
ATOM     21  O   UNL     1      -2.446  10.907  15.798  0.00  0.00    +0.000 OA
ATOM     22  C   UNL     1      -3.064  10.198  14.725  0.00  0.00    +0.000 C 
ENDBRANCH  16  21
ENDBRANCH   1  17
BRANCH   3  23
ATOM     23  C   UNL     1       1.570   8.977  18.809  0.00  0.00    +0.000 A 
ATOM     24  C   UNL     1       2.366   8.538  17.742  0.00  0.00    +0.000 A 
ATOM     25  C   UNL     1       3.052   7.338  17.849  0.00  0.00    +0.000 A 
ATOM     26  N   UNL     1       3.013   6.550  18.939  0.00  0.00    +0.000 NA
ATOM     27  C   UNL     1       2.267   6.990  19.973  0.00  0.00    +0.000 A 
ATOM     28  C   UNL     1       1.545   8.176  19.958  0.00  0.00    +0.000 A 
ENDBRANCH   3  23
BRANCH   9  29
ATOM     29  C   UNL     1       3.043  16.855  19.627  0.00  0.00    +0.000 C 
BRANCH  29  30
ATOM     30  C   UNL     1       4.513  17.204  19.702  0.00  0.00    +0.000 A 
ATOM     31  C   UNL     1       4.995  17.997  20.757  0.00  0.00    +0.000 A 
ATOM     32  C   UNL     1       6.355  18.291  20.861  0.00  0.00    +0.000 A 
ATOM     33  C   UNL     1       7.248  17.796  19.915  0.00  0.00    +0.000 A 
ATOM     34  C   UNL     1       6.783  17.015  18.859  0.00  0.00    +0.000 A 
ATOM     35  C   UNL     1       5.422  16.722  18.750  0.00  0.00    +0.000 A 
ENDBRANCH  29  30
ENDBRANCH   9  29
TORSDOF 6
ENDMDL
MODEL 2
REMARK VINA RESULT:      -7.1      2.181      5.999
REMARK  Name = 
REMARK  8 active torsions:
REMARK  status: ('A' for Active; 'I' for Inactive)
REMARK    1  A    between atoms: C_1  and  O_2
REMARK    2  A    between atoms: O_2  and  C_3
REMARK    3  A    between atoms: C_6  and  O_7
REMARK    4  A    between atoms: O_7  and  C_8
REMARK    5  A    between atoms: C_9  and  C_10
REMARK    6  A    between atoms: C_12  and  C_13
REMARK    7  A    between atoms: N_24  and  C_25
REMARK    8  A    between atoms: C_25  and  C_26
REMARK                            x       y       z     vdW  Elec       q    Type
REMARK                         _______ _______ _______ _____ _____    ______ ____
ROOT
ATOM      1  C   UNL     1       0.699  10.192  18.878  0.00  0.00    +0.000 A 
ATOM      2  C   UNL     1      -0.627  10.195  18.519  0.00  0.00    +0.000 A 
ATOM      3  C   UNL     1      -1.256  11.419  18.439  0.00  0.00    +0.000 A 
ATOM      4  N   UNL     1      -0.595  12.570  18.680  0.00  0.00    +0.000 NA
ATOM      5  C   UNL     1       0.705  12.508  19.004  0.00  0.00    +0.000 A 
ATOM      6  N   UNL     1       1.404  13.676  19.165  0.00  0.00    +0.000 N 
ATOM      7  C   UNL     1       2.833  13.663  19.466  0.00  0.00    +0.000 C 
ATOM      8  C   UNL     1       3.532  14.843  18.736  0.00  0.00    +0.000 C 
ATOM      9  N   UNL     1       2.901  16.179  18.917  0.00  0.00    +0.000 NA
ATOM     10  C   UNL     1       1.460  16.050  18.577  0.00  0.00    +0.000 C 
ATOM     11  C   UNL     1       0.704  14.943  19.344  0.00  0.00    +0.000 C 
ATOM     12  N   UNL     1       1.365  11.348  19.103  0.00  0.00    +0.000 NA
ENDROOT
BRANCH   1  17
ATOM     13  C   UNL     1       3.155   7.502  17.854  0.00  0.00    +0.000 A 
ATOM     14  C   UNL     1       3.139   6.658  18.959  0.00  0.00    +0.000 A 
ATOM     15  C   UNL     1       2.320   6.939  20.053  0.00  0.00    +0.000 A 
ATOM     16  C   UNL     1       1.488   8.067  20.050  0.00  0.00    +0.000 A 
ATOM     17  C   UNL     1       1.512   8.961  18.955  0.00  0.00    +0.000 A 
ATOM     18  C   UNL     1       2.356   8.645  17.864  0.00  0.00    +0.000 A 
BRANCH  13  20
ATOM     19  C   UNL     1       5.116   6.333  17.205  0.00  0.00    +0.000 C 
ATOM     20  O   UNL     1       3.978   7.105  16.840  0.00  0.00    +0.000 OA
ENDBRANCH  13  20
BRANCH  16  21
ATOM     21  O   UNL     1       0.678   8.377  21.118  0.00  0.00    +0.000 OA
ATOM     22  C   UNL     1       1.311   9.056  22.201  0.00  0.00    +0.000 C 
ENDBRANCH  16  21
ENDBRANCH   1  17
BRANCH   3  23
ATOM     23  C   UNL     1      -2.668  11.543  18.033  0.00  0.00    +0.000 A 
ATOM     24  C   UNL     1      -3.654  11.969  18.934  0.00  0.00    +0.000 A 
ATOM     25  C   UNL     1      -4.979  12.010  18.529  0.00  0.00    +0.000 A 
ATOM     26  N   UNL     1      -5.394  11.668  17.295  0.00  0.00    +0.000 NA
ATOM     27  C   UNL     1      -4.438  11.285  16.424  0.00  0.00    +0.000 A 
ATOM     28  C   UNL     1      -3.088  11.212  16.738  0.00  0.00    +0.000 A 
ENDBRANCH   3  23
BRANCH   9  29
ATOM     29  C   UNL     1       3.131  16.661  20.289  0.00  0.00    +0.000 C 
BRANCH  29  30
ATOM     30  C   UNL     1       4.585  16.779  20.689  0.00  0.00    +0.000 A 
ATOM     31  C   UNL     1       5.082  16.026  21.766  0.00  0.00    +0.000 A 
ATOM     32  C   UNL     1       6.430  16.094  22.118  0.00  0.00    +0.000 A 
ATOM     33  C   UNL     1       7.297  16.912  21.399  0.00  0.00    +0.000 A 
ATOM     34  C   UNL     1       6.816  17.670  20.333  0.00  0.00    +0.000 A 
ATOM     35  C   UNL     1       5.466  17.607  19.980  0.00  0.00    +0.000 A 
ENDBRANCH  29  30
ENDBRANCH   9  29
TORSDOF 6
ENDMDL
MODEL 3
REMARK VINA RESULT:      -7.1      0.705      1.373
REMARK  Name = 
REMARK  8 active torsions:
REMARK  status: ('A' for Active; 'I' for Inactive)
REMARK    1  A    between atoms: C_1  and  O_2
REMARK    2  A    between atoms: O_2  and  C_3
REMARK    3  A    between atoms: C_6  and  O_7
REMARK    4  A    between atoms: O_7  and  C_8
REMARK    5  A    between atoms: C_9  and  C_10
REMARK    6  A    between atoms: C_12  and  C_13
REMARK    7  A    between atoms: N_24  and  C_25
REMARK    8  A    between atoms: C_25  and  C_26
REMARK                            x       y       z     vdW  Elec       q    Type
REMARK                         _______ _______ _______ _____ _____    ______ ____
ROOT
ATOM      1  C   UNL     1      -1.324  11.347  18.505  0.00  0.00    +0.000 A 
ATOM      2  C   UNL     1      -0.748  10.110  18.668  0.00  0.00    +0.000 A 
ATOM      3  C   UNL     1       0.593  10.076  18.985  0.00  0.00    +0.000 A 
ATOM      4  N   UNL     1       1.309  11.206  19.152  0.00  0.00    +0.000 NA
ATOM      5  C   UNL     1       0.689  12.387  19.003  0.00  0.00    +0.000 A 
ATOM      6  N   UNL     1       1.387  13.539  19.255  0.00  0.00    +0.000 N 
ATOM      7  C   UNL     1       0.744  14.846  19.159  0.00  0.00    +0.000 C 
ATOM      8  C   UNL     1       1.299  15.784  20.266  0.00  0.00    +0.000 C 
ATOM      9  N   UNL     1       2.783  15.861  20.363  0.00  0.00    +0.000 NA
ATOM     10  C   UNL     1       3.303  14.472  20.457  0.00  0.00    +0.000 C 
ATOM     11  C   UNL     1       2.843  13.525  19.327  0.00  0.00    +0.000 C 
ATOM     12  N   UNL     1      -0.609  12.481  18.689  0.00  0.00    +0.000 NA
ENDROOT
BRANCH   1  17
ATOM     13  C   UNL     1      -4.962  12.225  19.062  0.00  0.00    +0.000 A 
ATOM     14  C   UNL     1      -5.516  11.970  17.812  0.00  0.00    +0.000 A 
ATOM     15  C   UNL     1      -4.723  11.495  16.768  0.00  0.00    +0.000 A 
ATOM     16  C   UNL     1      -3.356  11.252  16.965  0.00  0.00    +0.000 A 
ATOM     17  C   UNL     1      -2.760  11.537  18.215  0.00  0.00    +0.000 A 
ATOM     18  C   UNL     1      -3.596  12.019  19.250  0.00  0.00    +0.000 A 
BRANCH  13  20
ATOM     19  C   UNL     1      -7.201  12.254  19.848  0.00  0.00    +0.000 C 
ATOM     20  O   UNL     1      -5.848  12.662  20.005  0.00  0.00    +0.000 OA
ENDBRANCH  13  20
BRANCH  16  21
ATOM     21  O   UNL     1      -2.545  10.795  15.952  0.00  0.00    +0.000 OA
ATOM     22  C   UNL     1      -3.197  10.503  14.717  0.00  0.00    +0.000 C 
ENDBRANCH  16  21
ENDBRANCH   1  17
BRANCH   3  23
ATOM     23  C   UNL     1       1.306   8.805  19.212  0.00  0.00    +0.000 A 
ATOM     24  C   UNL     1       1.226   8.131  20.439  0.00  0.00    +0.000 A 
ATOM     25  C   UNL     1       1.964   6.973  20.632  0.00  0.00    +0.000 A 
ATOM     26  N   UNL     1       2.765   6.433  19.696  0.00  0.00    +0.000 NA
ATOM     27  C   UNL     1       2.817   7.070  18.508  0.00  0.00    +0.000 A 
ATOM     28  C   UNL     1       2.116   8.234  18.222  0.00  0.00    +0.000 A 
ENDBRANCH   3  23
BRANCH   9  29
ATOM     29  C   UNL     1       3.324  16.605  19.214  0.00  0.00    +0.000 C 
BRANCH  29  30
ATOM     30  C   UNL     1       4.830  16.564  19.079  0.00  0.00    +0.000 A 
ATOM     31  C   UNL     1       5.436  15.615  18.239  0.00  0.00    +0.000 A 
ATOM     32  C   UNL     1       6.821  15.593  18.074  0.00  0.00    +0.000 A 
ATOM     33  C   UNL     1       7.616  16.519  18.743  0.00  0.00    +0.000 A 
ATOM     34  C   UNL     1       7.029  17.462  19.585  0.00  0.00    +0.000 A 
ATOM     35  C   UNL     1       5.643  17.484  19.756  0.00  0.00    +0.000 A 
ENDBRANCH  29  30
ENDBRANCH   9  29
TORSDOF 6
ENDMDL
MODEL 4
REMARK VINA RESULT:      -6.8      3.778      8.551
REMARK  Name = 
REMARK  8 active torsions:
REMARK  status: ('A' for Active; 'I' for Inactive)
REMARK    1  A    between atoms: C_1  and  O_2
REMARK    2  A    between atoms: O_2  and  C_3
REMARK    3  A    between atoms: C_6  and  O_7
REMARK    4  A    between atoms: O_7  and  C_8
REMARK    5  A    between atoms: C_9  and  C_10
REMARK    6  A    between atoms: C_12  and  C_13
REMARK    7  A    between atoms: N_24  and  C_25
REMARK    8  A    between atoms: C_25  and  C_26
REMARK                            x       y       z     vdW  Elec       q    Type
REMARK                         _______ _______ _______ _____ _____    ______ ____
ROOT
ATOM      1  C   UNL     1      -0.418  14.560  21.865  0.00  0.00    +0.000 A 
ATOM      2  C   UNL     1      -0.087  15.571  20.996  0.00  0.00    +0.000 A 
ATOM      3  C   UNL     1       0.602  15.221  19.855  0.00  0.00    +0.000 A 
ATOM      4  N   UNL     1       0.920  13.938  19.587  0.00  0.00    +0.000 NA
ATOM      5  C   UNL     1       0.550  12.989  20.461  0.00  0.00    +0.000 A 
ATOM      6  N   UNL     1       0.793  11.675  20.154  0.00  0.00    +0.000 N 
ATOM      7  C   UNL     1       0.363  10.602  21.046  0.00  0.00    +0.000 C 
ATOM      8  C   UNL     1      -0.104   9.381  20.208  0.00  0.00    +0.000 C 
ATOM      9  N   UNL     1       0.837   8.927  19.147  0.00  0.00    +0.000 NA
ATOM     10  C   UNL     1       1.188  10.109  18.317  0.00  0.00    +0.000 C 
ATOM     11  C   UNL     1       1.738  11.320  19.103  0.00  0.00    +0.000 C 
ATOM     12  N   UNL     1      -0.114  13.272  21.588  0.00  0.00    +0.000 NA
ENDROOT
BRANCH   1  17
ATOM     13  C   UNL     1      -3.258  14.302  24.352  0.00  0.00    +0.000 A 
ATOM     14  C   UNL     1      -2.797  15.087  25.403  0.00  0.00    +0.000 A 
ATOM     15  C   UNL     1      -1.560  15.726  25.319  0.00  0.00    +0.000 A 
ATOM     16  C   UNL     1      -0.769  15.602  24.169  0.00  0.00    +0.000 A 
ATOM     17  C   UNL     1      -1.198  14.781  23.100  0.00  0.00    +0.000 A 
ATOM     18  C   UNL     1      -2.458  14.146  23.222  0.00  0.00    +0.000 A 
BRANCH  13  20
ATOM     19  C   UNL     1      -4.538  12.348  24.776  0.00  0.00    +0.000 C 
ATOM     20  O   UNL     1      -4.493  13.751  24.546  0.00  0.00    +0.000 OA
ENDBRANCH  13  20
BRANCH  16  21
ATOM     21  O   UNL     1       0.460  16.210  24.060  0.00  0.00    +0.000 OA
ATOM     22  C   UNL     1       0.681  17.322  24.926  0.00  0.00    +0.000 C 
ENDBRANCH  16  21
ENDBRANCH   1  17
BRANCH   3  23
ATOM     23  C   UNL     1       0.981  16.219  18.838  0.00  0.00    +0.000 A 
ATOM     24  C   UNL     1       2.253  16.215  18.248  0.00  0.00    +0.000 A 
ATOM     25  C   UNL     1       2.590  17.211  17.343  0.00  0.00    +0.000 A 
ATOM     26  N   UNL     1       1.755  18.201  16.977  0.00  0.00    +0.000 NA
ATOM     27  C   UNL     1       0.523  18.184  17.527  0.00  0.00    +0.000 A 
ATOM     28  C   UNL     1       0.096  17.231  18.441  0.00  0.00    +0.000 A 
ENDBRANCH   3  23
BRANCH   9  29
ATOM     29  C   UNL     1       2.011   8.282  19.759  0.00  0.00    +0.000 C 
BRANCH  29  30
ATOM     30  C   UNL     1       2.117   6.792  19.519  0.00  0.00    +0.000 A 
ATOM     31  C   UNL     1       1.802   5.889  20.549  0.00  0.00    +0.000 A 
ATOM     32  C   UNL     1       1.856   4.513  20.328  0.00  0.00    +0.000 A 
ATOM     33  C   UNL     1       2.222   4.023  19.077  0.00  0.00    +0.000 A 
ATOM     34  C   UNL     1       2.544   4.907  18.049  0.00  0.00    +0.000 A 
ATOM     35  C   UNL     1       2.495   6.285  18.268  0.00  0.00    +0.000 A 
ENDBRANCH  29  30
ENDBRANCH   9  29
TORSDOF 6
ENDMDL
MODEL 5
REMARK VINA RESULT:      -6.8      2.201      5.941
REMARK  Name = 
REMARK  8 active torsions:
REMARK  status: ('A' for Active; 'I' for Inactive)
REMARK    1  A    between atoms: C_1  and  O_2
REMARK    2  A    between atoms: O_2  and  C_3
REMARK    3  A    between atoms: C_6  and  O_7
REMARK    4  A    between atoms: O_7  and  C_8
REMARK    5  A    between atoms: C_9  and  C_10
REMARK    6  A    between atoms: C_12  and  C_13
REMARK    7  A    between atoms: N_24  and  C_25
REMARK    8  A    between atoms: C_25  and  C_26
REMARK                            x       y       z     vdW  Elec       q    Type
REMARK                         _______ _______ _______ _____ _____    ______ ____
ROOT
ATOM      1  C   UNL     1       0.313  10.353  19.289  0.00  0.00    +0.000 A 
ATOM      2  C   UNL     1      -1.026  10.372  18.984  0.00  0.00    +0.000 A 
ATOM      3  C   UNL     1      -1.626  11.606  18.854  0.00  0.00    +0.000 A 
ATOM      4  N   UNL     1      -0.926  12.750  18.996  0.00  0.00    +0.000 NA
ATOM      5  C   UNL     1       0.385  12.671  19.271  0.00  0.00    +0.000 A 
ATOM      6  N   UNL     1       1.121  13.826  19.332  0.00  0.00    +0.000 N 
ATOM      7  C   UNL     1       2.560  13.791  19.575  0.00  0.00    +0.000 C 
ATOM      8  C   UNL     1       3.258  14.903  18.745  0.00  0.00    +0.000 C 
ATOM      9  N   UNL     1       2.670  16.266  18.869  0.00  0.00    +0.000 NA
ATOM     10  C   UNL     1       1.213  16.157  18.596  0.00  0.00    +0.000 C 
ATOM     11  C   UNL     1       0.462  15.121  19.460  0.00  0.00    +0.000 C 
ATOM     12  N   UNL     1       1.018  11.500  19.415  0.00  0.00    +0.000 NA
ENDROOT
BRANCH   1  17
ATOM     13  C   UNL     1       2.707   7.573  18.361  0.00  0.00    +0.000 A 
ATOM     14  C   UNL     1       2.668   6.766  19.493  0.00  0.00    +0.000 A 
ATOM     15  C   UNL     1       1.853   7.102  20.574  0.00  0.00    +0.000 A 
ATOM     16  C   UNL     1       1.049   8.249  20.533  0.00  0.00    +0.000 A 
ATOM     17  C   UNL     1       1.096   9.105  19.408  0.00  0.00    +0.000 A 
ATOM     18  C   UNL     1       1.936   8.734  18.331  0.00  0.00    +0.000 A 
BRANCH  13  20
ATOM     19  C   UNL     1       4.242   5.922  17.618  0.00  0.00    +0.000 C 
ATOM     20  O   UNL     1       3.523   7.123  17.363  0.00  0.00    +0.000 OA
ENDBRANCH  13  20
BRANCH  16  21
ATOM     21  O   UNL     1       0.244   8.613  21.587  0.00  0.00    +0.000 OA
ATOM     22  C   UNL     1       0.901   9.262  22.674  0.00  0.00    +0.000 C 
ENDBRANCH  16  21
ENDBRANCH   1  17
BRANCH   3  23
ATOM     23  C   UNL     1      -3.050  11.745  18.499  0.00  0.00    +0.000 A 
ATOM     24  C   UNL     1      -3.522  11.406  17.223  0.00  0.00    +0.000 A 
ATOM     25  C   UNL     1      -4.857  11.613  16.911  0.00  0.00    +0.000 A 
ATOM     26  N   UNL     1      -5.756  12.122  17.774  0.00  0.00    +0.000 NA
ATOM     27  C   UNL     1      -5.302  12.421  19.009  0.00  0.00    +0.000 A 
ATOM     28  C   UNL     1      -3.985  12.250  19.412  0.00  0.00    +0.000 A 
ENDBRANCH   3  23
BRANCH   9  29
ATOM     29  C   UNL     1       2.970  16.824  20.198  0.00  0.00    +0.000 C 
BRANCH  29  30
ATOM     30  C   UNL     1       4.433  16.810  20.580  0.00  0.00    +0.000 A 
ATOM     31  C   UNL     1       5.359  17.572  19.849  0.00  0.00    +0.000 A 
ATOM     32  C   UNL     1       6.705  17.601  20.217  0.00  0.00    +0.000 A 
ATOM     33  C   UNL     1       7.140  16.871  21.320  0.00  0.00    +0.000 A 
ATOM     34  C   UNL     1       6.233  16.105  22.051  0.00  0.00    +0.000 A 
ATOM     35  C   UNL     1       4.887  16.071  21.682  0.00  0.00    +0.000 A 
ENDBRANCH  29  30
ENDBRANCH   9  29
TORSDOF 6
ENDMDL
MODEL 6
REMARK VINA RESULT:      -6.8      2.607      7.383
REMARK  Name = 
REMARK  8 active torsions:
REMARK  status: ('A' for Active; 'I' for Inactive)
REMARK    1  A    between atoms: C_1  and  O_2
REMARK    2  A    between atoms: O_2  and  C_3
REMARK    3  A    between atoms: C_6  and  O_7
REMARK    4  A    between atoms: O_7  and  C_8
REMARK    5  A    between atoms: C_9  and  C_10
REMARK    6  A    between atoms: C_12  and  C_13
REMARK    7  A    between atoms: N_24  and  C_25
REMARK    8  A    between atoms: C_25  and  C_26
REMARK                            x       y       z     vdW  Elec       q    Type
REMARK                         _______ _______ _______ _____ _____    ______ ____
ROOT
ATOM      1  C   UNL     1      -2.895  13.064  20.373  0.00  0.00    +0.000 A 
ATOM      2  C   UNL     1      -2.426  14.350  20.494  0.00  0.00    +0.000 A 
ATOM      3  C   UNL     1      -1.089  14.560  20.233  0.00  0.00    +0.000 A 
ATOM      4  N   UNL     1      -0.276  13.553  19.853  0.00  0.00    +0.000 NA
ATOM      5  C   UNL     1      -0.795  12.321  19.730  0.00  0.00    +0.000 A 
ATOM      6  N   UNL     1       0.004  11.311  19.261  0.00  0.00    +0.000 N 
ATOM      7  C   UNL     1      -0.526   9.966  19.058  0.00  0.00    +0.000 C 
ATOM      8  C   UNL     1       0.123   9.333  17.795  0.00  0.00    +0.000 C 
ATOM      9  N   UNL     1       1.609   9.400  17.730  0.00  0.00    +0.000 NA
ATOM     10  C   UNL     1       2.008  10.815  17.949  0.00  0.00    +0.000 C 
ATOM     11  C   UNL     1       1.454  11.459  19.239  0.00  0.00    +0.000 C 
ATOM     12  N   UNL     1      -2.083  12.058  19.976  0.00  0.00    +0.000 NA
ENDROOT
BRANCH   1  17
ATOM     13  C   UNL     1      -6.158  12.385  22.165  0.00  0.00    +0.000 A 
ATOM     14  C   UNL     1      -7.003  12.051  21.113  0.00  0.00    +0.000 A 
ATOM     15  C   UNL     1      -6.527  12.026  19.802  0.00  0.00    +0.000 A 
ATOM     16  C   UNL     1      -5.185  12.322  19.525  0.00  0.00    +0.000 A 
ATOM     17  C   UNL     1      -4.314  12.700  20.572  0.00  0.00    +0.000 A 
ATOM     18  C   UNL     1      -4.832  12.716  21.889  0.00  0.00    +0.000 A 
BRANCH  13  20
ATOM     19  C   UNL     1      -7.706  13.351  23.683  0.00  0.00    +0.000 C 
ATOM     20  O   UNL     1      -6.738  12.348  23.401  0.00  0.00    +0.000 OA
ENDBRANCH  13  20
BRANCH  16  21
ATOM     21  O   UNL     1      -4.688  12.318  18.242  0.00  0.00    +0.000 OA
ATOM     22  C   UNL     1      -4.594  11.040  17.617  0.00  0.00    +0.000 C 
ENDBRANCH  16  21
ENDBRANCH   1  17
BRANCH   3  23
ATOM     23  C   UNL     1      -0.486  15.904  20.302  0.00  0.00    +0.000 A 
ATOM     24  C   UNL     1       0.903  16.086  20.237  0.00  0.00    +0.000 A 
ATOM     25  C   UNL     1       1.432  17.361  20.370  0.00  0.00    +0.000 A 
ATOM     26  N   UNL     1       0.684  18.465  20.551  0.00  0.00    +0.000 NA
ATOM     27  C   UNL     1      -0.653  18.287  20.585  0.00  0.00    +0.000 A 
ATOM     28  C   UNL     1      -1.273  17.051  20.463  0.00  0.00    +0.000 A 
ENDBRANCH   3  23
BRANCH   9  29
ATOM     29  C   UNL     1       2.197   8.475  18.712  0.00  0.00    +0.000 C 
BRANCH  29  30
ATOM     30  C   UNL     1       2.823   7.231  18.121  0.00  0.00    +0.000 A 
ATOM     31  C   UNL     1       4.046   7.317  17.435  0.00  0.00    +0.000 A 
ATOM     32  C   UNL     1       4.655   6.171  16.921  0.00  0.00    +0.000 A 
ATOM     33  C   UNL     1       4.051   4.928  17.090  0.00  0.00    +0.000 A 
ATOM     34  C   UNL     1       2.835   4.829  17.763  0.00  0.00    +0.000 A 
ATOM     35  C   UNL     1       2.221   5.975  18.274  0.00  0.00    +0.000 A 
ENDBRANCH  29  30
ENDBRANCH   9  29
TORSDOF 6
ENDMDL
MODEL 7
REMARK VINA RESULT:      -6.8      2.756      7.689
REMARK  Name = 
REMARK  8 active torsions:
REMARK  status: ('A' for Active; 'I' for Inactive)
REMARK    1  A    between atoms: C_1  and  O_2
REMARK    2  A    between atoms: O_2  and  C_3
REMARK    3  A    between atoms: C_6  and  O_7
REMARK    4  A    between atoms: O_7  and  C_8
REMARK    5  A    between atoms: C_9  and  C_10
REMARK    6  A    between atoms: C_12  and  C_13
REMARK    7  A    between atoms: N_24  and  C_25
REMARK    8  A    between atoms: C_25  and  C_26
REMARK                            x       y       z     vdW  Elec       q    Type
REMARK                         _______ _______ _______ _____ _____    ______ ____
ROOT
ATOM      1  C   UNL     1      -2.303  13.359  20.357  0.00  0.00    +0.000 A 
ATOM      2  C   UNL     1      -1.786  14.629  20.270  0.00  0.00    +0.000 A 
ATOM      3  C   UNL     1      -0.487  14.752  19.827  0.00  0.00    +0.000 A 
ATOM      4  N   UNL     1       0.243  13.675  19.470  0.00  0.00    +0.000 NA
ATOM      5  C   UNL     1      -0.321  12.461  19.554  0.00  0.00    +0.000 A 
ATOM      6  N   UNL     1       0.384  11.371  19.113  0.00  0.00    +0.000 N 
ATOM      7  C   UNL     1      -0.205  10.035  19.133  0.00  0.00    +0.000 C 
ATOM      8  C   UNL     1       0.262   9.239  17.883  0.00  0.00    +0.000 C 
ATOM      9  N   UNL     1       1.730   9.235  17.631  0.00  0.00    +0.000 NA
ATOM     10  C   UNL     1       2.194  10.647  17.634  0.00  0.00    +0.000 C 
ATOM     11  C   UNL     1       1.824  11.454  18.898  0.00  0.00    +0.000 C 
ATOM     12  N   UNL     1      -1.576  12.281  19.984  0.00  0.00    +0.000 NA
ENDROOT
BRANCH   1  17
ATOM     13  C   UNL     1      -5.921  12.284  20.099  0.00  0.00    +0.000 A 
ATOM     14  C   UNL     1      -6.376  12.479  21.399  0.00  0.00    +0.000 A 
ATOM     15  C   UNL     1      -5.519  12.977  22.381  0.00  0.00    +0.000 A 
ATOM     16  C   UNL     1      -4.192  13.303  22.072  0.00  0.00    +0.000 A 
ATOM     17  C   UNL     1      -3.695  13.080  20.767  0.00  0.00    +0.000 A 
ATOM     18  C   UNL     1      -4.592  12.573  19.797  0.00  0.00    +0.000 A 
BRANCH  13  20
ATOM     19  C   UNL     1      -6.814  10.429  18.918  0.00  0.00    +0.000 C 
ATOM     20  O   UNL     1      -6.862  11.817  19.226  0.00  0.00    +0.000 OA
ENDBRANCH  13  20
BRANCH  16  21
ATOM     21  O   UNL     1      -3.320  13.784  23.021  0.00  0.00    +0.000 OA
ATOM     22  C   UNL     1      -3.726  14.977  23.690  0.00  0.00    +0.000 C 
ENDBRANCH  16  21
ENDBRANCH   1  17
BRANCH   3  23
ATOM     23  C   UNL     1       0.159  16.068  19.665  0.00  0.00    +0.000 A 
ATOM     24  C   UNL     1      -0.245  16.963  18.664  0.00  0.00    +0.000 A 
ATOM     25  C   UNL     1       0.432  18.163  18.506  0.00  0.00    +0.000 A 
ATOM     26  N   UNL     1       1.470  18.541  19.274  0.00  0.00    +0.000 NA
ATOM     27  C   UNL     1       1.837  17.689  20.253  0.00  0.00    +0.000 A 
ATOM     28  C   UNL     1       1.222  16.466  20.487  0.00  0.00    +0.000 A 
ENDBRANCH   3  23
BRANCH   9  29
ATOM     29  C   UNL     1       2.410   8.401  18.635  0.00  0.00    +0.000 C 
BRANCH  29  30
ATOM     30  C   UNL     1       2.970   7.098  18.109  0.00  0.00    +0.000 A 
ATOM     31  C   UNL     1       2.253   5.902  18.283  0.00  0.00    +0.000 A 
ATOM     32  C   UNL     1       2.739   4.701  17.766  0.00  0.00    +0.000 A 
ATOM     33  C   UNL     1       3.943   4.680  17.068  0.00  0.00    +0.000 A 
ATOM     34  C   UNL     1       4.668   5.858  16.894  0.00  0.00    +0.000 A 
ATOM     35  C   UNL     1       4.186   7.061  17.413  0.00  0.00    +0.000 A 
ENDBRANCH  29  30
ENDBRANCH   9  29
TORSDOF 6
ENDMDL
MODEL 8
REMARK VINA RESULT:      -6.8      3.001      7.671
REMARK  Name = 
REMARK  8 active torsions:
REMARK  status: ('A' for Active; 'I' for Inactive)
REMARK    1  A    between atoms: C_1  and  O_2
REMARK    2  A    between atoms: O_2  and  C_3
REMARK    3  A    between atoms: C_6  and  O_7
REMARK    4  A    between atoms: O_7  and  C_8
REMARK    5  A    between atoms: C_9  and  C_10
REMARK    6  A    between atoms: C_12  and  C_13
REMARK    7  A    between atoms: N_24  and  C_25
REMARK    8  A    between atoms: C_25  and  C_26
REMARK                            x       y       z     vdW  Elec       q    Type
REMARK                         _______ _______ _______ _____ _____    ______ ____
ROOT
ATOM      1  C   UNL     1      -2.706  13.315  20.452  0.00  0.00    +0.000 A 
ATOM      2  C   UNL     1      -2.178  14.583  20.488  0.00  0.00    +0.000 A 
ATOM      3  C   UNL     1      -0.848  14.722  20.155  0.00  0.00    +0.000 A 
ATOM      4  N   UNL     1      -0.097  13.664  19.786  0.00  0.00    +0.000 NA
ATOM      5  C   UNL     1      -0.672  12.452  19.747  0.00  0.00    +0.000 A 
ATOM      6  N   UNL     1       0.060  11.387  19.290  0.00  0.00    +0.000 N 
ATOM      7  C   UNL     1      -0.534  10.058  19.178  0.00  0.00    +0.000 C 
ATOM      8  C   UNL     1       0.024   9.340  17.918  0.00  0.00    +0.000 C 
ATOM      9  N   UNL     1       1.507   9.339  17.780  0.00  0.00    +0.000 NA
ATOM     10  C   UNL     1       1.976  10.744  17.911  0.00  0.00    +0.000 C 
ATOM     11  C   UNL     1       1.513  11.470  19.193  0.00  0.00    +0.000 C 
ATOM     12  N   UNL     1      -1.957  12.257  20.066  0.00  0.00    +0.000 NA
ENDROOT
BRANCH   1  17
ATOM     13  C   UNL     1      -6.328  12.418  19.827  0.00  0.00    +0.000 A 
ATOM     14  C   UNL     1      -6.855  12.423  21.114  0.00  0.00    +0.000 A 
ATOM     15  C   UNL     1      -6.047  12.731  22.209  0.00  0.00    +0.000 A 
ATOM     16  C   UNL     1      -4.695  13.056  22.029  0.00  0.00    +0.000 A 
ATOM     17  C   UNL     1      -4.126  13.023  20.735  0.00  0.00    +0.000 A 
ATOM     18  C   UNL     1      -4.976  12.705  19.649  0.00  0.00    +0.000 A 
BRANCH  13  20
ATOM     19  C   UNL     1      -6.747  12.188  17.502  0.00  0.00    +0.000 C 
ATOM     20  O   UNL     1      -7.226  12.126  18.840  0.00  0.00    +0.000 OA
ENDBRANCH  13  20
BRANCH  16  21
ATOM     21  O   UNL     1      -3.871  13.352  23.089  0.00  0.00    +0.000 OA
ATOM     22  C   UNL     1      -3.499  12.249  23.914  0.00  0.00    +0.000 C 
ENDBRANCH  16  21
ENDBRANCH   1  17
BRANCH   3  23
ATOM     23  C   UNL     1      -0.186  16.040  20.129  0.00  0.00    +0.000 A 
ATOM     24  C   UNL     1       0.629  16.469  21.185  0.00  0.00    +0.000 A 
ATOM     25  C   UNL     1       1.180  17.742  21.151  0.00  0.00    +0.000 A 
ATOM     26  N   UNL     1       0.988  18.611  20.141  0.00  0.00    +0.000 NA
ATOM     27  C   UNL     1       0.225  18.182  19.115  0.00  0.00    +0.000 A 
ATOM     28  C   UNL     1      -0.369  16.929  19.062  0.00  0.00    +0.000 A 
ENDBRANCH   3  23
BRANCH   9  29
ATOM     29  C   UNL     1       2.104   8.435  18.777  0.00  0.00    +0.000 C 
BRANCH  29  30
ATOM     30  C   UNL     1       2.827   7.238  18.201  0.00  0.00    +0.000 A 
ATOM     31  C   UNL     1       2.300   5.947  18.373  0.00  0.00    +0.000 A 
ATOM     32  C   UNL     1       2.936   4.839  17.811  0.00  0.00    +0.000 A 
ATOM     33  C   UNL     1       4.102   5.008  17.069  0.00  0.00    +0.000 A 
ATOM     34  C   UNL     1       4.639   6.282  16.896  0.00  0.00    +0.000 A 
ATOM     35  C   UNL     1       4.008   7.392  17.460  0.00  0.00    +0.000 A 
ENDBRANCH  29  30
ENDBRANCH   9  29
TORSDOF 6
ENDMDL
MODEL 9
REMARK VINA RESULT:      -6.7      3.746      8.440
REMARK  Name = 
REMARK  8 active torsions:
REMARK  status: ('A' for Active; 'I' for Inactive)
REMARK    1  A    between atoms: C_1  and  O_2
REMARK    2  A    between atoms: O_2  and  C_3
REMARK    3  A    between atoms: C_6  and  O_7
REMARK    4  A    between atoms: O_7  and  C_8
REMARK    5  A    between atoms: C_9  and  C_10
REMARK    6  A    between atoms: C_12  and  C_13
REMARK    7  A    between atoms: N_24  and  C_25
REMARK    8  A    between atoms: C_25  and  C_26
REMARK                            x       y       z     vdW  Elec       q    Type
REMARK                         _______ _______ _______ _____ _____    ______ ____
ROOT
ATOM      1  C   UNL     1      -0.936  14.978  21.728  0.00  0.00    +0.000 A 
ATOM      2  C   UNL     1      -0.573  15.942  20.819  0.00  0.00    +0.000 A 
ATOM      3  C   UNL     1       0.186  15.538  19.742  0.00  0.00    +0.000 A 
ATOM      4  N   UNL     1       0.540  14.248  19.570  0.00  0.00    +0.000 NA
ATOM      5  C   UNL     1       0.137  13.346  20.478  0.00  0.00    +0.000 A 
ATOM      6  N   UNL     1       0.418  12.022  20.266  0.00  0.00    +0.000 N 
ATOM      7  C   UNL     1      -0.043  10.995  21.196  0.00  0.00    +0.000 C 
ATOM      8  C   UNL     1      -0.442   9.717  20.408  0.00  0.00    +0.000 C 
ATOM      9  N   UNL     1       0.566   9.219  19.431  0.00  0.00    +0.000 NA
ATOM     10  C   UNL     1       0.944  10.357  18.551  0.00  0.00    +0.000 C 
ATOM     11  C   UNL     1       1.428  11.623  19.292  0.00  0.00    +0.000 C 
ATOM     12  N   UNL     1      -0.595  13.682  21.547  0.00  0.00    +0.000 NA
ENDROOT
BRANCH   1  17
ATOM     13  C   UNL     1      -4.058  15.265  23.848  0.00  0.00    +0.000 A 
ATOM     14  C   UNL     1      -3.546  15.719  25.058  0.00  0.00    +0.000 A 
ATOM     15  C   UNL     1      -2.179  15.955  25.205  0.00  0.00    +0.000 A 
ATOM     16  C   UNL     1      -1.300  15.753  24.133  0.00  0.00    +0.000 A 
ATOM     17  C   UNL     1      -1.789  15.256  22.902  0.00  0.00    +0.000 A 
ATOM     18  C   UNL     1      -3.182  15.027  22.790  0.00  0.00    +0.000 A 
BRANCH  13  20
ATOM     19  C   UNL     1      -5.891  13.757  23.808  0.00  0.00    +0.000 C 
ATOM     20  O   UNL     1      -5.413  15.097  23.823  0.00  0.00    +0.000 OA
ENDBRANCH  13  20
BRANCH  16  21
ATOM     21  O   UNL     1       0.054  15.965  24.250  0.00  0.00    +0.000 OA
ATOM     22  C   UNL     1       0.440  17.220  24.807  0.00  0.00    +0.000 C 
ENDBRANCH  16  21
ENDBRANCH   1  17
BRANCH   3  23
ATOM     23  C   UNL     1       0.606  16.482  18.689  0.00  0.00    +0.000 A 
ATOM     24  C   UNL     1       1.940  16.557  18.264  0.00  0.00    +0.000 A 
ATOM     25  C   UNL     1       2.304  17.503  17.318  0.00  0.00    +0.000 A 
ATOM     26  N   UNL     1       1.440  18.370  16.758  0.00  0.00    +0.000 NA
ATOM     27  C   UNL     1       0.153  18.275  17.151  0.00  0.00    +0.000 A 
ATOM     28  C   UNL     1      -0.305  17.363  18.091  0.00  0.00    +0.000 A 
ENDBRANCH   3  23
BRANCH   9  29
ATOM     29  C   UNL     1       1.713   8.636  20.145  0.00  0.00    +0.000 C 
BRANCH  29  30
ATOM     30  C   UNL     1       2.043   7.210  19.764  0.00  0.00    +0.000 A 
ATOM     31  C   UNL     1       2.585   6.926  18.500  0.00  0.00    +0.000 A 
ATOM     32  C   UNL     1       2.933   5.621  18.151  0.00  0.00    +0.000 A 
ATOM     33  C   UNL     1       2.745   4.584  19.063  0.00  0.00    +0.000 A 
ATOM     34  C   UNL     1       2.202   4.850  20.318  0.00  0.00    +0.000 A 
ATOM     35  C   UNL     1       1.849   6.155  20.668  0.00  0.00    +0.000 A 
ENDBRANCH  29  30
ENDBRANCH   9  29
TORSDOF 6
ENDMDL
