MODEL 1
REMARK VINA RESULT:      -5.5      0.000      0.000
REMARK  Name = 
REMARK  7 active torsions:
REMARK  status: ('A' for Active; 'I' for Inactive)
REMARK    1  A    between atoms: C_1  and  C_2
REMARK    2  A    between atoms: C_2  and  C_3
REMARK    3  A    between atoms: C_6  and  C_7
REMARK    4  A    between atoms: C_7  and  N_8
REMARK    5  A    between atoms: N_8  and  C_9
REMARK    6  A    between atoms: N_8  and  C_10
REMARK    7  A    between atoms: N_8  and  C_11
REMARK                            x       y       z     vdW  Elec       q    Type
REMARK                         _______ _______ _______ _____ _____    ______ ____
ROOT
ATOM      1  C   UNL     1       2.160   3.242  21.594  0.00  0.00    +0.000 C 
ATOM      2  C   UNL     1       2.187   3.256  20.050  0.00  0.00    +0.000 C 
ATOM      3  C   UNL     1       0.778   2.921  19.533  0.00  0.00    +0.000 C 
ATOM      4  C   UNL     1       2.565   4.662  19.519  0.00  0.00    +0.000 C 
ATOM      5  O   UNL     1       3.937   4.958  19.718  0.00  0.00    +0.000 OA
ATOM      6  C   UNL     1       4.763   3.959  19.132  0.00  0.00    +0.000 C 
ATOM      7  C   UNL     1       4.425   2.597  19.757  0.00  0.00    +0.000 C 
ATOM      8  O   UNL     1       3.067   2.260  19.537  0.00  0.00    +0.000 OA
ENDROOT
BRANCH   6   9
ATOM      9  C   UNL     1       4.687   3.887  17.566  0.00  0.00    +0.000 C 
BRANCH   9  10
ATOM     10  N   UNL     1       5.769   4.577  16.792  0.00  0.00    +0.000 N 
ATOM     11  C   UNL     1       7.038   4.688  17.548  0.00  0.00    +0.000 C 
ATOM     12  C   UNL     1       6.029   3.882  15.509  0.00  0.00    +0.000 C 
ATOM     13  C   UNL     1       5.297   5.952  16.495  0.00  0.00    +0.000 C 
ENDBRANCH   9  10
ENDBRANCH   6   9
TORSDOF 2
ENDMDL
MODEL 2
REMARK VINA RESULT:      -5.4      0.086      1.133
REMARK  Name = 
REMARK  7 active torsions:
REMARK  status: ('A' for Active; 'I' for Inactive)
REMARK    1  A    between atoms: C_1  and  C_2
REMARK    2  A    between atoms: C_2  and  C_3
REMARK    3  A    between atoms: C_6  and  C_7
REMARK    4  A    between atoms: C_7  and  N_8
REMARK    5  A    between atoms: N_8  and  C_9
REMARK    6  A    between atoms: N_8  and  C_10
REMARK    7  A    between atoms: N_8  and  C_11
REMARK                            x       y       z     vdW  Elec       q    Type
REMARK                         _______ _______ _______ _____ _____    ______ ____
ROOT
ATOM      1  C   UNL     1       2.169   3.197  21.586  0.00  0.00    +0.000 C 
ATOM      2  C   UNL     1       2.171   3.221  20.042  0.00  0.00    +0.000 C 
ATOM      3  C   UNL     1       0.754   2.888  19.546  0.00  0.00    +0.000 C 
ATOM      4  C   UNL     1       2.540   4.630  19.514  0.00  0.00    +0.000 C 
ATOM      5  O   UNL     1       3.914   4.925  19.692  0.00  0.00    +0.000 OA
ATOM      6  C   UNL     1       4.731   3.931  19.087  0.00  0.00    +0.000 C 
ATOM      7  C   UNL     1       4.403   2.564  19.708  0.00  0.00    +0.000 C 
ATOM      8  O   UNL     1       3.042   2.229  19.508  0.00  0.00    +0.000 OA
ENDROOT
BRANCH   6   9
ATOM      9  C   UNL     1       4.630   3.868  17.522  0.00  0.00    +0.000 C 
BRANCH   9  10
ATOM     10  N   UNL     1       5.677   4.596  16.735  0.00  0.00    +0.000 N 
ATOM     11  C   UNL     1       6.084   3.871  15.509  0.00  0.00    +0.000 C 
ATOM     12  C   UNL     1       5.213   5.954  16.364  0.00  0.00    +0.000 C 
ATOM     13  C   UNL     1       6.875   4.728  17.601  0.00  0.00    +0.000 C 
ENDBRANCH   9  10
ENDBRANCH   6   9
TORSDOF 2
ENDMDL
MODEL 3
REMARK VINA RESULT:      -5.4      0.152      1.160
REMARK  Name = 
REMARK  7 active torsions:
REMARK  status: ('A' for Active; 'I' for Inactive)
REMARK    1  A    between atoms: C_1  and  C_2
REMARK    2  A    between atoms: C_2  and  C_3
REMARK    3  A    between atoms: C_6  and  C_7
REMARK    4  A    between atoms: C_7  and  N_8
REMARK    5  A    between atoms: N_8  and  C_9
REMARK    6  A    between atoms: N_8  and  C_10
REMARK    7  A    between atoms: N_8  and  C_11
REMARK                            x       y       z     vdW  Elec       q    Type
REMARK                         _______ _______ _______ _____ _____    ______ ____
ROOT
ATOM      1  C   UNL     1       1.941   3.188  21.513  0.00  0.00    +0.000 C 
ATOM      2  C   UNL     1       2.050   3.172  19.972  0.00  0.00    +0.000 C 
ATOM      3  C   UNL     1       0.682   2.776  19.390  0.00  0.00    +0.000 C 
ATOM      4  C   UNL     1       2.406   4.579  19.431  0.00  0.00    +0.000 C 
ATOM      5  O   UNL     1       3.754   4.928  19.694  0.00  0.00    +0.000 OA
ATOM      6  C   UNL     1       4.644   3.949  19.174  0.00  0.00    +0.000 C 
ATOM      7  C   UNL     1       4.321   2.588  19.810  0.00  0.00    +0.000 C 
ATOM      8  O   UNL     1       2.989   2.198  19.528  0.00  0.00    +0.000 OA
ENDROOT
BRANCH   6   9
ATOM      9  C   UNL     1       4.653   3.842  17.609  0.00  0.00    +0.000 C 
BRANCH   9  10
ATOM     10  N   UNL     1       5.715   4.602  16.873  0.00  0.00    +0.000 N 
ATOM     11  C   UNL     1       5.310   5.989  16.547  0.00  0.00    +0.000 C 
ATOM     12  C   UNL     1       6.977   4.636  17.649  0.00  0.00    +0.000 C 
ATOM     13  C   UNL     1       5.968   3.891  15.595  0.00  0.00    +0.000 C 
ENDBRANCH   9  10
ENDBRANCH   6   9
TORSDOF 2
ENDMDL
MODEL 4
REMARK VINA RESULT:      -5.4      1.169      1.998
REMARK  Name = 
REMARK  7 active torsions:
REMARK  status: ('A' for Active; 'I' for Inactive)
REMARK    1  A    between atoms: C_1  and  C_2
REMARK    2  A    between atoms: C_2  and  C_3
REMARK    3  A    between atoms: C_6  and  C_7
REMARK    4  A    between atoms: C_7  and  N_8
REMARK    5  A    between atoms: N_8  and  C_9
REMARK    6  A    between atoms: N_8  and  C_10
REMARK    7  A    between atoms: N_8  and  C_11
REMARK                            x       y       z     vdW  Elec       q    Type
REMARK                         _______ _______ _______ _____ _____    ______ ____
ROOT
ATOM      1  C   UNL     1       0.763   2.380  18.894  0.00  0.00    +0.000 C 
ATOM      2  C   UNL     1       1.925   3.256  19.413  0.00  0.00    +0.000 C 
ATOM      3  C   UNL     1       1.552   3.786  20.808  0.00  0.00    +0.000 C 
ATOM      4  C   UNL     1       3.223   2.422  19.554  0.00  0.00    +0.000 C 
ATOM      5  O   UNL     1       3.794   2.105  18.296  0.00  0.00    +0.000 OA
ATOM      6  C   UNL     1       4.033   3.282  17.535  0.00  0.00    +0.000 C 
ATOM      7  C   UNL     1       2.704   4.029  17.334  0.00  0.00    +0.000 C 
ATOM      8  O   UNL     1       2.132   4.391  18.578  0.00  0.00    +0.000 OA
ENDROOT
BRANCH   6   9
ATOM      9  C   UNL     1       5.121   4.239  18.137  0.00  0.00    +0.000 C 
BRANCH   9  10
ATOM     10  N   UNL     1       6.168   4.765  17.202  0.00  0.00    +0.000 N 
ATOM     11  C   UNL     1       7.534   4.701  17.771  0.00  0.00    +0.000 C 
ATOM     12  C   UNL     1       6.145   4.032  15.914  0.00  0.00    +0.000 C 
ATOM     13  C   UNL     1       5.853   6.191  16.937  0.00  0.00    +0.000 C 
ENDBRANCH   9  10
ENDBRANCH   6   9
TORSDOF 2
ENDMDL
MODEL 5
REMARK VINA RESULT:      -5.4      1.028      2.296
REMARK  Name = 
REMARK  7 active torsions:
REMARK  status: ('A' for Active; 'I' for Inactive)
REMARK    1  A    between atoms: C_1  and  C_2
REMARK    2  A    between atoms: C_2  and  C_3
REMARK    3  A    between atoms: C_6  and  C_7
REMARK    4  A    between atoms: C_7  and  N_8
REMARK    5  A    between atoms: N_8  and  C_9
REMARK    6  A    between atoms: N_8  and  C_10
REMARK    7  A    between atoms: N_8  and  C_11
REMARK                            x       y       z     vdW  Elec       q    Type
REMARK                         _______ _______ _______ _____ _____    ______ ____
ROOT
ATOM      1  C   UNL     1       0.745   2.703  19.326  0.00  0.00    +0.000 C 
ATOM      2  C   UNL     1       2.181   3.123  19.709  0.00  0.00    +0.000 C 
ATOM      3  C   UNL     1       2.328   3.027  21.237  0.00  0.00    +0.000 C 
ATOM      4  C   UNL     1       3.223   2.169  19.072  0.00  0.00    +0.000 C 
ATOM      5  O   UNL     1       3.350   2.373  17.675  0.00  0.00    +0.000 OA
ATOM      6  C   UNL     1       3.667   3.729  17.386  0.00  0.00    +0.000 C 
ATOM      7  C   UNL     1       2.560   4.634  17.949  0.00  0.00    +0.000 C 
ATOM      8  O   UNL     1       2.439   4.477  19.351  0.00  0.00    +0.000 OA
ENDROOT
BRANCH   6   9
ATOM      9  C   UNL     1       5.076   4.193  17.896  0.00  0.00    +0.000 C 
BRANCH   9  10
ATOM     10  N   UNL     1       6.041   4.712  16.873  0.00  0.00    +0.000 N 
ATOM     11  C   UNL     1       5.733   6.094  16.439  0.00  0.00    +0.000 C 
ATOM     12  C   UNL     1       7.432   4.663  17.383  0.00  0.00    +0.000 C 
ATOM     13  C   UNL     1       5.946   3.831  15.682  0.00  0.00    +0.000 C 
ENDBRANCH   9  10
ENDBRANCH   6   9
TORSDOF 2
ENDMDL
MODEL 6
REMARK VINA RESULT:      -5.4      1.165      1.709
REMARK  Name = 
REMARK  7 active torsions:
REMARK  status: ('A' for Active; 'I' for Inactive)
REMARK    1  A    between atoms: C_1  and  C_2
REMARK    2  A    between atoms: C_2  and  C_3
REMARK    3  A    between atoms: C_6  and  C_7
REMARK    4  A    between atoms: C_7  and  N_8
REMARK    5  A    between atoms: N_8  and  C_9
REMARK    6  A    between atoms: N_8  and  C_10
REMARK    7  A    between atoms: N_8  and  C_11
REMARK                            x       y       z     vdW  Elec       q    Type
REMARK                         _______ _______ _______ _____ _____    ______ ____
ROOT
ATOM      1  C   UNL     1       1.095   4.138  20.357  0.00  0.00    +0.000 C 
ATOM      2  C   UNL     1       1.706   3.455  19.114  0.00  0.00    +0.000 C 
ATOM      3  C   UNL     1       0.830   2.248  18.739  0.00  0.00    +0.000 C 
ATOM      4  C   UNL     1       1.723   4.423  17.905  0.00  0.00    +0.000 C 
ATOM      5  O   UNL     1       2.705   5.436  18.045  0.00  0.00    +0.000 OA
ATOM      6  C   UNL     1       3.992   4.871  18.255  0.00  0.00    +0.000 C 
ATOM      7  C   UNL     1       3.958   3.997  19.518  0.00  0.00    +0.000 C 
ATOM      8  O   UNL     1       3.011   2.952  19.387  0.00  0.00    +0.000 OA
ENDROOT
BRANCH   6   9
ATOM      9  C   UNL     1       4.556   4.062  17.034  0.00  0.00    +0.000 C 
BRANCH   9  10
ATOM     10  N   UNL     1       5.711   4.657  16.288  0.00  0.00    +0.000 N 
ATOM     11  C   UNL     1       5.422   6.010  15.761  0.00  0.00    +0.000 C 
ATOM     12  C   UNL     1       6.920   4.718  17.144  0.00  0.00    +0.000 C 
ATOM     13  C   UNL     1       5.998   3.772  15.131  0.00  0.00    +0.000 C 
ENDBRANCH   9  10
ENDBRANCH   6   9
TORSDOF 2
ENDMDL
MODEL 7
REMARK VINA RESULT:      -5.3      1.243      1.369
REMARK  Name = 
REMARK  7 active torsions:
REMARK  status: ('A' for Active; 'I' for Inactive)
REMARK    1  A    between atoms: C_1  and  C_2
REMARK    2  A    between atoms: C_2  and  C_3
REMARK    3  A    between atoms: C_6  and  C_7
REMARK    4  A    between atoms: C_7  and  N_8
REMARK    5  A    between atoms: N_8  and  C_9
REMARK    6  A    between atoms: N_8  and  C_10
REMARK    7  A    between atoms: N_8  and  C_11
REMARK                            x       y       z     vdW  Elec       q    Type
REMARK                         _______ _______ _______ _____ _____    ______ ____
ROOT
ATOM      1  C   UNL     1       1.126   4.192  20.356  0.00  0.00    +0.000 C 
ATOM      2  C   UNL     1       1.717   3.513  19.100  0.00  0.00    +0.000 C 
ATOM      3  C   UNL     1       0.893   2.251  18.793  0.00  0.00    +0.000 C 
ATOM      4  C   UNL     1       1.623   4.451  17.871  0.00  0.00    +0.000 C 
ATOM      5  O   UNL     1       2.552   5.520  17.943  0.00  0.00    +0.000 OA
ATOM      6  C   UNL     1       3.877   5.032  18.103  0.00  0.00    +0.000 C 
ATOM      7  C   UNL     1       3.951   4.188  19.385  0.00  0.00    +0.000 C 
ATOM      8  O   UNL     1       3.059   3.090  19.322  0.00  0.00    +0.000 OA
ENDROOT
BRANCH   6   9
ATOM      9  C   UNL     1       4.428   4.225  16.875  0.00  0.00    +0.000 C 
BRANCH   9  10
ATOM     10  N   UNL     1       5.582   4.817  16.124  0.00  0.00    +0.000 N 
ATOM     11  C   UNL     1       6.884   4.587  16.792  0.00  0.00    +0.000 C 
ATOM     12  C   UNL     1       5.646   4.285  14.742  0.00  0.00    +0.000 C 
ATOM     13  C   UNL     1       5.363   6.284  16.054  0.00  0.00    +0.000 C 
ENDBRANCH   9  10
ENDBRANCH   6   9
TORSDOF 2
ENDMDL
MODEL 8
REMARK VINA RESULT:      -5.3      1.097      2.195
REMARK  Name = 
REMARK  7 active torsions:
REMARK  status: ('A' for Active; 'I' for Inactive)
REMARK    1  A    between atoms: C_1  and  C_2
REMARK    2  A    between atoms: C_2  and  C_3
REMARK    3  A    between atoms: C_6  and  C_7
REMARK    4  A    between atoms: C_7  and  N_8
REMARK    5  A    between atoms: N_8  and  C_9
REMARK    6  A    between atoms: N_8  and  C_10
REMARK    7  A    between atoms: N_8  and  C_11
REMARK                            x       y       z     vdW  Elec       q    Type
REMARK                         _______ _______ _______ _____ _____    ______ ____
ROOT
ATOM      1  C   UNL     1       0.865   2.851  19.534  0.00  0.00    +0.000 C 
ATOM      2  C   UNL     1       2.065   3.809  19.708  0.00  0.00    +0.000 C 
ATOM      3  C   UNL     1       1.780   4.738  20.900  0.00  0.00    +0.000 C 
ATOM      4  C   UNL     1       3.359   3.018  20.023  0.00  0.00    +0.000 C 
ATOM      5  O   UNL     1       3.853   2.328  18.888  0.00  0.00    +0.000 OA
ATOM      6  C   UNL     1       4.060   3.220  17.800  0.00  0.00    +0.000 C 
ATOM      7  C   UNL     1       2.731   3.910  17.456  0.00  0.00    +0.000 C 
ATOM      8  O   UNL     1       2.236   4.640  18.564  0.00  0.00    +0.000 OA
ENDROOT
BRANCH   6   9
ATOM      9  C   UNL     1       5.193   4.280  18.033  0.00  0.00    +0.000 C 
BRANCH   9  10
ATOM     10  N   UNL     1       6.021   4.675  16.848  0.00  0.00    +0.000 N 
ATOM     11  C   UNL     1       5.886   3.735  15.712  0.00  0.00    +0.000 C 
ATOM     12  C   UNL     1       5.674   6.042  16.390  0.00  0.00    +0.000 C 
ATOM     13  C   UNL     1       7.442   4.668  17.275  0.00  0.00    +0.000 C 
ENDBRANCH   9  10
ENDBRANCH   6   9
TORSDOF 2
ENDMDL
MODEL 9
REMARK VINA RESULT:      -5.3      1.201      2.429
REMARK  Name = 
REMARK  7 active torsions:
REMARK  status: ('A' for Active; 'I' for Inactive)
REMARK    1  A    between atoms: C_1  and  C_2
REMARK    2  A    between atoms: C_2  and  C_3
REMARK    3  A    between atoms: C_6  and  C_7
REMARK    4  A    between atoms: C_7  and  N_8
REMARK    5  A    between atoms: N_8  and  C_9
REMARK    6  A    between atoms: N_8  and  C_10
REMARK    7  A    between atoms: N_8  and  C_11
REMARK                            x       y       z     vdW  Elec       q    Type
REMARK                         _______ _______ _______ _____ _____    ______ ____
ROOT
ATOM      1  C   UNL     1       1.088   2.522  19.162  0.00  0.00    +0.000 C 
ATOM      2  C   UNL     1       2.228   3.279  19.878  0.00  0.00    +0.000 C 
ATOM      3  C   UNL     1       1.921   3.314  21.385  0.00  0.00    +0.000 C 
ATOM      4  C   UNL     1       3.580   2.547  19.687  0.00  0.00    +0.000 C 
ATOM      5  O   UNL     1       4.082   2.687  18.369  0.00  0.00    +0.000 OA
ATOM      6  C   UNL     1       4.197   4.059  18.011  0.00  0.00    +0.000 C 
ATOM      7  C   UNL     1       2.816   4.724  18.120  0.00  0.00    +0.000 C 
ATOM      8  O   UNL     1       2.310   4.631  19.439  0.00  0.00    +0.000 OA
ENDROOT
BRANCH   6   9
ATOM      9  C   UNL     1       5.265   4.860  18.835  0.00  0.00    +0.000 C 
BRANCH   9  10
ATOM     10  N   UNL     1       6.387   5.497  18.072  0.00  0.00    +0.000 N 
ATOM     11  C   UNL     1       5.962   6.701  17.321  0.00  0.00    +0.000 C 
ATOM     12  C   UNL     1       7.505   5.859  18.975  0.00  0.00    +0.000 C 
ATOM     13  C   UNL     1       6.880   4.500  17.089  0.00  0.00    +0.000 C 
ENDBRANCH   9  10
ENDBRANCH   6   9
TORSDOF 2
ENDMDL
