MODEL 1
REMARK VINA RESULT:      -8.4      0.000      0.000
REMARK  Name = 
REMARK  5 active torsions:
REMARK  status: ('A' for Active; 'I' for Inactive)
REMARK    1  A    between atoms: C_1  and  S_2
REMARK    2  A    between atoms: S_2  and  C_5
REMARK    3  A    between atoms: C_7  and  N_8
REMARK    4  A    between atoms: N_17  and  C_18
REMARK    5  A    between atoms: C_18  and  C_19
REMARK                            x       y       z     vdW  Elec       q    Type
REMARK                         _______ _______ _______ _____ _____    ______ ____
ROOT
ATOM      1  C   UNL     1      -1.473  12.545  22.063  0.00  0.00    +0.000 A 
ATOM      2  C   UNL     1      -1.693  12.825  20.721  0.00  0.00    +0.000 A 
ATOM      3  C   UNL     1      -1.061  12.026  19.756  0.00  0.00    +0.000 A 
ATOM      4  C   UNL     1      -0.213  10.947  20.089  0.00  0.00    +0.000 A 
ATOM      5  S   UNL     1       0.608   9.985  18.862  0.00  0.00    +0.000 S 
ATOM      6  C   UNL     1       1.397   8.719  19.771  0.00  0.00    +0.000 A 
ATOM      7  N   UNL     1       2.049   7.751  19.030  0.00  0.00    +0.000 N 
ATOM      8  C   UNL     1       2.687   7.991  17.724  0.00  0.00    +0.000 C 
ATOM      9  C   UNL     1       4.151   7.480  17.704  0.00  0.00    +0.000 C 
ATOM     10  N   UNL     1       4.341   6.085  18.166  0.00  0.00    +0.000 NA
ATOM     11  C   UNL     1       3.733   5.983  19.513  0.00  0.00    +0.000 C 
ATOM     12  C   UNL     1       2.251   6.394  19.576  0.00  0.00    +0.000 C 
ATOM     13  N   UNL     1       1.363   8.640  21.059  0.00  0.00    +0.000 NA
ATOM     14  C   UNL     1       0.796   9.538  21.909  0.00  0.00    +0.000 A 
ATOM     15  O   UNL     1       0.928   9.416  23.126  0.00  0.00    +0.000 OA
ATOM     16  C   UNL     1      -0.034  10.674  21.445  0.00  0.00    +0.000 A 
ATOM     17  C   UNL     1      -0.652  11.479  22.430  0.00  0.00    +0.000 A 
ENDROOT
BRANCH   1  19
ATOM     18  C   UNL     1      -3.013  14.870  22.431  0.00  0.00    +0.000 C 
ATOM     19  S   UNL     1      -2.176  13.586  23.321  0.00  0.00    +0.000 S 
ATOM     20  O   UNL     1      -1.068  14.192  24.034  0.00  0.00    +0.000 OA
ATOM     21  O   UNL     1      -3.158  12.777  24.011  0.00  0.00    +0.000 OA
ENDBRANCH   1  19
BRANCH   3  22
ATOM     22  N   UNL     1      -1.355  12.349  18.370  0.00  0.00    +0.000 N 
ATOM     23  O   UNL     1      -0.589  13.148  17.817  0.00  0.00    +0.000 OA
ATOM     24  O   UNL     1      -2.311  11.770  17.837  0.00  0.00    +0.000 OA
ENDBRANCH   3  22
BRANCH  10  25
ATOM     25  C   UNL     1       3.764   5.145  17.186  0.00  0.00    +0.000 C 
BRANCH  25  26
ATOM     26  C   UNL     1       3.190   3.873  17.768  0.00  0.00    +0.000 A 
ATOM     27  C   UNL     1       4.047   2.877  18.265  0.00  0.00    +0.000 A 
ATOM     28  C   UNL     1       3.529   1.718  18.845  0.00  0.00    +0.000 A 
ATOM     29  C   UNL     1       2.151   1.543  18.937  0.00  0.00    +0.000 A 
ATOM     30  C   UNL     1       1.289   2.523  18.447  0.00  0.00    +0.000 A 
ATOM     31  C   UNL     1       1.806   3.683  17.865  0.00  0.00    +0.000 A 
ENDBRANCH  25  26
ENDBRANCH  10  25
TORSDOF 4
ENDMDL
MODEL 2
REMARK VINA RESULT:      -8.3      0.679      1.188
REMARK  Name = 
REMARK  5 active torsions:
REMARK  status: ('A' for Active; 'I' for Inactive)
REMARK    1  A    between atoms: C_1  and  S_2
REMARK    2  A    between atoms: S_2  and  C_5
REMARK    3  A    between atoms: C_7  and  N_8
REMARK    4  A    between atoms: N_17  and  C_18
REMARK    5  A    between atoms: C_18  and  C_19
REMARK                            x       y       z     vdW  Elec       q    Type
REMARK                         _______ _______ _______ _____ _____    ______ ____
ROOT
ATOM      1  C   UNL     1      -1.488  12.713  22.040  0.00  0.00    +0.000 A 
ATOM      2  C   UNL     1      -1.718  12.961  20.693  0.00  0.00    +0.000 A 
ATOM      3  C   UNL     1      -1.101  12.134  19.743  0.00  0.00    +0.000 A 
ATOM      4  C   UNL     1      -0.258  11.057  20.096  0.00  0.00    +0.000 A 
ATOM      5  S   UNL     1       0.545  10.058  18.886  0.00  0.00    +0.000 S 
ATOM      6  C   UNL     1       1.332   8.810  19.819  0.00  0.00    +0.000 A 
ATOM      7  N   UNL     1       1.970   7.818  19.097  0.00  0.00    +0.000 N 
ATOM      8  C   UNL     1       2.598   8.021  17.780  0.00  0.00    +0.000 C 
ATOM      9  C   UNL     1       4.058   7.498  17.759  0.00  0.00    +0.000 C 
ATOM     10  N   UNL     1       4.243   6.114  18.254  0.00  0.00    +0.000 NA
ATOM     11  C   UNL     1       3.646   6.050  19.610  0.00  0.00    +0.000 C 
ATOM     12  C   UNL     1       2.168   6.474  19.676  0.00  0.00    +0.000 C 
ATOM     13  N   UNL     1       1.310   8.764  21.109  0.00  0.00    +0.000 NA
ATOM     14  C   UNL     1       0.758   9.686  21.942  0.00  0.00    +0.000 A 
ATOM     15  O   UNL     1       0.900   9.594  23.160  0.00  0.00    +0.000 OA
ATOM     16  C   UNL     1      -0.069  10.817  21.457  0.00  0.00    +0.000 A 
ATOM     17  C   UNL     1      -0.671  11.651  22.426  0.00  0.00    +0.000 A 
ENDROOT
BRANCH   1  19
ATOM     18  C   UNL     1      -3.323  12.783  24.170  0.00  0.00    +0.000 C 
ATOM     19  S   UNL     1      -2.172  13.791  23.278  0.00  0.00    +0.000 S 
ATOM     20  O   UNL     1      -2.927  14.812  22.577  0.00  0.00    +0.000 OA
ATOM     21  O   UNL     1      -1.076  14.142  24.157  0.00  0.00    +0.000 OA
ENDBRANCH   1  19
BRANCH   3  22
ATOM     22  N   UNL     1      -1.406  12.423  18.353  0.00  0.00    +0.000 N 
ATOM     23  O   UNL     1      -0.632  13.193  17.768  0.00  0.00    +0.000 OA
ATOM     24  O   UNL     1      -2.378  11.849  17.847  0.00  0.00    +0.000 OA
ENDBRANCH   3  22
BRANCH  10  25
ATOM     25  C   UNL     1       3.650   5.154  17.304  0.00  0.00    +0.000 C 
BRANCH  25  26
ATOM     26  C   UNL     1       3.037   3.919  17.926  0.00  0.00    +0.000 A 
ATOM     27  C   UNL     1       1.641   3.791  18.007  0.00  0.00    +0.000 A 
ATOM     28  C   UNL     1       1.063   2.637  18.539  0.00  0.00    +0.000 A 
ATOM     29  C   UNL     1       1.873   1.599  18.993  0.00  0.00    +0.000 A 
ATOM     30  C   UNL     1       3.261   1.714  18.918  0.00  0.00    +0.000 A 
ATOM     31  C   UNL     1       3.841   2.869  18.388  0.00  0.00    +0.000 A 
ENDBRANCH  25  26
ENDBRANCH  10  25
TORSDOF 4
ENDMDL
MODEL 3
REMARK VINA RESULT:      -8.2      1.627      2.621
REMARK  Name = 
REMARK  5 active torsions:
REMARK  status: ('A' for Active; 'I' for Inactive)
REMARK    1  A    between atoms: C_1  and  S_2
REMARK    2  A    between atoms: S_2  and  C_5
REMARK    3  A    between atoms: C_7  and  N_8
REMARK    4  A    between atoms: N_17  and  C_18
REMARK    5  A    between atoms: C_18  and  C_19
REMARK                            x       y       z     vdW  Elec       q    Type
REMARK                         _______ _______ _______ _____ _____    ______ ____
ROOT
ATOM      1  C   UNL     1      -1.641  12.062  21.858  0.00  0.00    +0.000 A 
ATOM      2  C   UNL     1      -1.781  12.376  20.513  0.00  0.00    +0.000 A 
ATOM      3  C   UNL     1      -1.052  11.635  19.571  0.00  0.00    +0.000 A 
ATOM      4  C   UNL     1      -0.183  10.581  19.930  0.00  0.00    +0.000 A 
ATOM      5  S   UNL     1       0.760   9.694  18.736  0.00  0.00    +0.000 S 
ATOM      6  C   UNL     1       1.539   8.432  19.659  0.00  0.00    +0.000 A 
ATOM      7  N   UNL     1       2.281   7.515  18.938  0.00  0.00    +0.000 N 
ATOM      8  C   UNL     1       2.995   7.824  17.687  0.00  0.00    +0.000 C 
ATOM      9  C   UNL     1       4.478   7.373  17.753  0.00  0.00    +0.000 C 
ATOM     10  N   UNL     1       4.696   5.973  18.186  0.00  0.00    +0.000 NA
ATOM     11  C   UNL     1       4.002   5.803  19.485  0.00  0.00    +0.000 C 
ATOM     12  C   UNL     1       2.503   6.152  19.457  0.00  0.00    +0.000 C 
ATOM     13  N   UNL     1       1.422   8.311  20.940  0.00  0.00    +0.000 NA
ATOM     14  C   UNL     1       0.760   9.157  21.774  0.00  0.00    +0.000 A 
ATOM     15  O   UNL     1       0.814   9.001  22.993  0.00  0.00    +0.000 OA
ATOM     16  C   UNL     1      -0.085  10.272  21.287  0.00  0.00    +0.000 A 
ATOM     17  C   UNL     1      -0.802  11.019  22.250  0.00  0.00    +0.000 A 
ENDROOT
BRANCH   1  19
ATOM     18  C   UNL     1      -3.397  14.236  22.179  0.00  0.00    +0.000 C 
ATOM     19  S   UNL     1      -2.472  13.033  23.094  0.00  0.00    +0.000 S 
ATOM     20  O   UNL     1      -1.445  13.736  23.839  0.00  0.00    +0.000 OA
ATOM     21  O   UNL     1      -3.396  12.137  23.757  0.00  0.00    +0.000 OA
ENDBRANCH   1  19
BRANCH   3  22
ATOM     22  N   UNL     1      -1.264  11.989  18.179  0.00  0.00    +0.000 N 
ATOM     23  O   UNL     1      -2.054  11.278  17.543  0.00  0.00    +0.000 OA
ATOM     24  O   UNL     1      -0.683  12.994  17.747  0.00  0.00    +0.000 OA
ENDBRANCH   3  22
BRANCH  10  25
ATOM     25  C   UNL     1       4.228   5.043  17.141  0.00  0.00    +0.000 C 
BRANCH  25  26
ATOM     26  C   UNL     1       5.207   4.784  16.018  0.00  0.00    +0.000 A 
ATOM     27  C   UNL     1       4.752   4.273  14.791  0.00  0.00    +0.000 A 
ATOM     28  C   UNL     1       5.638   4.072  13.732  0.00  0.00    +0.000 A 
ATOM     29  C   UNL     1       6.987   4.381  13.886  0.00  0.00    +0.000 A 
ATOM     30  C   UNL     1       7.452   4.889  15.098  0.00  0.00    +0.000 A 
ATOM     31  C   UNL     1       6.567   5.089  16.160  0.00  0.00    +0.000 A 
ENDBRANCH  25  26
ENDBRANCH  10  25
TORSDOF 4
ENDMDL
MODEL 4
REMARK VINA RESULT:      -7.9      3.598     10.037
REMARK  Name = 
REMARK  5 active torsions:
REMARK  status: ('A' for Active; 'I' for Inactive)
REMARK    1  A    between atoms: C_1  and  S_2
REMARK    2  A    between atoms: S_2  and  C_5
REMARK    3  A    between atoms: C_7  and  N_8
REMARK    4  A    between atoms: N_17  and  C_18
REMARK    5  A    between atoms: C_18  and  C_19
REMARK                            x       y       z     vdW  Elec       q    Type
REMARK                         _______ _______ _______ _____ _____    ______ ____
ROOT
ATOM      1  C   UNL     1       3.860   6.061  17.706  0.00  0.00    +0.000 A 
ATOM      2  C   UNL     1       3.346   5.267  18.722  0.00  0.00    +0.000 A 
ATOM      3  C   UNL     1       2.417   5.830  19.609  0.00  0.00    +0.000 A 
ATOM      4  C   UNL     1       1.979   7.169  19.514  0.00  0.00    +0.000 A 
ATOM      5  S   UNL     1       0.848   7.871  20.668  0.00  0.00    +0.000 S 
ATOM      6  C   UNL     1       0.528   9.467  20.034  0.00  0.00    +0.000 A 
ATOM      7  N   UNL     1      -0.419  10.214  20.709  0.00  0.00    +0.000 N 
ATOM      8  C   UNL     1      -0.678  10.118  22.156  0.00  0.00    +0.000 C 
ATOM      9  C   UNL     1      -0.641  11.513  22.834  0.00  0.00    +0.000 C 
ATOM     10  N   UNL     1      -1.476  12.553  22.189  0.00  0.00    +0.000 NA
ATOM     11  C   UNL     1      -1.076  12.614  20.763  0.00  0.00    +0.000 C 
ATOM     12  C   UNL     1      -1.177  11.273  20.014  0.00  0.00    +0.000 C 
ATOM     13  N   UNL     1       1.098   9.941  18.976  0.00  0.00    +0.000 NA
ATOM     14  C   UNL     1       2.069   9.335  18.242  0.00  0.00    +0.000 A 
ATOM     15  O   UNL     1       2.621   9.934  17.320  0.00  0.00    +0.000 OA
ATOM     16  C   UNL     1       2.493   7.933  18.466  0.00  0.00    +0.000 A 
ATOM     17  C   UNL     1       3.441   7.385  17.572  0.00  0.00    +0.000 A 
ENDROOT
BRANCH   1  19
ATOM     18  C   UNL     1       6.529   5.175  17.645  0.00  0.00    +0.000 C 
ATOM     19  S   UNL     1       5.109   5.420  16.614  0.00  0.00    +0.000 S 
ATOM     20  O   UNL     1       5.425   6.475  15.669  0.00  0.00    +0.000 OA
ATOM     21  O   UNL     1       4.628   4.131  16.164  0.00  0.00    +0.000 OA
ENDBRANCH   1  19
BRANCH   3  22
ATOM     22  N   UNL     1       1.893   4.941  20.631  0.00  0.00    +0.000 N 
ATOM     23  O   UNL     1       0.826   4.370  20.370  0.00  0.00    +0.000 OA
ATOM     24  O   UNL     1       2.568   4.784  21.657  0.00  0.00    +0.000 OA
ENDBRANCH   3  22
BRANCH  10  25
ATOM     25  C   UNL     1      -2.906  12.248  22.387  0.00  0.00    +0.000 C 
BRANCH  25  26
ATOM     26  C   UNL     1      -3.739  13.380  22.944  0.00  0.00    +0.000 A 
ATOM     27  C   UNL     1      -3.219  14.207  23.954  0.00  0.00    +0.000 A 
ATOM     28  C   UNL     1      -3.961  15.282  24.444  0.00  0.00    +0.000 A 
ATOM     29  C   UNL     1      -5.228  15.545  23.930  0.00  0.00    +0.000 A 
ATOM     30  C   UNL     1      -5.757  14.732  22.927  0.00  0.00    +0.000 A 
ATOM     31  C   UNL     1      -5.016  13.654  22.437  0.00  0.00    +0.000 A 
ENDBRANCH  25  26
ENDBRANCH  10  25
TORSDOF 4
ENDMDL
MODEL 5
REMARK VINA RESULT:      -7.9      3.595     10.038
REMARK  Name = 
REMARK  5 active torsions:
REMARK  status: ('A' for Active; 'I' for Inactive)
REMARK    1  A    between atoms: C_1  and  S_2
REMARK    2  A    between atoms: S_2  and  C_5
REMARK    3  A    between atoms: C_7  and  N_8
REMARK    4  A    between atoms: N_17  and  C_18
REMARK    5  A    between atoms: C_18  and  C_19
REMARK                            x       y       z     vdW  Elec       q    Type
REMARK                         _______ _______ _______ _____ _____    ______ ____
ROOT
ATOM      1  C   UNL     1       3.826   6.110  17.681  0.00  0.00    +0.000 A 
ATOM      2  C   UNL     1       3.339   5.296  18.695  0.00  0.00    +0.000 A 
ATOM      3  C   UNL     1       2.420   5.835  19.606  0.00  0.00    +0.000 A 
ATOM      4  C   UNL     1       1.964   7.171  19.537  0.00  0.00    +0.000 A 
ATOM      5  S   UNL     1       0.844   7.842  20.720  0.00  0.00    +0.000 S 
ATOM      6  C   UNL     1       0.495   9.443  20.114  0.00  0.00    +0.000 A 
ATOM      7  N   UNL     1      -0.449  10.169  20.816  0.00  0.00    +0.000 N 
ATOM      8  C   UNL     1      -0.682  10.050  22.266  0.00  0.00    +0.000 C 
ATOM      9  C   UNL     1      -0.650  11.436  22.962  0.00  0.00    +0.000 C 
ATOM     10  N   UNL     1      -1.508  12.475  22.347  0.00  0.00    +0.000 NA
ATOM     11  C   UNL     1      -1.133  12.561  20.915  0.00  0.00    +0.000 C 
ATOM     12  C   UNL     1      -1.232  11.229  20.149  0.00  0.00    +0.000 C 
ATOM     13  N   UNL     1       1.041   9.938  19.054  0.00  0.00    +0.000 NA
ATOM     14  C   UNL     1       2.006   9.355  18.294  0.00  0.00    +0.000 A 
ATOM     15  O   UNL     1       2.534   9.973  17.371  0.00  0.00    +0.000 OA
ATOM     16  C   UNL     1       2.451   7.955  18.491  0.00  0.00    +0.000 A 
ATOM     17  C   UNL     1       3.389   7.431  17.574  0.00  0.00    +0.000 A 
ENDROOT
BRANCH   1  19
ATOM     18  C   UNL     1       6.545   5.406  17.527  0.00  0.00    +0.000 C 
ATOM     19  S   UNL     1       5.063   5.500  16.559  0.00  0.00    +0.000 S 
ATOM     20  O   UNL     1       5.258   6.523  15.549  0.00  0.00    +0.000 OA
ATOM     21  O   UNL     1       4.654   4.159  16.198  0.00  0.00    +0.000 OA
ENDBRANCH   1  19
BRANCH   3  22
ATOM     22  N   UNL     1       1.923   4.926  20.624  0.00  0.00    +0.000 N 
ATOM     23  O   UNL     1       2.629   4.788  21.631  0.00  0.00    +0.000 OA
ATOM     24  O   UNL     1       0.820   4.398  20.433  0.00  0.00    +0.000 OA
ENDBRANCH   3  22
BRANCH  10  25
ATOM     25  C   UNL     1      -2.930  12.149  22.565  0.00  0.00    +0.000 C 
BRANCH  25  26
ATOM     26  C   UNL     1      -3.799  13.305  23.009  0.00  0.00    +0.000 A 
ATOM     27  C   UNL     1      -5.194  13.234  22.864  0.00  0.00    +0.000 A 
ATOM     28  C   UNL     1      -6.009  14.274  23.310  0.00  0.00    +0.000 A 
ATOM     29  C   UNL     1      -5.441  15.397  23.907  0.00  0.00    +0.000 A 
ATOM     30  C   UNL     1      -4.057  15.481  24.057  0.00  0.00    +0.000 A 
ATOM     31  C   UNL     1      -3.239  14.441  23.610  0.00  0.00    +0.000 A 
ENDBRANCH  25  26
ENDBRANCH  10  25
TORSDOF 4
ENDMDL
MODEL 6
REMARK VINA RESULT:      -7.6      1.906      2.740
REMARK  Name = 
REMARK  5 active torsions:
REMARK  status: ('A' for Active; 'I' for Inactive)
REMARK    1  A    between atoms: C_1  and  S_2
REMARK    2  A    between atoms: S_2  and  C_5
REMARK    3  A    between atoms: C_7  and  N_8
REMARK    4  A    between atoms: N_17  and  C_18
REMARK    5  A    between atoms: C_18  and  C_19
REMARK                            x       y       z     vdW  Elec       q    Type
REMARK                         _______ _______ _______ _____ _____    ______ ____
ROOT
ATOM      1  C   UNL     1      -1.637  11.727  21.450  0.00  0.00    +0.000 A 
ATOM      2  C   UNL     1      -1.831  11.908  20.087  0.00  0.00    +0.000 A 
ATOM      3  C   UNL     1      -1.073  11.136  19.193  0.00  0.00    +0.000 A 
ATOM      4  C   UNL     1      -0.124  10.180  19.618  0.00  0.00    +0.000 A 
ATOM      5  S   UNL     1       0.850   9.254  18.479  0.00  0.00    +0.000 S 
ATOM      6  C   UNL     1       1.736   8.137  19.488  0.00  0.00    +0.000 A 
ATOM      7  N   UNL     1       2.523   7.211  18.828  0.00  0.00    +0.000 N 
ATOM      8  C   UNL     1       3.185   7.452  17.534  0.00  0.00    +0.000 C 
ATOM      9  C   UNL     1       4.697   7.111  17.596  0.00  0.00    +0.000 C 
ATOM     10  N   UNL     1       5.023   5.774  18.145  0.00  0.00    +0.000 NA
ATOM     11  C   UNL     1       4.373   5.675  19.473  0.00  0.00    +0.000 C 
ATOM     12  C   UNL     1       2.853   5.918  19.459  0.00  0.00    +0.000 C 
ATOM     13  N   UNL     1       1.658   8.124  20.776  0.00  0.00    +0.000 NA
ATOM     14  C   UNL     1       0.958   8.995  21.552  0.00  0.00    +0.000 A 
ATOM     15  O   UNL     1       1.052   8.954  22.778  0.00  0.00    +0.000 OA
ATOM     16  C   UNL     1       0.026  10.003  20.994  0.00  0.00    +0.000 A 
ATOM     17  C   UNL     1      -0.718  10.783  21.907  0.00  0.00    +0.000 A 
ENDROOT
BRANCH   1  19
ATOM     18  C   UNL     1      -1.231  13.577  23.529  0.00  0.00    +0.000 C 
ATOM     19  S   UNL     1      -2.505  12.747  22.619  0.00  0.00    +0.000 S 
ATOM     20  O   UNL     1      -3.190  11.853  23.533  0.00  0.00    +0.000 OA
ATOM     21  O   UNL     1      -3.236  13.723  21.839  0.00  0.00    +0.000 OA
ENDBRANCH   1  19
BRANCH   3  22
ATOM     22  N   UNL     1      -1.343  11.348  17.782  0.00  0.00    +0.000 N 
ATOM     23  O   UNL     1      -1.174  12.498  17.355  0.00  0.00    +0.000 OA
ATOM     24  O   UNL     1      -1.672  10.364  17.106  0.00  0.00    +0.000 OA
ENDBRANCH   3  22
BRANCH  10  25
ATOM     25  C   UNL     1       4.596   4.723  17.201  0.00  0.00    +0.000 C 
BRANCH  25  26
ATOM     26  C   UNL     1       5.396   4.639  15.920  0.00  0.00    +0.000 A 
ATOM     27  C   UNL     1       6.761   4.972  15.919  0.00  0.00    +0.000 A 
ATOM     28  C   UNL     1       7.520   4.855  14.754  0.00  0.00    +0.000 A 
ATOM     29  C   UNL     1       6.926   4.404  13.578  0.00  0.00    +0.000 A 
ATOM     30  C   UNL     1       5.571   4.071  13.565  0.00  0.00    +0.000 A 
ATOM     31  C   UNL     1       4.810   4.189  14.730  0.00  0.00    +0.000 A 
ENDBRANCH  25  26
ENDBRANCH  10  25
TORSDOF 4
ENDMDL
MODEL 7
REMARK VINA RESULT:      -7.5      3.569      9.813
REMARK  Name = 
REMARK  5 active torsions:
REMARK  status: ('A' for Active; 'I' for Inactive)
REMARK    1  A    between atoms: C_1  and  S_2
REMARK    2  A    between atoms: S_2  and  C_5
REMARK    3  A    between atoms: C_7  and  N_8
REMARK    4  A    between atoms: N_17  and  C_18
REMARK    5  A    between atoms: C_18  and  C_19
REMARK                            x       y       z     vdW  Elec       q    Type
REMARK                         _______ _______ _______ _____ _____    ______ ____
ROOT
ATOM      1  C   UNL     1       3.923   6.383  17.684  0.00  0.00    +0.000 A 
ATOM      2  C   UNL     1       3.421   5.550  18.675  0.00  0.00    +0.000 A 
ATOM      3  C   UNL     1       2.466   6.064  19.564  0.00  0.00    +0.000 A 
ATOM      4  C   UNL     1       1.990   7.392  19.496  0.00  0.00    +0.000 A 
ATOM      5  S   UNL     1       0.825   8.032  20.652  0.00  0.00    +0.000 S 
ATOM      6  C   UNL     1       0.466   9.633  20.053  0.00  0.00    +0.000 A 
ATOM      7  N   UNL     1      -0.510  10.336  20.734  0.00  0.00    +0.000 N 
ATOM      8  C   UNL     1      -0.782  10.197  22.175  0.00  0.00    +0.000 C 
ATOM      9  C   UNL     1      -0.794  11.576  22.887  0.00  0.00    +0.000 C 
ATOM     10  N   UNL     1      -1.652  12.607  22.257  0.00  0.00    +0.000 NA
ATOM     11  C   UNL     1      -1.237  12.714  20.838  0.00  0.00    +0.000 C 
ATOM     12  C   UNL     1      -1.291  11.389  20.056  0.00  0.00    +0.000 C 
ATOM     13  N   UNL     1       1.034  10.149  19.014  0.00  0.00    +0.000 NA
ATOM     14  C   UNL     1       2.031   9.590  18.277  0.00  0.00    +0.000 A 
ATOM     15  O   UNL     1       2.575  10.227  17.376  0.00  0.00    +0.000 OA
ATOM     16  C   UNL     1       2.493   8.196  18.473  0.00  0.00    +0.000 A 
ATOM     17  C   UNL     1       3.467   7.697  17.578  0.00  0.00    +0.000 A 
ENDROOT
BRANCH   1  19
ATOM     18  C   UNL     1       4.739   4.143  16.193  0.00  0.00    +0.000 C 
ATOM     19  S   UNL     1       5.202   5.806  16.593  0.00  0.00    +0.000 S 
ATOM     20  O   UNL     1       6.426   5.750  17.369  0.00  0.00    +0.000 OA
ATOM     21  O   UNL     1       5.110   6.618  15.398  0.00  0.00    +0.000 OA
ENDBRANCH   1  19
BRANCH   3  22
ATOM     22  N   UNL     1       1.956   5.135  20.558  0.00  0.00    +0.000 N 
ATOM     23  O   UNL     1       2.638   4.993  21.581  0.00  0.00    +0.000 OA
ATOM     24  O   UNL     1       0.864   4.596  20.332  0.00  0.00    +0.000 OA
ENDBRANCH   3  22
BRANCH  10  25
ATOM     25  C   UNL     1      -3.074  12.255  22.431  0.00  0.00    +0.000 C 
BRANCH  25  26
ATOM     26  C   UNL     1      -4.060  13.206  21.789  0.00  0.00    +0.000 A 
ATOM     27  C   UNL     1      -4.095  14.554  22.180  0.00  0.00    +0.000 A 
ATOM     28  C   UNL     1      -4.968  15.451  21.564  0.00  0.00    +0.000 A 
ATOM     29  C   UNL     1      -5.814  15.012  20.549  0.00  0.00    +0.000 A 
ATOM     30  C   UNL     1      -5.790  13.676  20.150  0.00  0.00    +0.000 A 
ATOM     31  C   UNL     1      -4.917  12.776  20.767  0.00  0.00    +0.000 A 
ENDBRANCH  25  26
ENDBRANCH  10  25
TORSDOF 4
ENDMDL
MODEL 8
REMARK VINA RESULT:      -7.4      4.084      9.513
REMARK  Name = 
REMARK  5 active torsions:
REMARK  status: ('A' for Active; 'I' for Inactive)
REMARK    1  A    between atoms: C_1  and  S_2
REMARK    2  A    between atoms: S_2  and  C_5
REMARK    3  A    between atoms: C_7  and  N_8
REMARK    4  A    between atoms: N_17  and  C_18
REMARK    5  A    between atoms: C_18  and  C_19
REMARK                            x       y       z     vdW  Elec       q    Type
REMARK                         _______ _______ _______ _____ _____    ______ ____
ROOT
ATOM      1  C   UNL     1       1.918   5.367  20.118  0.00  0.00    +0.000 A 
ATOM      2  C   UNL     1       2.701   5.768  19.044  0.00  0.00    +0.000 A 
ATOM      3  C   UNL     1       2.694   7.122  18.677  0.00  0.00    +0.000 A 
ATOM      4  C   UNL     1       1.928   8.097  19.353  0.00  0.00    +0.000 A 
ATOM      5  S   UNL     1       1.898   9.784  18.847  0.00  0.00    +0.000 S 
ATOM      6  C   UNL     1       0.939  10.579  20.072  0.00  0.00    +0.000 A 
ATOM      7  N   UNL     1       0.831  11.953  19.967  0.00  0.00    +0.000 N 
ATOM      8  C   UNL     1       0.851  12.695  18.694  0.00  0.00    +0.000 C 
ATOM      9  C   UNL     1      -0.360  13.657  18.578  0.00  0.00    +0.000 C 
ATOM     10  N   UNL     1      -0.571  14.553  19.739  0.00  0.00    +0.000 NA
ATOM     11  C   UNL     1      -0.653  13.696  20.945  0.00  0.00    +0.000 C 
ATOM     12  C   UNL     1       0.566  12.780  21.161  0.00  0.00    +0.000 C 
ATOM     13  N   UNL     1       0.378   9.955  21.053  0.00  0.00    +0.000 NA
ATOM     14  C   UNL     1       0.369   8.610  21.257  0.00  0.00    +0.000 A 
ATOM     15  O   UNL     1      -0.298   8.120  22.166  0.00  0.00    +0.000 OA
ATOM     16  C   UNL     1       1.174   7.667  20.445  0.00  0.00    +0.000 A 
ATOM     17  C   UNL     1       1.157   6.304  20.818  0.00  0.00    +0.000 A 
ENDROOT
BRANCH   1  19
ATOM     18  C   UNL     1       3.122   2.870  19.645  0.00  0.00    +0.000 C 
ATOM     19  S   UNL     1       1.820   3.648  20.561  0.00  0.00    +0.000 S 
ATOM     20  O   UNL     1       0.559   3.150  20.046  0.00  0.00    +0.000 OA
ATOM     21  O   UNL     1       2.132   3.577  21.973  0.00  0.00    +0.000 OA
ENDBRANCH   1  19
BRANCH   3  22
ATOM     22  N   UNL     1       3.558   7.485  17.566  0.00  0.00    +0.000 N 
ATOM     23  O   UNL     1       4.716   7.052  17.604  0.00  0.00    +0.000 OA
ATOM     24  O   UNL     1       3.063   8.155  16.650  0.00  0.00    +0.000 OA
ENDBRANCH   3  22
BRANCH  10  25
ATOM     25  C   UNL     1       0.506  15.559  19.803  0.00  0.00    +0.000 C 
BRANCH  25  26
ATOM     26  C   UNL     1       0.490  16.597  18.702  0.00  0.00    +0.000 A 
ATOM     27  C   UNL     1       1.661  16.871  17.976  0.00  0.00    +0.000 A 
ATOM     28  C   UNL     1       1.647  17.794  16.930  0.00  0.00    +0.000 A 
ATOM     29  C   UNL     1       0.466  18.450  16.595  0.00  0.00    +0.000 A 
ATOM     30  C   UNL     1      -0.704  18.187  17.308  0.00  0.00    +0.000 A 
ATOM     31  C   UNL     1      -0.692  17.265  18.357  0.00  0.00    +0.000 A 
ENDBRANCH  25  26
ENDBRANCH  10  25
TORSDOF 4
ENDMDL
MODEL 9
REMARK VINA RESULT:      -7.4      4.152     10.085
REMARK  Name = 
REMARK  5 active torsions:
REMARK  status: ('A' for Active; 'I' for Inactive)
REMARK    1  A    between atoms: C_1  and  S_2
REMARK    2  A    between atoms: S_2  and  C_5
REMARK    3  A    between atoms: C_7  and  N_8
REMARK    4  A    between atoms: N_17  and  C_18
REMARK    5  A    between atoms: C_18  and  C_19
REMARK                            x       y       z     vdW  Elec       q    Type
REMARK                         _______ _______ _______ _____ _____    ______ ____
ROOT
ATOM      1  C   UNL     1       4.373   4.650  17.104  0.00  0.00    +0.000 A 
ATOM      2  C   UNL     1       3.784   3.804  18.034  0.00  0.00    +0.000 A 
ATOM      3  C   UNL     1       2.949   4.361  19.013  0.00  0.00    +0.000 A 
ATOM      4  C   UNL     1       2.677   5.745  19.094  0.00  0.00    +0.000 A 
ATOM      5  S   UNL     1       1.662   6.429  20.361  0.00  0.00    +0.000 S 
ATOM      6  C   UNL     1       1.529   8.117  19.934  0.00  0.00    +0.000 A 
ATOM      7  N   UNL     1       0.694   8.884  20.726  0.00  0.00    +0.000 N 
ATOM      8  C   UNL     1       0.453   8.642  22.158  0.00  0.00    +0.000 C 
ATOM      9  C   UNL     1       0.673   9.928  22.997  0.00  0.00    +0.000 C 
ATOM     10  N   UNL     1      -0.039  11.133  22.510  0.00  0.00    +0.000 NA
ATOM     11  C   UNL     1       0.338  11.320  21.089  0.00  0.00    +0.000 C 
ATOM     12  C   UNL     1       0.059  10.104  20.189  0.00  0.00    +0.000 C 
ATOM     13  N   UNL     1       2.133   8.646  18.922  0.00  0.00    +0.000 NA
ATOM     14  C   UNL     1       3.008   8.024  18.088  0.00  0.00    +0.000 A 
ATOM     15  O   UNL     1       3.612   8.661  17.227  0.00  0.00    +0.000 OA
ATOM     16  C   UNL     1       3.261   6.564  18.129  0.00  0.00    +0.000 A 
ATOM     17  C   UNL     1       4.118   6.021  17.144  0.00  0.00    +0.000 A 
ENDROOT
BRANCH   1  19
ATOM     18  C   UNL     1       7.111   4.513  16.474  0.00  0.00    +0.000 C 
ATOM     19  S   UNL     1       5.513   4.004  15.901  0.00  0.00    +0.000 S 
ATOM     20  O   UNL     1       5.248   4.696  14.655  0.00  0.00    +0.000 OA
ATOM     21  O   UNL     1       5.419   2.562  15.992  0.00  0.00    +0.000 OA
ENDBRANCH   1  19
BRANCH   3  22
ATOM     22  N   UNL     1       2.339   3.422  19.938  0.00  0.00    +0.000 N 
ATOM     23  O   UNL     1       1.223   2.986  19.625  0.00  0.00    +0.000 OA
ATOM     24  O   UNL     1       2.992   3.094  20.938  0.00  0.00    +0.000 OA
ENDBRANCH   3  22
BRANCH  10  25
ATOM     25  C   UNL     1      -1.492  10.978  22.718  0.00  0.00    +0.000 C 
BRANCH  25  26
ATOM     26  C   UNL     1      -2.194  12.182  23.307  0.00  0.00    +0.000 A 
ATOM     27  C   UNL     1      -3.516  12.070  23.769  0.00  0.00    +0.000 A 
ATOM     28  C   UNL     1      -4.158  13.161  24.355  0.00  0.00    +0.000 A 
ATOM     29  C   UNL     1      -3.488  14.374  24.488  0.00  0.00    +0.000 A 
ATOM     30  C   UNL     1      -2.175  14.499  24.034  0.00  0.00    +0.000 A 
ATOM     31  C   UNL     1      -1.531  13.408  23.446  0.00  0.00    +0.000 A 
ENDBRANCH  25  26
ENDBRANCH  10  25
TORSDOF 4
ENDMDL
