MODEL 1
REMARK VINA RESULT:      -6.1      0.000      0.000
REMARK  Name = 
REMARK  16 active torsions:
REMARK  status: ('A' for Active; 'I' for Inactive)
REMARK    1  A    between atoms: C_1  and  C_2
REMARK    2  A    between atoms: C_2  and  C_3
REMARK    3  A    between atoms: C_3  and  C_4
REMARK    4  A    between atoms: C_4  and  C_5
REMARK    5  A    between atoms: C_5  and  C_6
REMARK    6  A    between atoms: C_7  and  C_8
REMARK    7  A    between atoms: C_9  and  C_10
REMARK    8  A    between atoms: C_11  and  C_12
REMARK    9  A    between atoms: C_12  and  C_13
REMARK   10  A    between atoms: C_13  and  C_14
REMARK   11  A    between atoms: C_14  and  C_15
REMARK   12  A    between atoms: C_15  and  C_16
REMARK   13  A    between atoms: C_16  and  C_17
REMARK   14  A    between atoms: C_17  and  O_18
REMARK   15  A    between atoms: C_17  and  C_19
REMARK   16  A    between atoms: C_19  and  O_21
REMARK                            x       y       z     vdW  Elec       q    Type
REMARK                         _______ _______ _______ _____ _____    ______ ____
ROOT
ATOM      1  C   UNL     1       5.806   4.624  15.182  0.00  0.00    +0.000 C 
ENDROOT
BRANCH   1   3
ATOM      2  C   UNL     1       7.054   6.630  16.728  0.00  0.00    +0.000 C 
ATOM      3  C   UNL     1       6.478   5.704  16.014  0.00  0.00    +0.000 C 
BRANCH   2   5
ATOM      4  C   UNL     1       8.283   8.604  18.250  0.00  0.00    +0.000 C 
ATOM      5  C   UNL     1       7.747   7.741  17.584  0.00  0.00    +0.000 C 
BRANCH   4   7
ATOM      6  C   UNL     1       9.551  10.641  19.823  0.00  0.00    +0.000 C 
ATOM      7  C   UNL     1       8.975   9.715  19.108  0.00  0.00    +0.000 C 
BRANCH   6   8
ATOM      8  C   UNL     1      10.222  11.721  20.656  0.00  0.00    +0.000 C 
BRANCH   8   9
ATOM      9  C   UNL     1      11.499  12.173  19.970  0.00  0.00    +0.000 C 
BRANCH   9  10
ATOM     10  C   UNL     1      11.632  11.498  18.612  0.00  0.00    +0.000 C 
BRANCH  10  12
ATOM     11  C   UNL     1      10.342  13.092  17.187  0.00  0.00    +0.000 C 
ATOM     12  C   UNL     1      11.717  12.536  17.500  0.00  0.00    +0.000 C 
ENDBRANCH  10  12
ENDBRANCH   9  10
ENDBRANCH   8   9
ENDBRANCH   6   8
ENDBRANCH   4   7
ENDBRANCH   2   5
ENDBRANCH   1   3
BRANCH   1  13
ATOM     13  C   UNL     1       5.161   3.601  16.099  0.00  0.00    +0.000 C 
BRANCH  13  14
ATOM     14  C   UNL     1       4.418   4.299  17.228  0.00  0.00    +0.000 C 
BRANCH  14  15
ATOM     15  C   UNL     1       2.957   3.865  17.244  0.00  0.00    +0.000 C 
BRANCH  15  16
ATOM     16  C   UNL     1       2.739   2.771  18.281  0.00  0.00    +0.000 C 
BRANCH  16  17
ATOM     17  C   UNL     1       1.498   3.015  19.137  0.00  0.00    +0.000 C 
BRANCH  17  18
ATOM     18  O   UNL     1       0.433   2.142  18.757  0.00  0.00    +0.000 OA
ATOM     19  H   UNL     1       0.718   1.265  19.072  0.00  0.00    +0.000 HD
ENDBRANCH  17  18
BRANCH  17  20
ATOM     20  C   UNL     1       1.813   2.740  20.605  0.00  0.00    +0.000 C 
ATOM     21  O   UNL     1       2.926   2.490  21.039  0.00  0.00    +0.000 OA
BRANCH  20  22
ATOM     22  O   UNL     1       0.724   2.805  21.415  0.00  0.00    +0.000 OA
ATOM     23  H   UNL     1       0.285   1.931  21.500  0.00  0.00    +0.000 HD
ENDBRANCH  20  22
ENDBRANCH  17  20
ENDBRANCH  16  17
ENDBRANCH  15  16
ENDBRANCH  14  15
ENDBRANCH  13  14
ENDBRANCH   1  13
TORSDOF 15
ENDMDL
MODEL 2
REMARK VINA RESULT:      -6.0      1.697      2.656
REMARK  Name = 
REMARK  16 active torsions:
REMARK  status: ('A' for Active; 'I' for Inactive)
REMARK    1  A    between atoms: C_1  and  C_2
REMARK    2  A    between atoms: C_2  and  C_3
REMARK    3  A    between atoms: C_3  and  C_4
REMARK    4  A    between atoms: C_4  and  C_5
REMARK    5  A    between atoms: C_5  and  C_6
REMARK    6  A    between atoms: C_7  and  C_8
REMARK    7  A    between atoms: C_9  and  C_10
REMARK    8  A    between atoms: C_11  and  C_12
REMARK    9  A    between atoms: C_12  and  C_13
REMARK   10  A    between atoms: C_13  and  C_14
REMARK   11  A    between atoms: C_14  and  C_15
REMARK   12  A    between atoms: C_15  and  C_16
REMARK   13  A    between atoms: C_16  and  C_17
REMARK   14  A    between atoms: C_17  and  O_18
REMARK   15  A    between atoms: C_17  and  C_19
REMARK   16  A    between atoms: C_19  and  O_21
REMARK                            x       y       z     vdW  Elec       q    Type
REMARK                         _______ _______ _______ _____ _____    ______ ____
ROOT
ATOM      1  C   UNL     1       6.700   4.692  17.804  0.00  0.00    +0.000 C 
ENDROOT
BRANCH   1   3
ATOM      2  C   UNL     1       7.707   7.325  17.959  0.00  0.00    +0.000 C 
ATOM      3  C   UNL     1       7.242   6.109  17.887  0.00  0.00    +0.000 C 
BRANCH   2   5
ATOM      4  C   UNL     1       8.699   9.917  18.111  0.00  0.00    +0.000 C 
ATOM      5  C   UNL     1       8.265   8.784  18.044  0.00  0.00    +0.000 C 
BRANCH   4   7
ATOM      6  C   UNL     1       9.724  12.592  18.267  0.00  0.00    +0.000 C 
ATOM      7  C   UNL     1       9.259  11.376  18.196  0.00  0.00    +0.000 C 
BRANCH   6   8
ATOM      8  C   UNL     1      10.267  14.009  18.350  0.00  0.00    +0.000 C 
BRANCH   8   9
ATOM      9  C   UNL     1      10.023  14.567  19.741  0.00  0.00    +0.000 C 
BRANCH   9  10
ATOM     10  C   UNL     1      10.527  13.590  20.794  0.00  0.00    +0.000 C 
BRANCH  10  12
ATOM     11  C   UNL     1       8.914  12.053  21.921  0.00  0.00    +0.000 C 
ATOM     12  C   UNL     1       9.516  13.444  21.924  0.00  0.00    +0.000 C 
ENDBRANCH  10  12
ENDBRANCH   9  10
ENDBRANCH   8   9
ENDBRANCH   6   8
ENDBRANCH   4   7
ENDBRANCH   2   5
ENDBRANCH   1   3
BRANCH   1  13
ATOM     13  C   UNL     1       6.305   4.381  16.372  0.00  0.00    +0.000 C 
BRANCH  13  14
ATOM     14  C   UNL     1       5.052   3.519  16.344  0.00  0.00    +0.000 C 
BRANCH  14  15
ATOM     15  C   UNL     1       4.150   3.864  17.524  0.00  0.00    +0.000 C 
BRANCH  15  16
ATOM     16  C   UNL     1       2.974   2.899  17.593  0.00  0.00    +0.000 C 
BRANCH  16  17
ATOM     17  C   UNL     1       3.149   1.839  18.680  0.00  0.00    +0.000 C 
BRANCH  17  18
ATOM     18  O   UNL     1       3.962   0.760  18.218  0.00  0.00    +0.000 OA
ATOM     19  H   UNL     1       4.859   0.989  18.523  0.00  0.00    +0.000 HD
ENDBRANCH  17  18
BRANCH  17  20
ATOM     20  C   UNL     1       3.841   2.448  19.895  0.00  0.00    +0.000 C 
ATOM     21  O   UNL     1       5.012   2.269  20.188  0.00  0.00    +0.000 OA
BRANCH  20  22
ATOM     22  O   UNL     1       3.026   3.237  20.645  0.00  0.00    +0.000 OA
ATOM     23  H   UNL     1       3.478   3.549  21.459  0.00  0.00    +0.000 HD
ENDBRANCH  20  22
ENDBRANCH  17  20
ENDBRANCH  16  17
ENDBRANCH  15  16
ENDBRANCH  14  15
ENDBRANCH  13  14
ENDBRANCH   1  13
TORSDOF 15
ENDMDL
MODEL 3
REMARK VINA RESULT:      -6.0      7.486      9.886
REMARK  Name = 
REMARK  16 active torsions:
REMARK  status: ('A' for Active; 'I' for Inactive)
REMARK    1  A    between atoms: C_1  and  C_2
REMARK    2  A    between atoms: C_2  and  C_3
REMARK    3  A    between atoms: C_3  and  C_4
REMARK    4  A    between atoms: C_4  and  C_5
REMARK    5  A    between atoms: C_5  and  C_6
REMARK    6  A    between atoms: C_7  and  C_8
REMARK    7  A    between atoms: C_9  and  C_10
REMARK    8  A    between atoms: C_11  and  C_12
REMARK    9  A    between atoms: C_12  and  C_13
REMARK   10  A    between atoms: C_13  and  C_14
REMARK   11  A    between atoms: C_14  and  C_15
REMARK   12  A    between atoms: C_15  and  C_16
REMARK   13  A    between atoms: C_16  and  C_17
REMARK   14  A    between atoms: C_17  and  O_18
REMARK   15  A    between atoms: C_17  and  C_19
REMARK   16  A    between atoms: C_19  and  O_21
REMARK                            x       y       z     vdW  Elec       q    Type
REMARK                         _______ _______ _______ _____ _____    ______ ____
ROOT
ATOM      1  C   UNL     1      -2.116  10.679  17.990  0.00  0.00    +0.000 C 
ENDROOT
BRANCH   1   3
ATOM      2  C   UNL     1       0.345   9.300  17.844  0.00  0.00    +0.000 C 
ATOM      3  C   UNL     1      -0.791   9.937  17.911  0.00  0.00    +0.000 C 
BRANCH   2   5
ATOM      4  C   UNL     1       2.765   7.941  17.703  0.00  0.00    +0.000 C 
ATOM      5  C   UNL     1       1.707   8.536  17.763  0.00  0.00    +0.000 C 
BRANCH   4   7
ATOM      6  C   UNL     1       5.262   6.536  17.557  0.00  0.00    +0.000 C 
ATOM      7  C   UNL     1       4.127   7.174  17.623  0.00  0.00    +0.000 C 
BRANCH   6   8
ATOM      8  C   UNL     1       6.585   5.792  17.480  0.00  0.00    +0.000 C 
BRANCH   8   9
ATOM      9  C   UNL     1       6.915   5.489  16.029  0.00  0.00    +0.000 C 
BRANCH   9  10
ATOM     10  C   UNL     1       6.100   4.299  15.543  0.00  0.00    +0.000 C 
BRANCH  10  12
ATOM     11  C   UNL     1       5.937   3.464  13.196  0.00  0.00    +0.000 C 
ATOM     12  C   UNL     1       5.531   4.565  14.155  0.00  0.00    +0.000 C 
ENDBRANCH  10  12
ENDBRANCH   9  10
ENDBRANCH   8   9
ENDBRANCH   6   8
ENDBRANCH   4   7
ENDBRANCH   2   5
ENDBRANCH   1   3
BRANCH   1  13
ATOM     13  C   UNL     1      -3.171   9.922  17.205  0.00  0.00    +0.000 C 
BRANCH  13  14
ATOM     14  C   UNL     1      -2.642   9.555  15.827  0.00  0.00    +0.000 C 
BRANCH  14  15
ATOM     15  C   UNL     1      -3.240  10.478  14.771  0.00  0.00    +0.000 C 
BRANCH  15  16
ATOM     16  C   UNL     1      -4.193   9.705  13.869  0.00  0.00    +0.000 C 
BRANCH  16  17
ATOM     17  C   UNL     1      -3.974  10.009  12.388  0.00  0.00    +0.000 C 
BRANCH  17  18
ATOM     18  O   UNL     1      -2.729   9.477  11.934  0.00  0.00    +0.000 OA
ATOM     19  H   UNL     1      -2.332  10.201  11.417  0.00  0.00    +0.000 HD
ENDBRANCH  17  18
BRANCH  17  20
ATOM     20  C   UNL     1      -5.078   9.367  11.554  0.00  0.00    +0.000 C 
ATOM     21  O   UNL     1      -6.251   9.308  11.885  0.00  0.00    +0.000 OA
BRANCH  20  22
ATOM     22  O   UNL     1      -4.639   8.855  10.374  0.00  0.00    +0.000 OA
ATOM     23  H   UNL     1      -5.112   8.027  10.142  0.00  0.00    +0.000 HD
ENDBRANCH  20  22
ENDBRANCH  17  20
ENDBRANCH  16  17
ENDBRANCH  15  16
ENDBRANCH  14  15
ENDBRANCH  13  14
ENDBRANCH   1  13
TORSDOF 15
ENDMDL
MODEL 4
REMARK VINA RESULT:      -5.9      5.231      7.932
REMARK  Name = 
REMARK  16 active torsions:
REMARK  status: ('A' for Active; 'I' for Inactive)
REMARK    1  A    between atoms: C_1  and  C_2
REMARK    2  A    between atoms: C_2  and  C_3
REMARK    3  A    between atoms: C_3  and  C_4
REMARK    4  A    between atoms: C_4  and  C_5
REMARK    5  A    between atoms: C_5  and  C_6
REMARK    6  A    between atoms: C_7  and  C_8
REMARK    7  A    between atoms: C_9  and  C_10
REMARK    8  A    between atoms: C_11  and  C_12
REMARK    9  A    between atoms: C_12  and  C_13
REMARK   10  A    between atoms: C_13  and  C_14
REMARK   11  A    between atoms: C_14  and  C_15
REMARK   12  A    between atoms: C_15  and  C_16
REMARK   13  A    between atoms: C_16  and  C_17
REMARK   14  A    between atoms: C_17  and  O_18
REMARK   15  A    between atoms: C_17  and  C_19
REMARK   16  A    between atoms: C_19  and  O_21
REMARK                            x       y       z     vdW  Elec       q    Type
REMARK                         _______ _______ _______ _____ _____    ______ ____
ROOT
ATOM      1  C   UNL     1       6.283   5.733  17.246  0.00  0.00    +0.000 C 
ENDROOT
BRANCH   1   3
ATOM      2  C   UNL     1       3.941   7.273  17.587  0.00  0.00    +0.000 C 
ATOM      3  C   UNL     1       5.022   6.562  17.430  0.00  0.00    +0.000 C 
BRANCH   2   5
ATOM      4  C   UNL     1       1.635   8.787  17.926  0.00  0.00    +0.000 C 
ATOM      5  C   UNL     1       2.643   8.125  17.777  0.00  0.00    +0.000 C 
BRANCH   4   7
ATOM      6  C   UNL     1      -0.744  10.352  18.274  0.00  0.00    +0.000 C 
ATOM      7  C   UNL     1       0.338   9.641  18.116  0.00  0.00    +0.000 C 
BRANCH   6   8
ATOM      8  C   UNL     1      -2.005  11.181  18.459  0.00  0.00    +0.000 C 
BRANCH   8   9
ATOM      9  C   UNL     1      -3.184  10.460  17.831  0.00  0.00    +0.000 C 
BRANCH   9  10
ATOM     10  C   UNL     1      -2.755   9.779  16.540  0.00  0.00    +0.000 C 
BRANCH  10  12
ATOM     11  C   UNL     1      -3.664  10.078  14.233  0.00  0.00    +0.000 C 
ATOM     12  C   UNL     1      -2.884  10.731  15.358  0.00  0.00    +0.000 C 
ENDBRANCH  10  12
ENDBRANCH   9  10
ENDBRANCH   8   9
ENDBRANCH   6   8
ENDBRANCH   4   7
ENDBRANCH   2   5
ENDBRANCH   1   3
BRANCH   1  13
ATOM     13  C   UNL     1       5.920   4.261  17.192  0.00  0.00    +0.000 C 
BRANCH  13  14
ATOM     14  C   UNL     1       4.491   4.086  16.701  0.00  0.00    +0.000 C 
BRANCH  14  15
ATOM     15  C   UNL     1       3.768   3.045  17.548  0.00  0.00    +0.000 C 
BRANCH  15  16
ATOM     16  C   UNL     1       3.077   3.711  18.731  0.00  0.00    +0.000 C 
BRANCH  16  17
ATOM     17  C   UNL     1       1.692   3.128  19.005  0.00  0.00    +0.000 C 
BRANCH  17  18
ATOM     18  O   UNL     1       1.754   1.709  19.155  0.00  0.00    +0.000 OA
ATOM     19  H   UNL     1       1.099   1.372  18.517  0.00  0.00    +0.000 HD
ENDBRANCH  17  18
BRANCH  17  20
ATOM     20  C   UNL     1       1.131   3.701  20.303  0.00  0.00    +0.000 C 
ATOM     21  O   UNL     1       1.049   4.892  20.556  0.00  0.00    +0.000 OA
BRANCH  20  22
ATOM     22  O   UNL     1       0.712   2.751  21.180  0.00  0.00    +0.000 OA
ATOM     23  H   UNL     1       1.462   2.213  21.514  0.00  0.00    +0.000 HD
ENDBRANCH  20  22
ENDBRANCH  17  20
ENDBRANCH  16  17
ENDBRANCH  15  16
ENDBRANCH  14  15
ENDBRANCH  13  14
ENDBRANCH   1  13
TORSDOF 15
ENDMDL
MODEL 5
REMARK VINA RESULT:      -5.9      1.605      2.488
REMARK  Name = 
REMARK  16 active torsions:
REMARK  status: ('A' for Active; 'I' for Inactive)
REMARK    1  A    between atoms: C_1  and  C_2
REMARK    2  A    between atoms: C_2  and  C_3
REMARK    3  A    between atoms: C_3  and  C_4
REMARK    4  A    between atoms: C_4  and  C_5
REMARK    5  A    between atoms: C_5  and  C_6
REMARK    6  A    between atoms: C_7  and  C_8
REMARK    7  A    between atoms: C_9  and  C_10
REMARK    8  A    between atoms: C_11  and  C_12
REMARK    9  A    between atoms: C_12  and  C_13
REMARK   10  A    between atoms: C_13  and  C_14
REMARK   11  A    between atoms: C_14  and  C_15
REMARK   12  A    between atoms: C_15  and  C_16
REMARK   13  A    between atoms: C_16  and  C_17
REMARK   14  A    between atoms: C_17  and  O_18
REMARK   15  A    between atoms: C_17  and  C_19
REMARK   16  A    between atoms: C_19  and  O_21
REMARK                            x       y       z     vdW  Elec       q    Type
REMARK                         _______ _______ _______ _____ _____    ______ ____
ROOT
ATOM      1  C   UNL     1       6.890   4.626  17.677  0.00  0.00    +0.000 C 
ENDROOT
BRANCH   1   3
ATOM      2  C   UNL     1       7.772   7.302  17.869  0.00  0.00    +0.000 C 
ATOM      3  C   UNL     1       7.364   6.066  17.781  0.00  0.00    +0.000 C 
BRANCH   2   5
ATOM      4  C   UNL     1       8.641   9.934  18.058  0.00  0.00    +0.000 C 
ATOM      5  C   UNL     1       8.262   8.783  17.976  0.00  0.00    +0.000 C 
BRANCH   4   7
ATOM      6  C   UNL     1       9.537  12.653  18.252  0.00  0.00    +0.000 C 
ATOM      7  C   UNL     1       9.129  11.417  18.164  0.00  0.00    +0.000 C 
BRANCH   6   8
ATOM      8  C   UNL     1      10.011  14.093  18.354  0.00  0.00    +0.000 C 
BRANCH   8   9
ATOM      9  C   UNL     1      10.268  14.442  19.810  0.00  0.00    +0.000 C 
BRANCH   9  10
ATOM     10  C   UNL     1       8.949  14.648  20.540  0.00  0.00    +0.000 C 
BRANCH  10  12
ATOM     11  C   UNL     1       9.624  12.564  21.739  0.00  0.00    +0.000 C 
ATOM     12  C   UNL     1       8.951  13.916  21.875  0.00  0.00    +0.000 C 
ENDBRANCH  10  12
ENDBRANCH   9  10
ENDBRANCH   8   9
ENDBRANCH   6   8
ENDBRANCH   4   7
ENDBRANCH   2   5
ENDBRANCH   1   3
BRANCH   1  13
ATOM     13  C   UNL     1       5.541   4.583  16.983  0.00  0.00    +0.000 C 
BRANCH  13  14
ATOM     14  C   UNL     1       4.459   4.143  17.957  0.00  0.00    +0.000 C 
BRANCH  14  15
ATOM     15  C   UNL     1       3.244   3.626  17.195  0.00  0.00    +0.000 C 
BRANCH  15  16
ATOM     16  C   UNL     1       1.963   4.206  17.781  0.00  0.00    +0.000 C 
BRANCH  16  17
ATOM     17  C   UNL     1       1.235   3.217  18.690  0.00  0.00    +0.000 C 
BRANCH  17  18
ATOM     18  O   UNL     1       1.754   1.896  18.530  0.00  0.00    +0.000 OA
ATOM     19  H   UNL     1       2.653   1.944  18.902  0.00  0.00    +0.000 HD
ENDBRANCH  17  18
BRANCH  17  20
ATOM     20  C   UNL     1       1.429   3.612  20.151  0.00  0.00    +0.000 C 
ATOM     21  O   UNL     1       2.170   4.502  20.536  0.00  0.00    +0.000 OA
BRANCH  20  22
ATOM     22  O   UNL     1       0.683   2.875  21.015  0.00  0.00    +0.000 OA
ATOM     23  H   UNL     1       1.245   2.297  21.576  0.00  0.00    +0.000 HD
ENDBRANCH  20  22
ENDBRANCH  17  20
ENDBRANCH  16  17
ENDBRANCH  15  16
ENDBRANCH  14  15
ENDBRANCH  13  14
ENDBRANCH   1  13
TORSDOF 15
ENDMDL
MODEL 6
REMARK VINA RESULT:      -5.8      1.664      1.684
REMARK  Name = 
REMARK  16 active torsions:
REMARK  status: ('A' for Active; 'I' for Inactive)
REMARK    1  A    between atoms: C_1  and  C_2
REMARK    2  A    between atoms: C_2  and  C_3
REMARK    3  A    between atoms: C_3  and  C_4
REMARK    4  A    between atoms: C_4  and  C_5
REMARK    5  A    between atoms: C_5  and  C_6
REMARK    6  A    between atoms: C_7  and  C_8
REMARK    7  A    between atoms: C_9  and  C_10
REMARK    8  A    between atoms: C_11  and  C_12
REMARK    9  A    between atoms: C_12  and  C_13
REMARK   10  A    between atoms: C_13  and  C_14
REMARK   11  A    between atoms: C_14  and  C_15
REMARK   12  A    between atoms: C_15  and  C_16
REMARK   13  A    between atoms: C_16  and  C_17
REMARK   14  A    between atoms: C_17  and  O_18
REMARK   15  A    between atoms: C_17  and  C_19
REMARK   16  A    between atoms: C_19  and  O_21
REMARK                            x       y       z     vdW  Elec       q    Type
REMARK                         _______ _______ _______ _____ _____    ______ ____
ROOT
ATOM      1  C   UNL     1       5.188   5.314  15.545  0.00  0.00    +0.000 C 
ENDROOT
BRANCH   1   3
ATOM      2  C   UNL     1       6.779   7.181  16.944  0.00  0.00    +0.000 C 
ATOM      3  C   UNL     1       6.044   6.319  16.298  0.00  0.00    +0.000 C 
BRANCH   2   5
ATOM      4  C   UNL     1       8.342   9.021  18.321  0.00  0.00    +0.000 C 
ATOM      5  C   UNL     1       7.659   8.217  17.718  0.00  0.00    +0.000 C 
BRANCH   4   7
ATOM      6  C   UNL     1       9.957  10.918  19.744  0.00  0.00    +0.000 C 
ATOM      7  C   UNL     1       9.223  10.055  19.097  0.00  0.00    +0.000 C 
BRANCH   6   8
ATOM      8  C   UNL     1      10.812  11.923  20.498  0.00  0.00    +0.000 C 
BRANCH   8   9
ATOM      9  C   UNL     1      12.198  11.977  19.881  0.00  0.00    +0.000 C 
BRANCH   9  10
ATOM     10  C   UNL     1      12.094  12.154  18.373  0.00  0.00    +0.000 C 
BRANCH  10  12
ATOM     11  C   UNL     1      11.526  13.736  16.526  0.00  0.00    +0.000 C 
ATOM     12  C   UNL     1      11.732  13.591  18.021  0.00  0.00    +0.000 C 
ENDBRANCH  10  12
ENDBRANCH   9  10
ENDBRANCH   8   9
ENDBRANCH   6   8
ENDBRANCH   4   7
ENDBRANCH   2   5
ENDBRANCH   1   3
BRANCH   1  13
ATOM     13  C   UNL     1       5.472   3.916  16.061  0.00  0.00    +0.000 C 
BRANCH  13  14
ATOM     14  C   UNL     1       5.241   3.850  17.563  0.00  0.00    +0.000 C 
BRANCH  14  15
ATOM     15  C   UNL     1       3.938   3.117  17.863  0.00  0.00    +0.000 C 
BRANCH  15  16
ATOM     16  C   UNL     1       3.385   3.551  19.215  0.00  0.00    +0.000 C 
BRANCH  16  17
ATOM     17  C   UNL     1       2.165   4.460  19.085  0.00  0.00    +0.000 C 
BRANCH  17  18
ATOM     18  O   UNL     1       0.980   3.794  19.520  0.00  0.00    +0.000 OA
ATOM     19  H   UNL     1       0.886   4.056  20.454  0.00  0.00    +0.000 HD
ENDBRANCH  17  18
BRANCH  17  20
ATOM     20  C   UNL     1       2.342   5.699  19.958  0.00  0.00    +0.000 C 
ATOM     21  O   UNL     1       2.487   6.833  19.532  0.00  0.00    +0.000 OA
BRANCH  20  22
ATOM     22  O   UNL     1       2.316   5.431  21.291  0.00  0.00    +0.000 OA
ATOM     23  H   UNL     1       2.680   4.540  21.486  0.00  0.00    +0.000 HD
ENDBRANCH  20  22
ENDBRANCH  17  20
ENDBRANCH  16  17
ENDBRANCH  15  16
ENDBRANCH  14  15
ENDBRANCH  13  14
ENDBRANCH   1  13
TORSDOF 15
ENDMDL
MODEL 7
REMARK VINA RESULT:      -5.8      6.315      9.195
REMARK  Name = 
REMARK  16 active torsions:
REMARK  status: ('A' for Active; 'I' for Inactive)
REMARK    1  A    between atoms: C_1  and  C_2
REMARK    2  A    between atoms: C_2  and  C_3
REMARK    3  A    between atoms: C_3  and  C_4
REMARK    4  A    between atoms: C_4  and  C_5
REMARK    5  A    between atoms: C_5  and  C_6
REMARK    6  A    between atoms: C_7  and  C_8
REMARK    7  A    between atoms: C_9  and  C_10
REMARK    8  A    between atoms: C_11  and  C_12
REMARK    9  A    between atoms: C_12  and  C_13
REMARK   10  A    between atoms: C_13  and  C_14
REMARK   11  A    between atoms: C_14  and  C_15
REMARK   12  A    between atoms: C_15  and  C_16
REMARK   13  A    between atoms: C_16  and  C_17
REMARK   14  A    between atoms: C_17  and  O_18
REMARK   15  A    between atoms: C_17  and  C_19
REMARK   16  A    between atoms: C_19  and  O_21
REMARK                            x       y       z     vdW  Elec       q    Type
REMARK                         _______ _______ _______ _____ _____    ______ ____
ROOT
ATOM      1  C   UNL     1       6.896   5.340  16.482  0.00  0.00    +0.000 C 
ENDROOT
BRANCH   1   3
ATOM      2  C   UNL     1       4.629   6.905  17.105  0.00  0.00    +0.000 C 
ATOM      3  C   UNL     1       5.676   6.182  16.817  0.00  0.00    +0.000 C 
BRANCH   2   5
ATOM      4  C   UNL     1       2.398   8.444  17.721  0.00  0.00    +0.000 C 
ATOM      5  C   UNL     1       3.374   7.772  17.451  0.00  0.00    +0.000 C 
BRANCH   4   7
ATOM      6  C   UNL     1       0.097  10.033  18.359  0.00  0.00    +0.000 C 
ATOM      7  C   UNL     1       1.143   9.310  18.069  0.00  0.00    +0.000 C 
BRANCH   6   8
ATOM      8  C   UNL     1      -1.122  10.876  18.697  0.00  0.00    +0.000 C 
BRANCH   8   9
ATOM      9  C   UNL     1      -2.378  10.171  18.215  0.00  0.00    +0.000 C 
BRANCH   9  10
ATOM     10  C   UNL     1      -2.251   9.823  16.739  0.00  0.00    +0.000 C 
BRANCH  10  12
ATOM     11  C   UNL     1      -4.190  11.351  16.368  0.00  0.00    +0.000 C 
ATOM     12  C   UNL     1      -2.819  10.938  15.871  0.00  0.00    +0.000 C 
ENDBRANCH  10  12
ENDBRANCH   9  10
ENDBRANCH   8   9
ENDBRANCH   6   8
ENDBRANCH   4   7
ENDBRANCH   2   5
ENDBRANCH   1   3
BRANCH   1  13
ATOM     13  C   UNL     1       6.457   3.941  16.094  0.00  0.00    +0.000 C 
BRANCH  13  14
ATOM     14  C   UNL     1       5.884   3.938  14.685  0.00  0.00    +0.000 C 
BRANCH  14  15
ATOM     15  C   UNL     1       6.821   4.675  13.734  0.00  0.00    +0.000 C 
BRANCH  15  16
ATOM     16  C   UNL     1       6.759   4.056  12.344  0.00  0.00    +0.000 C 
BRANCH  16  17
ATOM     17  C   UNL     1       5.713   2.948  12.242  0.00  0.00    +0.000 C 
BRANCH  17  18
ATOM     18  O   UNL     1       4.562   3.394  11.523  0.00  0.00    +0.000 OA
ATOM     19  H   UNL     1       4.195   2.582  11.130  0.00  0.00    +0.000 HD
ENDBRANCH  17  18
BRANCH  17  20
ATOM     20  C   UNL     1       6.289   1.753  11.487  0.00  0.00    +0.000 C 
ATOM     21  O   UNL     1       5.653   0.761  11.172  0.00  0.00    +0.000 OA
BRANCH  20  22
ATOM     22  O   UNL     1       7.606   1.891  11.179  0.00  0.00    +0.000 OA
ATOM     23  H   UNL     1       8.106   1.065  11.359  0.00  0.00    +0.000 HD
ENDBRANCH  20  22
ENDBRANCH  17  20
ENDBRANCH  16  17
ENDBRANCH  15  16
ENDBRANCH  14  15
ENDBRANCH  13  14
ENDBRANCH   1  13
TORSDOF 15
ENDMDL
MODEL 8
REMARK VINA RESULT:      -5.7      6.154      7.973
REMARK  Name = 
REMARK  16 active torsions:
REMARK  status: ('A' for Active; 'I' for Inactive)
REMARK    1  A    between atoms: C_1  and  C_2
REMARK    2  A    between atoms: C_2  and  C_3
REMARK    3  A    between atoms: C_3  and  C_4
REMARK    4  A    between atoms: C_4  and  C_5
REMARK    5  A    between atoms: C_5  and  C_6
REMARK    6  A    between atoms: C_7  and  C_8
REMARK    7  A    between atoms: C_9  and  C_10
REMARK    8  A    between atoms: C_11  and  C_12
REMARK    9  A    between atoms: C_12  and  C_13
REMARK   10  A    between atoms: C_13  and  C_14
REMARK   11  A    between atoms: C_14  and  C_15
REMARK   12  A    between atoms: C_15  and  C_16
REMARK   13  A    between atoms: C_16  and  C_17
REMARK   14  A    between atoms: C_17  and  O_18
REMARK   15  A    between atoms: C_17  and  C_19
REMARK   16  A    between atoms: C_19  and  O_21
REMARK                            x       y       z     vdW  Elec       q    Type
REMARK                         _______ _______ _______ _____ _____    ______ ____
ROOT
ATOM      1  C   UNL     1       5.204   6.212  17.066  0.00  0.00    +0.000 C 
ENDROOT
BRANCH   1   3
ATOM      2  C   UNL     1       2.981   7.853  17.649  0.00  0.00    +0.000 C 
ATOM      3  C   UNL     1       4.008   7.095  17.380  0.00  0.00    +0.000 C 
BRANCH   2   5
ATOM      4  C   UNL     1       0.793   9.468  18.219  0.00  0.00    +0.000 C 
ATOM      5  C   UNL     1       1.750   8.762  17.971  0.00  0.00    +0.000 C 
BRANCH   4   7
ATOM      6  C   UNL     1      -1.469  11.132  18.809  0.00  0.00    +0.000 C 
ATOM      7  C   UNL     1      -0.441  10.376  18.541  0.00  0.00    +0.000 C 
BRANCH   6   8
ATOM      8  C   UNL     1      -2.667  12.014  19.120  0.00  0.00    +0.000 C 
BRANCH   8   9
ATOM      9  C   UNL     1      -2.308  12.988  20.228  0.00  0.00    +0.000 C 
BRANCH   9  10
ATOM     10  C   UNL     1      -3.030  12.610  21.514  0.00  0.00    +0.000 C 
BRANCH  10  12
ATOM     11  C   UNL     1      -1.415  13.207  23.323  0.00  0.00    +0.000 C 
ATOM     12  C   UNL     1      -2.048  12.070  22.545  0.00  0.00    +0.000 C 
ENDBRANCH  10  12
ENDBRANCH   9  10
ENDBRANCH   8   9
ENDBRANCH   6   8
ENDBRANCH   4   7
ENDBRANCH   2   5
ENDBRANCH   1   3
BRANCH   1  13
ATOM     13  C   UNL     1       4.733   4.795  16.795  0.00  0.00    +0.000 C 
BRANCH  13  14
ATOM     14  C   UNL     1       3.903   4.282  17.962  0.00  0.00    +0.000 C 
BRANCH  14  15
ATOM     15  C   UNL     1       2.838   3.312  17.464  0.00  0.00    +0.000 C 
BRANCH  15  16
ATOM     16  C   UNL     1       1.459   3.743  17.948  0.00  0.00    +0.000 C 
BRANCH  16  17
ATOM     17  C   UNL     1       0.894   2.807  19.015  0.00  0.00    +0.000 C 
BRANCH  17  18
ATOM     18  O   UNL     1       1.579   1.553  19.013  0.00  0.00    +0.000 OA
ATOM     19  H   UNL     1       1.826   1.417  18.080  0.00  0.00    +0.000 HD
ENDBRANCH  17  18
BRANCH  17  20
ATOM     20  C   UNL     1       1.074   3.424  20.399  0.00  0.00    +0.000 C 
ATOM     21  O   UNL     1       0.991   4.617  20.641  0.00  0.00    +0.000 OA
BRANCH  20  22
ATOM     22  O   UNL     1       1.334   2.510  21.371  0.00  0.00    +0.000 OA
ATOM     23  H   UNL     1       2.166   2.719  21.848  0.00  0.00    +0.000 HD
ENDBRANCH  20  22
ENDBRANCH  17  20
ENDBRANCH  16  17
ENDBRANCH  15  16
ENDBRANCH  14  15
ENDBRANCH  13  14
ENDBRANCH   1  13
TORSDOF 15
ENDMDL
MODEL 9
REMARK VINA RESULT:      -5.7      1.714      2.676
REMARK  Name = 
REMARK  16 active torsions:
REMARK  status: ('A' for Active; 'I' for Inactive)
REMARK    1  A    between atoms: C_1  and  C_2
REMARK    2  A    between atoms: C_2  and  C_3
REMARK    3  A    between atoms: C_3  and  C_4
REMARK    4  A    between atoms: C_4  and  C_5
REMARK    5  A    between atoms: C_5  and  C_6
REMARK    6  A    between atoms: C_7  and  C_8
REMARK    7  A    between atoms: C_9  and  C_10
REMARK    8  A    between atoms: C_11  and  C_12
REMARK    9  A    between atoms: C_12  and  C_13
REMARK   10  A    between atoms: C_13  and  C_14
REMARK   11  A    between atoms: C_14  and  C_15
REMARK   12  A    between atoms: C_15  and  C_16
REMARK   13  A    between atoms: C_16  and  C_17
REMARK   14  A    between atoms: C_17  and  O_18
REMARK   15  A    between atoms: C_17  and  C_19
REMARK   16  A    between atoms: C_19  and  O_21
REMARK                            x       y       z     vdW  Elec       q    Type
REMARK                         _______ _______ _______ _____ _____    ______ ____
ROOT
ATOM      1  C   UNL     1       6.390   4.736  17.289  0.00  0.00    +0.000 C 
ENDROOT
BRANCH   1   3
ATOM      2  C   UNL     1       7.597   7.235  17.815  0.00  0.00    +0.000 C 
ATOM      3  C   UNL     1       7.040   6.081  17.572  0.00  0.00    +0.000 C 
BRANCH   2   5
ATOM      4  C   UNL     1       8.787   9.693  18.331  0.00  0.00    +0.000 C 
ATOM      5  C   UNL     1       8.267   8.618  18.106  0.00  0.00    +0.000 C 
BRANCH   4   7
ATOM      6  C   UNL     1      10.012  12.231  18.866  0.00  0.00    +0.000 C 
ATOM      7  C   UNL     1       9.455  11.077  18.622  0.00  0.00    +0.000 C 
BRANCH   6   8
ATOM      8  C   UNL     1      10.661  13.576  19.149  0.00  0.00    +0.000 C 
BRANCH   8   9
ATOM      9  C   UNL     1      10.672  13.830  20.646  0.00  0.00    +0.000 C 
BRANCH   9  10
ATOM     10  C   UNL     1       9.251  13.803  21.193  0.00  0.00    +0.000 C 
BRANCH  10  12
ATOM     11  C   UNL     1       8.459  13.508  23.543  0.00  0.00    +0.000 C 
ATOM     12  C   UNL     1       9.143  12.838  22.367  0.00  0.00    +0.000 C 
ENDBRANCH  10  12
ENDBRANCH   9  10
ENDBRANCH   8   9
ENDBRANCH   6   8
ENDBRANCH   4   7
ENDBRANCH   2   5
ENDBRANCH   1   3
BRANCH   1  13
ATOM     13  C   UNL     1       5.106   4.946  16.509  0.00  0.00    +0.000 C 
BRANCH  13  14
ATOM     14  C   UNL     1       4.040   5.563  17.401  0.00  0.00    +0.000 C 
BRANCH  14  15
ATOM     15  C   UNL     1       3.748   4.646  18.584  0.00  0.00    +0.000 C 
BRANCH  15  16
ATOM     16  C   UNL     1       2.392   4.980  19.192  0.00  0.00    +0.000 C 
BRANCH  16  17
ATOM     17  C   UNL     1       1.340   3.911  18.900  0.00  0.00    +0.000 C 
BRANCH  17  18
ATOM     18  O   UNL     1       1.254   3.644  17.500  0.00  0.00    +0.000 OA
ATOM     19  H   UNL     1       1.324   2.675  17.436  0.00  0.00    +0.000 HD
ENDBRANCH  17  18
BRANCH  17  20
ATOM     20  C   UNL     1       1.717   2.605  19.593  0.00  0.00    +0.000 C 
ATOM     21  O   UNL     1       1.895   2.485  20.795  0.00  0.00    +0.000 OA
BRANCH  20  22
ATOM     22  O   UNL     1       1.836   1.554  18.741  0.00  0.00    +0.000 OA
ATOM     23  H   UNL     1       1.811   0.697  19.220  0.00  0.00    +0.000 HD
ENDBRANCH  20  22
ENDBRANCH  17  20
ENDBRANCH  16  17
ENDBRANCH  15  16
ENDBRANCH  14  15
ENDBRANCH  13  14
ENDBRANCH   1  13
TORSDOF 15
ENDMDL
