MODEL 1
REMARK VINA RESULT:      -7.4      0.000      0.000
REMARK  Name = 
REMARK  12 active torsions:
REMARK  status: ('A' for Active; 'I' for Inactive)
REMARK    1  A    between atoms: C_1  and  O_2
REMARK    2  A    between atoms: O_2  and  C_3
REMARK    3  A    between atoms: C_6  and  C_7
REMARK    4  A    between atoms: C_7  and  N_8
REMARK    5  A    between atoms: C_9  and  C_11
REMARK    6  A    between atoms: C_11  and  O_12
REMARK    7  A    between atoms: O_12  and  C_13
REMARK    8  A    between atoms: C_13  and  C_15
REMARK    9  A    between atoms: C_15  and  O_16
REMARK   10  A    between atoms: O_16  and  N_17
REMARK   11  A    between atoms: C_18  and  C_19
REMARK   12  A    between atoms: C_18  and  C_20
REMARK                            x       y       z     vdW  Elec       q    Type
REMARK                         _______ _______ _______ _____ _____    ______ ____
ROOT
ATOM      1  C   UNL     1       1.176   3.865  20.447  0.00  0.00    +0.000 C 
ATOM      2  O   UNL     1       0.507   3.228  19.644  0.00  0.00    +0.000 OA
ENDROOT
BRANCH   1   3
ATOM      3  O   UNL     1       0.982   5.195  20.724  0.00  0.00    +0.000 OA
BRANCH   3   4
ATOM      4  C   UNL     1       2.128   5.990  20.466  0.00  0.00    +0.000 C 
BRANCH   4   6
ATOM      5  N   UNL     1       1.945   8.117  19.263  0.00  0.00    +0.000 N 
ATOM      6  C   UNL     1       2.264   6.782  19.164  0.00  0.00    +0.000 C 
ATOM      7  O   UNL     1       2.524   6.225  18.100  0.00  0.00    +0.000 OA
ATOM      8  H   UNL     1       1.879   8.541  20.178  0.00  0.00    +0.000 HD
BRANCH   5   9
ATOM      9  C   UNL     1       1.974   8.983  18.104  0.00  0.00    +0.000 C 
BRANCH   9  13
ATOM     10  C   UNL     1       0.982  13.064  19.142  0.00  0.00    +0.000 A 
ATOM     11  C   UNL     1       0.224  12.005  19.634  0.00  0.00    +0.000 A 
ATOM     12  C   UNL     1       0.541  10.690  19.290  0.00  0.00    +0.000 A 
ATOM     13  C   UNL     1       1.610  10.408  18.435  0.00  0.00    +0.000 A 
ATOM     14  C   UNL     1       2.357  11.476  17.930  0.00  0.00    +0.000 A 
ATOM     15  C   UNL     1       2.045  12.798  18.280  0.00  0.00    +0.000 A 
BRANCH  10  17
ATOM     16  C   UNL     1       1.209  15.402  18.895  0.00  0.00    +0.000 C 
ATOM     17  O   UNL     1       0.575  14.306  19.543  0.00  0.00    +0.000 OA
ENDBRANCH  10  17
ENDBRANCH   9  13
ENDBRANCH   5   9
ENDBRANCH   4   6
ENDBRANCH   3   4
ENDBRANCH   1   3
BRANCH   1  18
ATOM     18  C   UNL     1       2.219   3.308  21.384  0.00  0.00    +0.000 C 
BRANCH  18  19
ATOM     19  O   UNL     1       3.170   2.505  20.707  0.00  0.00    +0.000 OA
BRANCH  19  20
ATOM     20  N   UNL     1       3.984   3.362  19.963  0.00  0.00    +0.000 NA
ATOM     21  C   UNL     1       4.125   2.995  18.724  0.00  0.00    +0.000 C 
ATOM     22  C   UNL     1       3.459   1.798  18.094  0.00  0.00    +0.000 C 
BRANCH  21  23
ATOM     23  C   UNL     1       4.998   3.853  17.871  0.00  0.00    +0.000 A 
ATOM     24  C   UNL     1       6.158   4.477  18.378  0.00  0.00    +0.000 A 
ATOM     25  C   UNL     1       7.059   5.101  17.504  0.00  0.00    +0.000 A 
ATOM     26  C   UNL     1       6.779   5.046  16.155  0.00  0.00    +0.000 A 
ATOM     27  C   UNL     1       5.623   4.477  15.672  0.00  0.00    +0.000 A 
ATOM     28  C   UNL     1       4.699   3.898  16.504  0.00  0.00    +0.000 A 
ATOM     29  O   UNL     1       5.569   4.481  14.313  0.00  0.00    +0.000 OA
ATOM     30  C   UNL     1       6.942   4.810  14.027  0.00  0.00    +0.000 C 
ATOM     31  O   UNL     1       7.598   5.452  15.143  0.00  0.00    +0.000 OA
ENDBRANCH  21  23
ENDBRANCH  19  20
ENDBRANCH  18  19
ENDBRANCH   1  18
TORSDOF 10
ENDMDL
MODEL 2
REMARK VINA RESULT:      -7.2      5.694      7.995
REMARK  Name = 
REMARK  12 active torsions:
REMARK  status: ('A' for Active; 'I' for Inactive)
REMARK    1  A    between atoms: C_1  and  O_2
REMARK    2  A    between atoms: O_2  and  C_3
REMARK    3  A    between atoms: C_6  and  C_7
REMARK    4  A    between atoms: C_7  and  N_8
REMARK    5  A    between atoms: C_9  and  C_11
REMARK    6  A    between atoms: C_11  and  O_12
REMARK    7  A    between atoms: O_12  and  C_13
REMARK    8  A    between atoms: C_13  and  C_15
REMARK    9  A    between atoms: C_15  and  O_16
REMARK   10  A    between atoms: O_16  and  N_17
REMARK   11  A    between atoms: C_18  and  C_19
REMARK   12  A    between atoms: C_18  and  C_20
REMARK                            x       y       z     vdW  Elec       q    Type
REMARK                         _______ _______ _______ _____ _____    ______ ____
ROOT
ATOM      1  C   UNL     1       7.621   7.010  17.549  0.00  0.00    +0.000 C 
ATOM      2  O   UNL     1       7.556   6.202  16.632  0.00  0.00    +0.000 OA
ENDROOT
BRANCH   1   3
ATOM      3  O   UNL     1       7.778   6.662  18.867  0.00  0.00    +0.000 OA
BRANCH   3   4
ATOM      4  C   UNL     1       7.256   5.378  19.169  0.00  0.00    +0.000 C 
BRANCH   4   6
ATOM      5  N   UNL     1       5.001   6.093  18.531  0.00  0.00    +0.000 N 
ATOM      6  C   UNL     1       5.802   5.021  18.852  0.00  0.00    +0.000 C 
ATOM      7  O   UNL     1       5.378   3.877  18.995  0.00  0.00    +0.000 OA
ATOM      8  H   UNL     1       5.431   6.976  18.292  0.00  0.00    +0.000 HD
BRANCH   5   9
ATOM      9  C   UNL     1       3.590   5.919  18.259  0.00  0.00    +0.000 C 
BRANCH   9  13
ATOM     10  C   UNL     1       1.152   9.316  19.370  0.00  0.00    +0.000 A 
ATOM     11  C   UNL     1       1.720   9.238  18.101  0.00  0.00    +0.000 A 
ATOM     12  C   UNL     1       2.513   8.145  17.749  0.00  0.00    +0.000 A 
ATOM     13  C   UNL     1       2.769   7.118  18.661  0.00  0.00    +0.000 A 
ATOM     14  C   UNL     1       2.210   7.209  19.939  0.00  0.00    +0.000 A 
ATOM     15  C   UNL     1       1.406   8.303  20.294  0.00  0.00    +0.000 A 
BRANCH  10  17
ATOM     16  C   UNL     1       1.065  11.500  20.264  0.00  0.00    +0.000 C 
ATOM     17  O   UNL     1       0.398  10.433  19.603  0.00  0.00    +0.000 OA
ENDBRANCH  10  17
ENDBRANCH   9  13
ENDBRANCH   5   9
ENDBRANCH   4   6
ENDBRANCH   3   4
ENDBRANCH   1   3
BRANCH   1  18
ATOM     18  C   UNL     1       7.697   8.511  17.417  0.00  0.00    +0.000 C 
BRANCH  18  19
ATOM     19  O   UNL     1       8.437   9.101  18.472  0.00  0.00    +0.000 OA
BRANCH  19  20
ATOM     20  N   UNL     1       9.047  10.249  17.960  0.00  0.00    +0.000 NA
ATOM     21  C   UNL     1       9.506  11.044  18.880  0.00  0.00    +0.000 C 
ATOM     22  C   UNL     1       9.451  10.776  20.363  0.00  0.00    +0.000 C 
BRANCH  21  23
ATOM     23  C   UNL     1      10.156  12.302  18.410  0.00  0.00    +0.000 A 
ATOM     24  C   UNL     1      11.227  12.291  17.490  0.00  0.00    +0.000 A 
ATOM     25  C   UNL     1      11.672  13.490  16.917  0.00  0.00    +0.000 A 
ATOM     26  C   UNL     1      11.006  14.648  17.261  0.00  0.00    +0.000 A 
ATOM     27  C   UNL     1       9.994  14.657  18.194  0.00  0.00    +0.000 A 
ATOM     28  C   UNL     1       9.565  13.507  18.807  0.00  0.00    +0.000 A 
ATOM     29  O   UNL     1       9.437  15.888  18.347  0.00  0.00    +0.000 OA
ATOM     30  C   UNL     1       9.992  16.539  17.187  0.00  0.00    +0.000 C 
ATOM     31  O   UNL     1      11.182  15.878  16.702  0.00  0.00    +0.000 OA
ENDBRANCH  21  23
ENDBRANCH  19  20
ENDBRANCH  18  19
ENDBRANCH   1  18
TORSDOF 10
ENDMDL
MODEL 3
REMARK VINA RESULT:      -7.2      2.186      2.865
REMARK  Name = 
REMARK  12 active torsions:
REMARK  status: ('A' for Active; 'I' for Inactive)
REMARK    1  A    between atoms: C_1  and  O_2
REMARK    2  A    between atoms: O_2  and  C_3
REMARK    3  A    between atoms: C_6  and  C_7
REMARK    4  A    between atoms: C_7  and  N_8
REMARK    5  A    between atoms: C_9  and  C_11
REMARK    6  A    between atoms: C_11  and  O_12
REMARK    7  A    between atoms: O_12  and  C_13
REMARK    8  A    between atoms: C_13  and  C_15
REMARK    9  A    between atoms: C_15  and  O_16
REMARK   10  A    between atoms: O_16  and  N_17
REMARK   11  A    between atoms: C_18  and  C_19
REMARK   12  A    between atoms: C_18  and  C_20
REMARK                            x       y       z     vdW  Elec       q    Type
REMARK                         _______ _______ _______ _____ _____    ______ ____
ROOT
ATOM      1  C   UNL     1       1.951   3.732  20.722  0.00  0.00    +0.000 C 
ATOM      2  O   UNL     1       0.797   3.642  20.325  0.00  0.00    +0.000 OA
ENDROOT
BRANCH   1   3
ATOM      3  O   UNL     1       2.502   4.885  21.223  0.00  0.00    +0.000 OA
BRANCH   3   4
ATOM      4  C   UNL     1       1.660   6.016  21.066  0.00  0.00    +0.000 C 
BRANCH   4   6
ATOM      5  N   UNL     1       1.377   8.299  20.220  0.00  0.00    +0.000 N 
ATOM      6  C   UNL     1       1.936   7.063  19.985  0.00  0.00    +0.000 C 
ATOM      7  O   UNL     1       2.512   6.768  18.940  0.00  0.00    +0.000 OA
ATOM      8  H   UNL     1       1.043   8.520  21.148  0.00  0.00    +0.000 HD
BRANCH   5   9
ATOM      9  C   UNL     1       1.507   9.375  19.261  0.00  0.00    +0.000 C 
BRANCH   9  13
ATOM     10  C   UNL     1      -2.317  11.229  18.451  0.00  0.00    +0.000 A 
ATOM     11  C   UNL     1      -1.767  10.319  17.551  0.00  0.00    +0.000 A 
ATOM     12  C   UNL     1      -0.529   9.730  17.812  0.00  0.00    +0.000 A 
ATOM     13  C   UNL     1       0.192  10.049  18.965  0.00  0.00    +0.000 A 
ATOM     14  C   UNL     1      -0.357  10.977  19.856  0.00  0.00    +0.000 A 
ATOM     15  C   UNL     1      -1.605  11.565  19.601  0.00  0.00    +0.000 A 
BRANCH  10  17
ATOM     16  C   UNL     1      -4.369  12.160  19.159  0.00  0.00    +0.000 C 
ATOM     17  O   UNL     1      -3.531  11.744  18.089  0.00  0.00    +0.000 OA
ENDBRANCH  10  17
ENDBRANCH   9  13
ENDBRANCH   5   9
ENDBRANCH   4   6
ENDBRANCH   3   4
ENDBRANCH   1   3
BRANCH   1  18
ATOM     18  C   UNL     1       2.932   2.598  20.887  0.00  0.00    +0.000 C 
BRANCH  18  19
ATOM     19  O   UNL     1       3.469   2.172  19.646  0.00  0.00    +0.000 OA
BRANCH  19  20
ATOM     20  N   UNL     1       4.410   3.126  19.251  0.00  0.00    +0.000 NA
ATOM     21  C   UNL     1       4.163   3.644  18.085  0.00  0.00    +0.000 C 
ATOM     22  C   UNL     1       2.967   3.315  17.227  0.00  0.00    +0.000 C 
BRANCH  21  23
ATOM     23  C   UNL     1       5.137   4.657  17.587  0.00  0.00    +0.000 A 
ATOM     24  C   UNL     1       4.886   5.431  16.432  0.00  0.00    +0.000 A 
ATOM     25  C   UNL     1       5.723   6.510  16.115  0.00  0.00    +0.000 A 
ATOM     26  C   UNL     1       6.756   6.792  16.983  0.00  0.00    +0.000 A 
ATOM     27  C   UNL     1       7.023   6.005  18.081  0.00  0.00    +0.000 A 
ATOM     28  C   UNL     1       6.251   4.916  18.394  0.00  0.00    +0.000 A 
ATOM     29  O   UNL     1       8.049   6.489  18.831  0.00  0.00    +0.000 OA
ATOM     30  C   UNL     1       8.154   7.807  18.258  0.00  0.00    +0.000 C 
ATOM     31  O   UNL     1       7.577   7.880  16.936  0.00  0.00    +0.000 OA
ENDBRANCH  21  23
ENDBRANCH  19  20
ENDBRANCH  18  19
ENDBRANCH   1  18
TORSDOF 10
ENDMDL
MODEL 4
REMARK VINA RESULT:      -7.2      5.205      7.263
REMARK  Name = 
REMARK  12 active torsions:
REMARK  status: ('A' for Active; 'I' for Inactive)
REMARK    1  A    between atoms: C_1  and  O_2
REMARK    2  A    between atoms: O_2  and  C_3
REMARK    3  A    between atoms: C_6  and  C_7
REMARK    4  A    between atoms: C_7  and  N_8
REMARK    5  A    between atoms: C_9  and  C_11
REMARK    6  A    between atoms: C_11  and  O_12
REMARK    7  A    between atoms: O_12  and  C_13
REMARK    8  A    between atoms: C_13  and  C_15
REMARK    9  A    between atoms: C_15  and  O_16
REMARK   10  A    between atoms: O_16  and  N_17
REMARK   11  A    between atoms: C_18  and  C_19
REMARK   12  A    between atoms: C_18  and  C_20
REMARK                            x       y       z     vdW  Elec       q    Type
REMARK                         _______ _______ _______ _____ _____    ______ ____
ROOT
ATOM      1  C   UNL     1       7.704   6.925  18.114  0.00  0.00    +0.000 C 
ATOM      2  O   UNL     1       7.825   5.715  18.259  0.00  0.00    +0.000 OA
ENDROOT
BRANCH   1   3
ATOM      3  O   UNL     1       8.521   7.854  18.708  0.00  0.00    +0.000 OA
BRANCH   3   4
ATOM      4  C   UNL     1       8.326   9.166  18.207  0.00  0.00    +0.000 C 
BRANCH   4   6
ATOM      5  N   UNL     1       9.396  10.424  20.018  0.00  0.00    +0.000 N 
ATOM      6  C   UNL     1       9.218  10.325  18.657  0.00  0.00    +0.000 C 
ATOM      7  O   UNL     1       9.636  11.159  17.857  0.00  0.00    +0.000 OA
ATOM      8  H   UNL     1       9.151   9.638  20.605  0.00  0.00    +0.000 HD
BRANCH   5   9
ATOM      9  C   UNL     1      10.171  11.500  20.597  0.00  0.00    +0.000 C 
BRANCH   9  13
ATOM     10  C   UNL     1       7.865  13.820  23.428  0.00  0.00    +0.000 A 
ATOM     11  C   UNL     1       8.864  14.422  22.667  0.00  0.00    +0.000 A 
ATOM     12  C   UNL     1       9.612  13.669  21.762  0.00  0.00    +0.000 A 
ATOM     13  C   UNL     1       9.390  12.298  21.610  0.00  0.00    +0.000 A 
ATOM     14  C   UNL     1       8.397  11.695  22.388  0.00  0.00    +0.000 A 
ATOM     15  C   UNL     1       7.638  12.451  23.294  0.00  0.00    +0.000 A 
BRANCH  10  17
ATOM     16  C   UNL     1       7.323  16.045  24.008  0.00  0.00    +0.000 C 
ATOM     17  O   UNL     1       7.202  14.655  24.284  0.00  0.00    +0.000 OA
ENDBRANCH  10  17
ENDBRANCH   9  13
ENDBRANCH   5   9
ENDBRANCH   4   6
ENDBRANCH   3   4
ENDBRANCH   1   3
BRANCH   1  18
ATOM     18  C   UNL     1       6.763   7.623  17.164  0.00  0.00    +0.000 C 
BRANCH  18  19
ATOM     19  O   UNL     1       5.999   6.706  16.400  0.00  0.00    +0.000 OA
BRANCH  19  20
ATOM     20  N   UNL     1       4.955   6.257  17.213  0.00  0.00    +0.000 NA
ATOM     21  C   UNL     1       4.589   5.037  16.958  0.00  0.00    +0.000 C 
ATOM     22  C   UNL     1       5.227   4.138  15.928  0.00  0.00    +0.000 C 
BRANCH  21  23
ATOM     23  C   UNL     1       3.465   4.494  17.774  0.00  0.00    +0.000 A 
ATOM     24  C   UNL     1       2.608   3.482  17.288  0.00  0.00    +0.000 A 
ATOM     25  C   UNL     1       1.700   2.856  18.153  0.00  0.00    +0.000 A 
ATOM     26  C   UNL     1       1.708   3.244  19.476  0.00  0.00    +0.000 A 
ATOM     27  C   UNL     1       2.512   4.264  19.932  0.00  0.00    +0.000 A 
ATOM     28  C   UNL     1       3.379   4.928  19.102  0.00  0.00    +0.000 A 
ATOM     29  O   UNL     1       2.404   4.451  21.275  0.00  0.00    +0.000 OA
ATOM     30  C   UNL     1       1.709   3.238  21.623  0.00  0.00    +0.000 C 
ATOM     31  O   UNL     1       1.019   2.656  20.495  0.00  0.00    +0.000 OA
ENDBRANCH  21  23
ENDBRANCH  19  20
ENDBRANCH  18  19
ENDBRANCH   1  18
TORSDOF 10
ENDMDL
MODEL 5
REMARK VINA RESULT:      -7.2      1.832      7.390
REMARK  Name = 
REMARK  12 active torsions:
REMARK  status: ('A' for Active; 'I' for Inactive)
REMARK    1  A    between atoms: C_1  and  O_2
REMARK    2  A    between atoms: O_2  and  C_3
REMARK    3  A    between atoms: C_6  and  C_7
REMARK    4  A    between atoms: C_7  and  N_8
REMARK    5  A    between atoms: C_9  and  C_11
REMARK    6  A    between atoms: C_11  and  O_12
REMARK    7  A    between atoms: O_12  and  C_13
REMARK    8  A    between atoms: C_13  and  C_15
REMARK    9  A    between atoms: C_15  and  O_16
REMARK   10  A    between atoms: O_16  and  N_17
REMARK   11  A    between atoms: C_18  and  C_19
REMARK   12  A    between atoms: C_18  and  C_20
REMARK                            x       y       z     vdW  Elec       q    Type
REMARK                         _______ _______ _______ _____ _____    ______ ____
ROOT
ATOM      1  C   UNL     1       2.138   3.347  21.235  0.00  0.00    +0.000 C 
ATOM      2  O   UNL     1       2.134   3.195  22.450  0.00  0.00    +0.000 OA
ENDROOT
BRANCH   1   3
ATOM      3  O   UNL     1       2.569   2.396  20.345  0.00  0.00    +0.000 OA
BRANCH   3   4
ATOM      4  C   UNL     1       1.912   2.471  19.090  0.00  0.00    +0.000 C 
BRANCH   4   6
ATOM      5  N   UNL     1       4.051   2.701  17.917  0.00  0.00    +0.000 N 
ATOM      6  C   UNL     1       2.683   2.809  17.812  0.00  0.00    +0.000 C 
ATOM      7  O   UNL     1       2.112   3.253  16.819  0.00  0.00    +0.000 OA
ATOM      8  H   UNL     1       4.447   2.200  18.701  0.00  0.00    +0.000 HD
BRANCH   5   9
ATOM      9  C   UNL     1       4.916   3.039  16.808  0.00  0.00    +0.000 C 
BRANCH   9  13
ATOM     10  C   UNL     1       6.623   7.006  17.056  0.00  0.00    +0.000 A 
ATOM     11  C   UNL     1       7.136   5.966  17.826  0.00  0.00    +0.000 A 
ATOM     12  C   UNL     1       6.578   4.690  17.750  0.00  0.00    +0.000 A 
ATOM     13  C   UNL     1       5.485   4.430  16.918  0.00  0.00    +0.000 A 
ATOM     14  C   UNL     1       4.963   5.482  16.160  0.00  0.00    +0.000 A 
ATOM     15  C   UNL     1       5.527   6.765  16.228  0.00  0.00    +0.000 A 
BRANCH  10  17
ATOM     16  C   UNL     1       8.267   8.252  18.206  0.00  0.00    +0.000 C 
ATOM     17  O   UNL     1       7.247   8.212  17.217  0.00  0.00    +0.000 OA
ENDBRANCH  10  17
ENDBRANCH   9  13
ENDBRANCH   5   9
ENDBRANCH   4   6
ENDBRANCH   3   4
ENDBRANCH   1   3
BRANCH   1  18
ATOM     18  C   UNL     1       1.547   4.510  20.476  0.00  0.00    +0.000 C 
BRANCH  18  19
ATOM     19  O   UNL     1       2.460   5.588  20.358  0.00  0.00    +0.000 OA
BRANCH  19  20
ATOM     20  N   UNL     1       1.753   6.762  20.630  0.00  0.00    +0.000 NA
ATOM     21  C   UNL     1       1.846   7.651  19.687  0.00  0.00    +0.000 C 
ATOM     22  C   UNL     1       2.591   7.463  18.390  0.00  0.00    +0.000 C 
BRANCH  21  23
ATOM     23  C   UNL     1       1.132   8.941  19.915  0.00  0.00    +0.000 A 
ATOM     24  C   UNL     1       0.335   9.162  21.059  0.00  0.00    +0.000 A 
ATOM     25  C   UNL     1      -0.149  10.447  21.340  0.00  0.00    +0.000 A 
ATOM     26  C   UNL     1       0.211  11.466  20.483  0.00  0.00    +0.000 A 
ATOM     27  C   UNL     1       0.949  11.234  19.344  0.00  0.00    +0.000 A 
ATOM     28  C   UNL     1       1.399   9.980  19.016  0.00  0.00    +0.000 A 
ATOM     29  O   UNL     1       1.238  12.378  18.669  0.00  0.00    +0.000 OA
ATOM     30  C   UNL     1       0.884  13.340  19.681  0.00  0.00    +0.000 C 
ATOM     31  O   UNL     1      -0.025  12.796  20.664  0.00  0.00    +0.000 OA
ENDBRANCH  21  23
ENDBRANCH  19  20
ENDBRANCH  18  19
ENDBRANCH   1  18
TORSDOF 10
ENDMDL
MODEL 6
REMARK VINA RESULT:      -7.2      1.951      2.738
REMARK  Name = 
REMARK  12 active torsions:
REMARK  status: ('A' for Active; 'I' for Inactive)
REMARK    1  A    between atoms: C_1  and  O_2
REMARK    2  A    between atoms: O_2  and  C_3
REMARK    3  A    between atoms: C_6  and  C_7
REMARK    4  A    between atoms: C_7  and  N_8
REMARK    5  A    between atoms: C_9  and  C_11
REMARK    6  A    between atoms: C_11  and  O_12
REMARK    7  A    between atoms: O_12  and  C_13
REMARK    8  A    between atoms: C_13  and  C_15
REMARK    9  A    between atoms: C_15  and  O_16
REMARK   10  A    between atoms: O_16  and  N_17
REMARK   11  A    between atoms: C_18  and  C_19
REMARK   12  A    between atoms: C_18  and  C_20
REMARK                            x       y       z     vdW  Elec       q    Type
REMARK                         _______ _______ _______ _____ _____    ______ ____
ROOT
ATOM      1  C   UNL     1       1.821   3.610  21.334  0.00  0.00    +0.000 C 
ATOM      2  O   UNL     1       1.895   2.898  22.327  0.00  0.00    +0.000 OA
ENDROOT
BRANCH   1   3
ATOM      3  O   UNL     1       2.106   4.952  21.331  0.00  0.00    +0.000 OA
BRANCH   3   4
ATOM      4  C   UNL     1       1.781   5.586  20.104  0.00  0.00    +0.000 C 
BRANCH   4   6
ATOM      5  N   UNL     1       2.038   7.542  18.651  0.00  0.00    +0.000 N 
ATOM      6  C   UNL     1       1.885   7.104  19.947  0.00  0.00    +0.000 C 
ATOM      7  O   UNL     1       1.944   7.847  20.924  0.00  0.00    +0.000 OA
ATOM      8  H   UNL     1       1.840   6.908  17.889  0.00  0.00    +0.000 HD
BRANCH   5   9
ATOM      9  C   UNL     1       2.203   8.948  18.349  0.00  0.00    +0.000 C 
BRANCH   9  13
ATOM     10  C   UNL     1      -1.571  11.054  18.550  0.00  0.00    +0.000 A 
ATOM     11  C   UNL     1      -1.347  10.095  17.565  0.00  0.00    +0.000 A 
ATOM     12  C   UNL     1      -0.125   9.425  17.498  0.00  0.00    +0.000 A 
ATOM     13  C   UNL     1       0.903   9.709  18.400  0.00  0.00    +0.000 A 
ATOM     14  C   UNL     1       0.679  10.684  19.377  0.00  0.00    +0.000 A 
ATOM     15  C   UNL     1      -0.551  11.355  19.452  0.00  0.00    +0.000 A 
BRANCH  10  17
ATOM     16  C   UNL     1      -3.837  10.886  17.906  0.00  0.00    +0.000 C 
ATOM     17  O   UNL     1      -2.802  11.647  18.515  0.00  0.00    +0.000 OA
ENDBRANCH  10  17
ENDBRANCH   9  13
ENDBRANCH   5   9
ENDBRANCH   4   6
ENDBRANCH   3   4
ENDBRANCH   1   3
BRANCH   1  18
ATOM     18  C   UNL     1       1.563   3.151  19.920  0.00  0.00    +0.000 C 
BRANCH  18  19
ATOM     19  O   UNL     1       2.555   2.248  19.464  0.00  0.00    +0.000 OA
BRANCH  19  20
ATOM     20  N   UNL     1       3.678   3.003  19.116  0.00  0.00    +0.000 NA
ATOM     21  C   UNL     1       3.720   3.317  17.856  0.00  0.00    +0.000 C 
ATOM     22  C   UNL     1       2.663   2.963  16.839  0.00  0.00    +0.000 C 
BRANCH  21  23
ATOM     23  C   UNL     1       4.901   4.109  17.405  0.00  0.00    +0.000 A 
ATOM     24  C   UNL     1       5.106   4.438  16.048  0.00  0.00    +0.000 A 
ATOM     25  C   UNL     1       6.108   5.352  15.692  0.00  0.00    +0.000 A 
ATOM     26  C   UNL     1       6.841   5.924  16.710  0.00  0.00    +0.000 A 
ATOM     27  C   UNL     1       6.667   5.562  18.026  0.00  0.00    +0.000 A 
ATOM     28  C   UNL     1       5.727   4.638  18.404  0.00  0.00    +0.000 A 
ATOM     29  O   UNL     1       7.451   6.283  18.872  0.00  0.00    +0.000 OA
ATOM     30  C   UNL     1       7.867   7.326  17.971  0.00  0.00    +0.000 C 
ATOM     31  O   UNL     1       7.744   6.938  16.585  0.00  0.00    +0.000 OA
ENDBRANCH  21  23
ENDBRANCH  19  20
ENDBRANCH  18  19
ENDBRANCH   1  18
TORSDOF 10
ENDMDL
MODEL 7
REMARK VINA RESULT:      -7.1      4.798      7.637
REMARK  Name = 
REMARK  12 active torsions:
REMARK  status: ('A' for Active; 'I' for Inactive)
REMARK    1  A    between atoms: C_1  and  O_2
REMARK    2  A    between atoms: O_2  and  C_3
REMARK    3  A    between atoms: C_6  and  C_7
REMARK    4  A    between atoms: C_7  and  N_8
REMARK    5  A    between atoms: C_9  and  C_11
REMARK    6  A    between atoms: C_11  and  O_12
REMARK    7  A    between atoms: O_12  and  C_13
REMARK    8  A    between atoms: C_13  and  C_15
REMARK    9  A    between atoms: C_15  and  O_16
REMARK   10  A    between atoms: O_16  and  N_17
REMARK   11  A    between atoms: C_18  and  C_19
REMARK   12  A    between atoms: C_18  and  C_20
REMARK                            x       y       z     vdW  Elec       q    Type
REMARK                         _______ _______ _______ _____ _____    ______ ____
ROOT
ATOM      1  C   UNL     1       6.483   5.444  15.590  0.00  0.00    +0.000 C 
ATOM      2  O   UNL     1       6.540   4.484  14.833  0.00  0.00    +0.000 OA
ENDROOT
BRANCH   1   3
ATOM      3  O   UNL     1       7.578   6.017  16.187  0.00  0.00    +0.000 OA
BRANCH   3   4
ATOM      4  C   UNL     1       7.308   7.300  16.728  0.00  0.00    +0.000 C 
BRANCH   4   6
ATOM      5  N   UNL     1       8.335   9.123  18.005  0.00  0.00    +0.000 N 
ATOM      6  C   UNL     1       8.008   7.785  17.999  0.00  0.00    +0.000 C 
ATOM      7  O   UNL     1       8.349   7.001  18.881  0.00  0.00    +0.000 OA
ATOM      8  H   UNL     1       7.907   9.737  17.325  0.00  0.00    +0.000 HD
BRANCH   5   9
ATOM      9  C   UNL     1       9.048   9.715  19.116  0.00  0.00    +0.000 C 
BRANCH   9  13
ATOM     10  C   UNL     1      10.422  13.704  18.159  0.00  0.00    +0.000 A 
ATOM     11  C   UNL     1      10.880  12.606  17.436  0.00  0.00    +0.000 A 
ATOM     12  C   UNL     1      10.442  11.320  17.753  0.00  0.00    +0.000 A 
ATOM     13  C   UNL     1       9.552  11.102  18.808  0.00  0.00    +0.000 A 
ATOM     14  C   UNL     1       9.108  12.207  19.542  0.00  0.00    +0.000 A 
ATOM     15  C   UNL     1       9.541  13.502  19.221  0.00  0.00    +0.000 A 
BRANCH  10  17
ATOM     16  C   UNL     1       9.961  15.933  17.529  0.00  0.00    +0.000 C 
ATOM     17  O   UNL     1      10.923  14.912  17.761  0.00  0.00    +0.000 OA
ENDBRANCH  10  17
ENDBRANCH   9  13
ENDBRANCH   5   9
ENDBRANCH   4   6
ENDBRANCH   3   4
ENDBRANCH   1   3
BRANCH   1  18
ATOM     18  C   UNL     1       5.259   6.272  15.895  0.00  0.00    +0.000 C 
BRANCH  18  19
ATOM     19  O   UNL     1       4.452   5.680  16.900  0.00  0.00    +0.000 OA
BRANCH  19  20
ATOM     20  N   UNL     1       3.842   6.718  17.608  0.00  0.00    +0.000 NA
ATOM     21  C   UNL     1       2.734   6.365  18.189  0.00  0.00    +0.000 C 
ATOM     22  C   UNL     1       2.150   4.975  18.169  0.00  0.00    +0.000 C 
BRANCH  21  23
ATOM     23  C   UNL     1       2.014   7.427  18.950  0.00  0.00    +0.000 A 
ATOM     24  C   UNL     1       1.753   7.308  20.333  0.00  0.00    +0.000 A 
ATOM     25  C   UNL     1       1.263   8.408  21.051  0.00  0.00    +0.000 A 
ATOM     26  C   UNL     1       1.084   9.590  20.364  0.00  0.00    +0.000 A 
ATOM     27  C   UNL     1       1.296   9.684  19.007  0.00  0.00    +0.000 A 
ATOM     28  C   UNL     1       1.733   8.616  18.267  0.00  0.00    +0.000 A 
ATOM     29  O   UNL     1       1.115  10.948  18.539  0.00  0.00    +0.000 OA
ATOM     30  C   UNL     1       1.093  11.659  19.791  0.00  0.00    +0.000 C 
ATOM     31  O   UNL     1       0.768  10.800  20.906  0.00  0.00    +0.000 OA
ENDBRANCH  21  23
ENDBRANCH  19  20
ENDBRANCH  18  19
ENDBRANCH   1  18
TORSDOF 10
ENDMDL
MODEL 8
REMARK VINA RESULT:      -7.1      2.880      8.794
REMARK  Name = 
REMARK  12 active torsions:
REMARK  status: ('A' for Active; 'I' for Inactive)
REMARK    1  A    between atoms: C_1  and  O_2
REMARK    2  A    between atoms: O_2  and  C_3
REMARK    3  A    between atoms: C_6  and  C_7
REMARK    4  A    between atoms: C_7  and  N_8
REMARK    5  A    between atoms: C_9  and  C_11
REMARK    6  A    between atoms: C_11  and  O_12
REMARK    7  A    between atoms: O_12  and  C_13
REMARK    8  A    between atoms: C_13  and  C_15
REMARK    9  A    between atoms: C_15  and  O_16
REMARK   10  A    between atoms: O_16  and  N_17
REMARK   11  A    between atoms: C_18  and  C_19
REMARK   12  A    between atoms: C_18  and  C_20
REMARK                            x       y       z     vdW  Elec       q    Type
REMARK                         _______ _______ _______ _____ _____    ______ ____
ROOT
ATOM      1  C   UNL     1       1.833   6.758  20.536  0.00  0.00    +0.000 C 
ATOM      2  O   UNL     1       2.606   7.027  19.626  0.00  0.00    +0.000 OA
ENDROOT
BRANCH   1   3
ATOM      3  O   UNL     1       1.695   5.506  21.080  0.00  0.00    +0.000 OA
BRANCH   3   4
ATOM      4  C   UNL     1       1.131   4.568  20.179  0.00  0.00    +0.000 C 
BRANCH   4   6
ATOM      5  N   UNL     1       3.068   3.521  19.104  0.00  0.00    +0.000 N 
ATOM      6  C   UNL     1       1.866   4.159  18.900  0.00  0.00    +0.000 C 
ATOM      7  O   UNL     1       1.454   4.490  17.791  0.00  0.00    +0.000 OA
ATOM      8  H   UNL     1       3.282   3.153  20.021  0.00  0.00    +0.000 HD
BRANCH   5   9
ATOM      9  C   UNL     1       3.902   3.121  17.991  0.00  0.00    +0.000 C 
BRANCH   9  13
ATOM     10  C   UNL     1       6.841   6.093  16.870  0.00  0.00    +0.000 A 
ATOM     11  C   UNL     1       6.760   5.638  18.183  0.00  0.00    +0.000 A 
ATOM     12  C   UNL     1       5.805   4.686  18.543  0.00  0.00    +0.000 A 
ATOM     13  C   UNL     1       4.901   4.182  17.605  0.00  0.00    +0.000 A 
ATOM     14  C   UNL     1       4.975   4.655  16.291  0.00  0.00    +0.000 A 
ATOM     15  C   UNL     1       5.939   5.606  15.924  0.00  0.00    +0.000 A 
BRANCH  10  17
ATOM     16  C   UNL     1       7.835   8.130  17.533  0.00  0.00    +0.000 C 
ATOM     17  O   UNL     1       7.811   7.027  16.636  0.00  0.00    +0.000 OA
ENDBRANCH  10  17
ENDBRANCH   9  13
ENDBRANCH   5   9
ENDBRANCH   4   6
ENDBRANCH   3   4
ENDBRANCH   1   3
BRANCH   1  18
ATOM     18  C   UNL     1       1.009   7.741  21.331  0.00  0.00    +0.000 C 
BRANCH  18  19
ATOM     19  O   UNL     1       1.102   9.057  20.812  0.00  0.00    +0.000 OA
BRANCH  19  20
ATOM     20  N   UNL     1       0.039   9.229  19.922  0.00  0.00    +0.000 NA
ATOM     21  C   UNL     1      -0.159  10.469  19.588  0.00  0.00    +0.000 C 
ATOM     22  C   UNL     1       0.678  11.635  20.051  0.00  0.00    +0.000 C 
BRANCH  21  23
ATOM     23  C   UNL     1      -1.291  10.734  18.653  0.00  0.00    +0.000 A 
ATOM     24  C   UNL     1      -1.405  10.073  17.411  0.00  0.00    +0.000 A 
ATOM     25  C   UNL     1      -2.581  10.193  16.658  0.00  0.00    +0.000 A 
ATOM     26  C   UNL     1      -3.608  10.942  17.193  0.00  0.00    +0.000 A 
ATOM     27  C   UNL     1      -3.472  11.621  18.382  0.00  0.00    +0.000 A 
ATOM     28  C   UNL     1      -2.318  11.562  19.122  0.00  0.00    +0.000 A 
ATOM     29  O   UNL     1      -4.617  12.252  18.755  0.00  0.00    +0.000 OA
ATOM     30  C   UNL     1      -5.538  11.619  17.845  0.00  0.00    +0.000 C 
ATOM     31  O   UNL     1      -4.872  11.052  16.696  0.00  0.00    +0.000 OA
ENDBRANCH  21  23
ENDBRANCH  19  20
ENDBRANCH  18  19
ENDBRANCH   1  18
TORSDOF 10
ENDMDL
MODEL 9
REMARK VINA RESULT:      -7.0      1.843      8.170
REMARK  Name = 
REMARK  12 active torsions:
REMARK  status: ('A' for Active; 'I' for Inactive)
REMARK    1  A    between atoms: C_1  and  O_2
REMARK    2  A    between atoms: O_2  and  C_3
REMARK    3  A    between atoms: C_6  and  C_7
REMARK    4  A    between atoms: C_7  and  N_8
REMARK    5  A    between atoms: C_9  and  C_11
REMARK    6  A    between atoms: C_11  and  O_12
REMARK    7  A    between atoms: O_12  and  C_13
REMARK    8  A    between atoms: C_13  and  C_15
REMARK    9  A    between atoms: C_15  and  O_16
REMARK   10  A    between atoms: O_16  and  N_17
REMARK   11  A    between atoms: C_18  and  C_19
REMARK   12  A    between atoms: C_18  and  C_20
REMARK                            x       y       z     vdW  Elec       q    Type
REMARK                         _______ _______ _______ _____ _____    ______ ____
ROOT
ATOM      1  C   UNL     1       1.951   3.218  21.510  0.00  0.00    +0.000 C 
ATOM      2  O   UNL     1       1.289   2.339  22.045  0.00  0.00    +0.000 OA
ENDROOT
BRANCH   1   3
ATOM      3  O   UNL     1       3.307   3.143  21.310  0.00  0.00    +0.000 OA
BRANCH   3   4
ATOM      4  C   UNL     1       3.674   2.162  20.354  0.00  0.00    +0.000 C 
BRANCH   4   6
ATOM      5  N   UNL     1       4.150   3.141  18.159  0.00  0.00    +0.000 N 
ATOM      6  C   UNL     1       3.309   2.322  18.877  0.00  0.00    +0.000 C 
ATOM      7  O   UNL     1       2.274   1.843  18.417  0.00  0.00    +0.000 OA
ATOM      8  H   UNL     1       5.050   3.386  18.549  0.00  0.00    +0.000 HD
BRANCH   5   9
ATOM      9  C   UNL     1       3.902   3.431  16.763  0.00  0.00    +0.000 C 
BRANCH   9  13
ATOM     10  C   UNL     1       7.303   5.180  14.740  0.00  0.00    +0.000 A 
ATOM     11  C   UNL     1       6.392   4.393  14.041  0.00  0.00    +0.000 A 
ATOM     12  C   UNL     1       5.301   3.823  14.698  0.00  0.00    +0.000 A 
ATOM     13  C   UNL     1       5.108   4.013  16.069  0.00  0.00    +0.000 A 
ATOM     14  C   UNL     1       6.035   4.790  16.770  0.00  0.00    +0.000 A 
ATOM     15  C   UNL     1       7.128   5.371  16.110  0.00  0.00    +0.000 A 
BRANCH  10  17
ATOM     16  C   UNL     1       8.149   5.643  12.584  0.00  0.00    +0.000 C 
ATOM     17  O   UNL     1       8.333   5.682  13.993  0.00  0.00    +0.000 OA
ENDBRANCH  10  17
ENDBRANCH   9  13
ENDBRANCH   5   9
ENDBRANCH   4   6
ENDBRANCH   3   4
ENDBRANCH   1   3
BRANCH   1  18
ATOM     18  C   UNL     1       1.417   4.460  20.840  0.00  0.00    +0.000 C 
BRANCH  18  19
ATOM     19  O   UNL     1       2.435   5.416  20.600  0.00  0.00    +0.000 OA
BRANCH  19  20
ATOM     20  N   UNL     1       1.862   6.681  20.756  0.00  0.00    +0.000 NA
ATOM     21  C   UNL     1       1.978   7.435  19.704  0.00  0.00    +0.000 C 
ATOM     22  C   UNL     1       2.617   7.014  18.404  0.00  0.00    +0.000 C 
BRANCH  21  23
ATOM     23  C   UNL     1       1.406   8.809  19.802  0.00  0.00    +0.000 A 
ATOM     24  C   UNL     1       0.983   9.526  18.662  0.00  0.00    +0.000 A 
ATOM     25  C   UNL     1       0.266  10.721  18.811  0.00  0.00    +0.000 A 
ATOM     26  C   UNL     1      -0.029  11.133  20.094  0.00  0.00    +0.000 A 
ATOM     27  C   UNL     1       0.428  10.453  21.200  0.00  0.00    +0.000 A 
ATOM     28  C   UNL     1       1.171   9.306  21.090  0.00  0.00    +0.000 A 
ATOM     29  O   UNL     1      -0.019  10.996  22.365  0.00  0.00    +0.000 OA
ATOM     30  C   UNL     1      -1.043  11.862  21.839  0.00  0.00    +0.000 C 
ATOM     31  O   UNL     1      -0.840  12.171  20.443  0.00  0.00    +0.000 OA
ENDBRANCH  21  23
ENDBRANCH  19  20
ENDBRANCH  18  19
ENDBRANCH   1  18
TORSDOF 10
ENDMDL
