MODEL 1
REMARK VINA RESULT:      -8.2      0.000      0.000
REMARK  Name = 
REMARK  6 active torsions:
REMARK  status: ('A' for Active; 'I' for Inactive)
REMARK    1  A    between atoms: C_1  and  C_2
REMARK    2  A    between atoms: C_3  and  C_4
REMARK    3  A    between atoms: C_4  and  N_5
REMARK    4  A    between atoms: C_11  and  N_12
REMARK    5  A    between atoms: N_18  and  C_19
REMARK    6  A    between atoms: C_19  and  C_20
REMARK                            x       y       z     vdW  Elec       q    Type
REMARK                         _______ _______ _______ _____ _____    ______ ____
ROOT
ATOM      1  N   UNL     1      -0.300  11.314  19.371  0.00  0.00    +0.000 N 
ATOM      2  C   UNL     1      -0.575  11.259  20.746  0.00  0.00    +0.000 A 
ATOM      3  N   UNL     1      -1.262  12.321  21.301  0.00  0.00    +0.000 N 
ATOM      4  C   UNL     1      -2.637  12.630  20.903  0.00  0.00    +0.000 C 
ATOM      5  C   UNL     1      -2.776  14.154  20.900  0.00  0.00    +0.000 C 
ATOM      6  C   UNL     1      -2.426  14.742  22.272  0.00  0.00    +0.000 C 
ATOM      7  C   UNL     1      -1.071  14.226  22.795  0.00  0.00    +0.000 C 
ATOM      8  C   UNL     1      -1.005  12.685  22.703  0.00  0.00    +0.000 C 
ATOM      9  N   UNL     1      -0.203  10.271  21.536  0.00  0.00    +0.000 NA
ATOM     10  C   UNL     1       0.601   9.296  20.949  0.00  0.00    +0.000 A 
ATOM     11  C   UNL     1       1.203   8.166  21.521  0.00  0.00    +0.000 A 
ATOM     12  C   UNL     1       1.920   7.549  20.508  0.00  0.00    +0.000 A 
ATOM     13  N   UNL     1       1.810   8.328  19.372  0.00  0.00    +0.000 N 
ATOM     14  C   UNL     1       0.849   9.276  19.616  0.00  0.00    +0.000 A 
ATOM     15  C   UNL     1       0.141  10.129  18.739  0.00  0.00    +0.000 A 
ATOM     16  O   UNL     1      -0.119   9.754  17.602  0.00  0.00    +0.000 OA
ENDROOT
BRANCH   7  17
ATOM     17  N   UNL     1      -0.828  14.714  24.154  0.00  0.00    +0.000 NA
ATOM     18  H   UNL     1      -1.301  15.605  24.298  0.00  0.00    +0.000 HD
ATOM     19  H   UNL     1       0.167  14.893  24.278  0.00  0.00    +0.000 HD
ENDBRANCH   7  17
BRANCH   1  20
ATOM     20  C   UNL     1      -0.456  12.597  18.577  0.00  0.00    +0.000 C 
BRANCH  20  23
ATOM     21  C   UNL     1       3.498  14.218  18.254  0.00  0.00    +0.000 C 
ATOM     22  C   UNL     1       2.153  13.659  18.368  0.00  0.00    +0.000 C 
ATOM     23  C   UNL     1       0.949  13.169  18.465  0.00  0.00    +0.000 C 
ENDBRANCH  20  23
ENDBRANCH   1  20
BRANCH  13  24
ATOM     24  C   UNL     1       2.582   8.152  18.143  0.00  0.00    +0.000 C 
BRANCH  24  25
ATOM     25  C   UNL     1       2.927   6.693  17.863  0.00  0.00    +0.000 A 
ATOM     26  C   UNL     1       1.912   5.735  18.004  0.00  0.00    +0.000 A 
ATOM     27  C   UNL     1       2.213   4.402  17.801  0.00  0.00    +0.000 A 
ATOM     28  N   UNL     1       3.446   3.947  17.503  0.00  0.00    +0.000 NA
ATOM     29  C   UNL     1       4.434   4.845  17.378  0.00  0.00    +0.000 A 
ATOM     30  C   UNL     1       5.711   4.359  17.127  0.00  0.00    +0.000 A 
ATOM     31  C   UNL     1       6.809   5.208  16.988  0.00  0.00    +0.000 A 
ATOM     32  C   UNL     1       6.625   6.579  17.067  0.00  0.00    +0.000 A 
ATOM     33  C   UNL     1       5.352   7.092  17.328  0.00  0.00    +0.000 A 
ATOM     34  C   UNL     1       4.232   6.244  17.517  0.00  0.00    +0.000 A 
ENDBRANCH  24  25
ENDBRANCH  13  24
TORSDOF 5
ENDMDL
MODEL 2
REMARK VINA RESULT:      -8.1      0.793      1.942
REMARK  Name = 
REMARK  6 active torsions:
REMARK  status: ('A' for Active; 'I' for Inactive)
REMARK    1  A    between atoms: C_1  and  C_2
REMARK    2  A    between atoms: C_3  and  C_4
REMARK    3  A    between atoms: C_4  and  N_5
REMARK    4  A    between atoms: C_11  and  N_12
REMARK    5  A    between atoms: N_18  and  C_19
REMARK    6  A    between atoms: C_19  and  C_20
REMARK                            x       y       z     vdW  Elec       q    Type
REMARK                         _______ _______ _______ _____ _____    ______ ____
ROOT
ATOM      1  N   UNL     1      -0.482  11.309  19.247  0.00  0.00    +0.000 N 
ATOM      2  C   UNL     1      -0.583  11.312  20.647  0.00  0.00    +0.000 A 
ATOM      3  N   UNL     1      -1.232  12.380  21.236  0.00  0.00    +0.000 N 
ATOM      4  C   UNL     1      -2.655  12.631  21.000  0.00  0.00    +0.000 C 
ATOM      5  C   UNL     1      -2.845  14.148  20.947  0.00  0.00    +0.000 C 
ATOM      6  C   UNL     1      -2.349  14.811  22.238  0.00  0.00    +0.000 C 
ATOM      7  C   UNL     1      -0.922  14.359  22.610  0.00  0.00    +0.000 C 
ATOM      8  C   UNL     1      -0.816  12.818  22.578  0.00  0.00    +0.000 C 
ATOM      9  N   UNL     1      -0.083  10.374  21.427  0.00  0.00    +0.000 NA
ATOM     10  C   UNL     1       0.675   9.396  20.788  0.00  0.00    +0.000 A 
ATOM     11  C   UNL     1       1.381   8.311  21.330  0.00  0.00    +0.000 A 
ATOM     12  C   UNL     1       1.988   7.667  20.263  0.00  0.00    +0.000 A 
ATOM     13  N   UNL     1       1.712   8.387  19.117  0.00  0.00    +0.000 N 
ATOM     14  C   UNL     1       0.757   9.318  19.437  0.00  0.00    +0.000 A 
ATOM     15  C   UNL     1      -0.082  10.108  18.618  0.00  0.00    +0.000 A 
ATOM     16  O   UNL     1      -0.467   9.672  17.541  0.00  0.00    +0.000 OA
ENDROOT
BRANCH   7  17
ATOM     17  N   UNL     1      -0.531  14.918  23.904  0.00  0.00    +0.000 NA
ATOM     18  H   UNL     1      -0.931  15.848  24.023  0.00  0.00    +0.000 HD
ATOM     19  H   UNL     1       0.481  15.035  23.933  0.00  0.00    +0.000 HD
ENDBRANCH   7  17
BRANCH   1  20
ATOM     20  C   UNL     1      -0.778  12.548  18.424  0.00  0.00    +0.000 C 
BRANCH  20  23
ATOM     21  C   UNL     1       2.776  14.931  18.672  0.00  0.00    +0.000 C 
ATOM     22  C   UNL     1       1.565  14.117  18.580  0.00  0.00    +0.000 C 
ATOM     23  C   UNL     1       0.484  13.393  18.508  0.00  0.00    +0.000 C 
ENDBRANCH  20  23
ENDBRANCH   1  20
BRANCH  13  24
ATOM     24  C   UNL     1       2.332   8.175  17.811  0.00  0.00    +0.000 C 
BRANCH  24  25
ATOM     25  C   UNL     1       3.350   7.039  17.815  0.00  0.00    +0.000 A 
ATOM     26  C   UNL     1       4.711   7.371  17.754  0.00  0.00    +0.000 A 
ATOM     27  C   UNL     1       5.650   6.357  17.710  0.00  0.00    +0.000 A 
ATOM     28  N   UNL     1       5.339   5.046  17.686  0.00  0.00    +0.000 NA
ATOM     29  C   UNL     1       4.042   4.707  17.728  0.00  0.00    +0.000 A 
ATOM     30  C   UNL     1       3.733   3.356  17.646  0.00  0.00    +0.000 A 
ATOM     31  C   UNL     1       2.415   2.898  17.674  0.00  0.00    +0.000 A 
ATOM     32  C   UNL     1       1.381   3.808  17.820  0.00  0.00    +0.000 A 
ATOM     33  C   UNL     1       1.665   5.173  17.895  0.00  0.00    +0.000 A 
ATOM     34  C   UNL     1       2.994   5.661  17.824  0.00  0.00    +0.000 A 
ENDBRANCH  24  25
ENDBRANCH  13  24
TORSDOF 5
ENDMDL
MODEL 3
REMARK VINA RESULT:      -7.9      2.317      8.426
REMARK  Name = 
REMARK  6 active torsions:
REMARK  status: ('A' for Active; 'I' for Inactive)
REMARK    1  A    between atoms: C_1  and  C_2
REMARK    2  A    between atoms: C_3  and  C_4
REMARK    3  A    between atoms: C_4  and  N_5
REMARK    4  A    between atoms: C_11  and  N_12
REMARK    5  A    between atoms: N_18  and  C_19
REMARK    6  A    between atoms: C_19  and  C_20
REMARK                            x       y       z     vdW  Elec       q    Type
REMARK                         _______ _______ _______ _____ _____    ______ ____
ROOT
ATOM      1  N   UNL     1       2.224   7.539  18.766  0.00  0.00    +0.000 N 
ATOM      2  C   UNL     1       2.150   6.880  20.003  0.00  0.00    +0.000 A 
ATOM      3  N   UNL     1       2.639   5.589  20.066  0.00  0.00    +0.000 N 
ATOM      4  C   UNL     1       4.057   5.301  19.847  0.00  0.00    +0.000 C 
ATOM      5  C   UNL     1       4.140   3.968  19.101  0.00  0.00    +0.000 C 
ATOM      6  C   UNL     1       3.439   2.853  19.886  0.00  0.00    +0.000 C 
ATOM      7  C   UNL     1       2.015   3.256  20.318  0.00  0.00    +0.000 C 
ATOM      8  C   UNL     1       2.028   4.638  21.008  0.00  0.00    +0.000 C 
ATOM      9  N   UNL     1       1.627   7.407  21.093  0.00  0.00    +0.000 NA
ATOM     10  C   UNL     1       1.030   8.655  20.934  0.00  0.00    +0.000 A 
ATOM     11  C   UNL     1       0.345   9.446  21.869  0.00  0.00    +0.000 A 
ATOM     12  C   UNL     1      -0.075  10.579  21.189  0.00  0.00    +0.000 A 
ATOM     13  N   UNL     1       0.286  10.440  19.863  0.00  0.00    +0.000 N 
ATOM     14  C   UNL     1       1.122   9.356  19.777  0.00  0.00    +0.000 A 
ATOM     15  C   UNL     1       1.996   8.935  18.749  0.00  0.00    +0.000 A 
ATOM     16  O   UNL     1       2.544   9.767  18.036  0.00  0.00    +0.000 OA
ENDROOT
BRANCH   7  17
ATOM     17  N   UNL     1       1.425   2.217  21.163  0.00  0.00    +0.000 NA
ATOM     18  H   UNL     1       2.149   1.755  21.713  0.00  0.00    +0.000 HD
ATOM     19  H   UNL     1       1.008   1.496  20.575  0.00  0.00    +0.000 HD
ENDBRANCH   7  17
BRANCH   1  20
ATOM     20  C   UNL     1       2.527   6.793  17.481  0.00  0.00    +0.000 C 
BRANCH  20  23
ATOM     21  C   UNL     1       6.766   7.136  16.954  0.00  0.00    +0.000 C 
ATOM     22  C   UNL     1       5.320   7.027  17.132  0.00  0.00    +0.000 C 
ATOM     23  C   UNL     1       4.031   6.919  17.293  0.00  0.00    +0.000 C 
ENDBRANCH  20  23
ENDBRANCH   1  20
BRANCH  13  24
ATOM     24  C   UNL     1      -0.148  11.305  18.768  0.00  0.00    +0.000 C 
BRANCH  24  25
ATOM     25  C   UNL     1      -1.552  10.971  18.270  0.00  0.00    +0.000 A 
ATOM     26  C   UNL     1      -1.678  10.066  17.207  0.00  0.00    +0.000 A 
ATOM     27  C   UNL     1      -2.936   9.784  16.709  0.00  0.00    +0.000 A 
ATOM     28  N   UNL     1      -4.069  10.357  17.162  0.00  0.00    +0.000 NA
ATOM     29  C   UNL     1      -3.969  11.237  18.169  0.00  0.00    +0.000 A 
ATOM     30  C   UNL     1      -5.135  11.863  18.589  0.00  0.00    +0.000 A 
ATOM     31  C   UNL     1      -5.139  12.799  19.622  0.00  0.00    +0.000 A 
ATOM     32  C   UNL     1      -3.955  13.096  20.277  0.00  0.00    +0.000 A 
ATOM     33  C   UNL     1      -2.767  12.488  19.868  0.00  0.00    +0.000 A 
ATOM     34  C   UNL     1      -2.735  11.567  18.791  0.00  0.00    +0.000 A 
ENDBRANCH  24  25
ENDBRANCH  13  24
TORSDOF 5
ENDMDL
MODEL 4
REMARK VINA RESULT:      -7.8      1.322      2.751
REMARK  Name = 
REMARK  6 active torsions:
REMARK  status: ('A' for Active; 'I' for Inactive)
REMARK    1  A    between atoms: C_1  and  C_2
REMARK    2  A    between atoms: C_3  and  C_4
REMARK    3  A    between atoms: C_4  and  N_5
REMARK    4  A    between atoms: C_11  and  N_12
REMARK    5  A    between atoms: N_18  and  C_19
REMARK    6  A    between atoms: C_19  and  C_20
REMARK                            x       y       z     vdW  Elec       q    Type
REMARK                         _______ _______ _______ _____ _____    ______ ____
ROOT
ATOM      1  N   UNL     1      -0.423  11.064  19.220  0.00  0.00    +0.000 N 
ATOM      2  C   UNL     1      -0.503  11.102  20.621  0.00  0.00    +0.000 A 
ATOM      3  N   UNL     1      -1.184  12.160  21.191  0.00  0.00    +0.000 N 
ATOM      4  C   UNL     1      -2.619  12.349  20.971  0.00  0.00    +0.000 C 
ATOM      5  C   UNL     1      -2.870  13.855  20.880  0.00  0.00    +0.000 C 
ATOM      6  C   UNL     1      -2.381  14.572  22.143  0.00  0.00    +0.000 C 
ATOM      7  C   UNL     1      -0.932  14.187  22.504  0.00  0.00    +0.000 C 
ATOM      8  C   UNL     1      -0.765  12.651  22.513  0.00  0.00    +0.000 C 
ATOM      9  N   UNL     1       0.046  10.207  21.418  0.00  0.00    +0.000 NA
ATOM     10  C   UNL     1       0.832   9.241  20.794  0.00  0.00    +0.000 A 
ATOM     11  C   UNL     1       1.589   8.201  21.354  0.00  0.00    +0.000 A 
ATOM     12  C   UNL     1       2.204   7.551  20.295  0.00  0.00    +0.000 A 
ATOM     13  N   UNL     1       1.883   8.227  19.135  0.00  0.00    +0.000 N 
ATOM     14  C   UNL     1       0.897   9.129  19.444  0.00  0.00    +0.000 A 
ATOM     15  C   UNL     1       0.014   9.861  18.618  0.00  0.00    +0.000 A 
ATOM     16  O   UNL     1      -0.370   9.380  17.559  0.00  0.00    +0.000 OA
ENDROOT
BRANCH   7  17
ATOM     17  N   UNL     1      -0.543  14.798  23.776  0.00  0.00    +0.000 NA
ATOM     18  H   UNL     1      -1.265  14.642  24.478  0.00  0.00    +0.000 HD
ATOM     19  H   UNL     1      -0.469  15.808  23.660  0.00  0.00    +0.000 HD
ENDBRANCH   7  17
BRANCH   1  20
ATOM     20  C   UNL     1      -0.780  12.266  18.368  0.00  0.00    +0.000 C 
BRANCH  20  23
ATOM     21  C   UNL     1      -4.409  11.173  16.367  0.00  0.00    +0.000 C 
ATOM     22  C   UNL     1      -3.168  11.549  17.042  0.00  0.00    +0.000 C 
ATOM     23  C   UNL     1      -2.066  11.880  17.654  0.00  0.00    +0.000 C 
ENDBRANCH  20  23
ENDBRANCH   1  20
BRANCH  13  24
ATOM     24  C   UNL     1       2.490   8.002  17.824  0.00  0.00    +0.000 C 
BRANCH  24  25
ATOM     25  C   UNL     1       3.475   6.837  17.819  0.00  0.00    +0.000 A 
ATOM     26  C   UNL     1       4.845   7.130  17.743  0.00  0.00    +0.000 A 
ATOM     27  C   UNL     1       5.753   6.090  17.689  0.00  0.00    +0.000 A 
ATOM     28  N   UNL     1       5.404   4.788  17.672  0.00  0.00    +0.000 NA
ATOM     29  C   UNL     1       4.099   4.486  17.729  0.00  0.00    +0.000 A 
ATOM     30  C   UNL     1       3.749   3.144  17.653  0.00  0.00    +0.000 A 
ATOM     31  C   UNL     1       2.420   2.725  17.696  0.00  0.00    +0.000 A 
ATOM     32  C   UNL     1       1.413   3.664  17.852  0.00  0.00    +0.000 A 
ATOM     33  C   UNL     1       1.738   5.021  17.922  0.00  0.00    +0.000 A 
ATOM     34  C   UNL     1       3.080   5.470  17.835  0.00  0.00    +0.000 A 
ENDBRANCH  24  25
ENDBRANCH  13  24
TORSDOF 5
ENDMDL
MODEL 5
REMARK VINA RESULT:      -7.6      1.077      1.921
REMARK  Name = 
REMARK  6 active torsions:
REMARK  status: ('A' for Active; 'I' for Inactive)
REMARK    1  A    between atoms: C_1  and  C_2
REMARK    2  A    between atoms: C_3  and  C_4
REMARK    3  A    between atoms: C_4  and  N_5
REMARK    4  A    between atoms: C_11  and  N_12
REMARK    5  A    between atoms: N_18  and  C_19
REMARK    6  A    between atoms: C_19  and  C_20
REMARK                            x       y       z     vdW  Elec       q    Type
REMARK                         _______ _______ _______ _____ _____    ______ ____
ROOT
ATOM      1  N   UNL     1      -0.424  11.077  19.341  0.00  0.00    +0.000 N 
ATOM      2  C   UNL     1      -0.566  11.100  20.737  0.00  0.00    +0.000 A 
ATOM      3  N   UNL     1      -1.273  12.151  21.288  0.00  0.00    +0.000 N 
ATOM      4  C   UNL     1      -2.697  12.340  21.008  0.00  0.00    +0.000 C 
ATOM      5  C   UNL     1      -2.947  13.846  20.922  0.00  0.00    +0.000 C 
ATOM      6  C   UNL     1      -2.515  14.551  22.213  0.00  0.00    +0.000 C 
ATOM      7  C   UNL     1      -1.082  14.165  22.632  0.00  0.00    +0.000 C 
ATOM      8  C   UNL     1      -0.913  12.629  22.632  0.00  0.00    +0.000 C 
ATOM      9  N   UNL     1      -0.050  10.197  21.548  0.00  0.00    +0.000 NA
ATOM     10  C   UNL     1       0.764   9.239  20.948  0.00  0.00    +0.000 A 
ATOM     11  C   UNL     1       1.498   8.194  21.530  0.00  0.00    +0.000 A 
ATOM     12  C   UNL     1       2.160   7.557  20.492  0.00  0.00    +0.000 A 
ATOM     13  N   UNL     1       1.888   8.245  19.326  0.00  0.00    +0.000 N 
ATOM     14  C   UNL     1       0.888   9.141  19.602  0.00  0.00    +0.000 A 
ATOM     15  C   UNL     1       0.040   9.882  18.746  0.00  0.00    +0.000 A 
ATOM     16  O   UNL     1      -0.296   9.411  17.666  0.00  0.00    +0.000 OA
ENDROOT
BRANCH   7  17
ATOM     17  N   UNL     1      -0.750  14.762  23.927  0.00  0.00    +0.000 NA
ATOM     18  H   UNL     1      -1.417  14.461  24.636  0.00  0.00    +0.000 HD
ATOM     19  H   UNL     1      -0.834  15.776  23.865  0.00  0.00    +0.000 HD
ENDBRANCH   7  17
BRANCH   1  20
ATOM     20  C   UNL     1      -0.747  12.288  18.487  0.00  0.00    +0.000 C 
BRANCH  20  23
ATOM     21  C   UNL     1      -4.203  11.164  16.215  0.00  0.00    +0.000 C 
ATOM     22  C   UNL     1      -3.020  11.548  16.983  0.00  0.00    +0.000 C 
ATOM     23  C   UNL     1      -1.971  11.889  17.677  0.00  0.00    +0.000 C 
ENDBRANCH  20  23
ENDBRANCH   1  20
BRANCH  13  24
ATOM     24  C   UNL     1       2.552   8.035  18.041  0.00  0.00    +0.000 C 
BRANCH  24  25
ATOM     25  C   UNL     1       2.953   6.581  17.810  0.00  0.00    +0.000 A 
ATOM     26  C   UNL     1       1.968   5.593  17.960  0.00  0.00    +0.000 A 
ATOM     27  C   UNL     1       2.318   4.265  17.802  0.00  0.00    +0.000 A 
ATOM     28  N   UNL     1       3.572   3.845  17.542  0.00  0.00    +0.000 NA
ATOM     29  C   UNL     1       4.531   4.772  17.410  0.00  0.00    +0.000 A 
ATOM     30  C   UNL     1       5.829   4.324  17.199  0.00  0.00    +0.000 A 
ATOM     31  C   UNL     1       6.900   5.206  17.056  0.00  0.00    +0.000 A 
ATOM     32  C   UNL     1       6.668   6.571  17.092  0.00  0.00    +0.000 A 
ATOM     33  C   UNL     1       5.373   7.047  17.312  0.00  0.00    +0.000 A 
ATOM     34  C   UNL     1       4.279   6.167  17.504  0.00  0.00    +0.000 A 
ENDBRANCH  24  25
ENDBRANCH  13  24
TORSDOF 5
ENDMDL
MODEL 6
REMARK VINA RESULT:      -7.6      2.389      8.816
REMARK  Name = 
REMARK  6 active torsions:
REMARK  status: ('A' for Active; 'I' for Inactive)
REMARK    1  A    between atoms: C_1  and  C_2
REMARK    2  A    between atoms: C_3  and  C_4
REMARK    3  A    between atoms: C_4  and  N_5
REMARK    4  A    between atoms: C_11  and  N_12
REMARK    5  A    between atoms: N_18  and  C_19
REMARK    6  A    between atoms: C_19  and  C_20
REMARK                            x       y       z     vdW  Elec       q    Type
REMARK                         _______ _______ _______ _____ _____    ______ ____
ROOT
ATOM      1  N   UNL     1       1.110   9.305  19.483  0.00  0.00    +0.000 N 
ATOM      2  C   UNL     1       1.336   8.219  20.342  0.00  0.00    +0.000 A 
ATOM      3  N   UNL     1       1.889   7.077  19.794  0.00  0.00    +0.000 N 
ATOM      4  C   UNL     1       3.239   7.081  19.230  0.00  0.00    +0.000 C 
ATOM      5  C   UNL     1       3.223   6.159  18.010  0.00  0.00    +0.000 C 
ATOM      6  C   UNL     1       2.762   4.747  18.392  0.00  0.00    +0.000 C 
ATOM      7  C   UNL     1       1.446   4.766  19.196  0.00  0.00    +0.000 C 
ATOM      8  C   UNL     1       1.541   5.768  20.368  0.00  0.00    +0.000 C 
ATOM      9  N   UNL     1       1.035   8.216  21.626  0.00  0.00    +0.000 NA
ATOM     10  C   UNL     1       0.358   9.341  22.092  0.00  0.00    +0.000 A 
ATOM     11  C   UNL     1      -0.148   9.618  23.370  0.00  0.00    +0.000 A 
ATOM     12  C   UNL     1      -0.758  10.860  23.289  0.00  0.00    +0.000 A 
ATOM     13  N   UNL     1      -0.684  11.287  21.978  0.00  0.00    +0.000 N 
ATOM     14  C   UNL     1       0.165  10.437  21.317  0.00  0.00    +0.000 A 
ATOM     15  C   UNL     1       0.817  10.558  20.068  0.00  0.00    +0.000 A 
ATOM     16  O   UNL     1       1.158  11.663  19.664  0.00  0.00    +0.000 OA
ENDROOT
BRANCH   7  17
ATOM     17  N   UNL     1       1.103   3.415  19.643  0.00  0.00    +0.000 NA
ATOM     18  H   UNL     1       1.948   2.866  19.791  0.00  0.00    +0.000 HD
ATOM     19  H   UNL     1       0.575   2.939  18.913  0.00  0.00    +0.000 HD
ENDBRANCH   7  17
BRANCH   1  20
ATOM     20  C   UNL     1       1.166   9.153  17.975  0.00  0.00    +0.000 C 
BRANCH  20  23
ATOM     21  C   UNL     1      -2.770  10.135  16.593  0.00  0.00    +0.000 C 
ATOM     22  C   UNL     1      -1.429   9.806  17.070  0.00  0.00    +0.000 C 
ATOM     23  C   UNL     1      -0.231   9.505  17.487  0.00  0.00    +0.000 C 
ENDBRANCH  20  23
ENDBRANCH   1  20
BRANCH  13  24
ATOM     24  C   UNL     1      -1.385  12.441  21.418  0.00  0.00    +0.000 C 
BRANCH  24  25
ATOM     25  C   UNL     1      -2.823  12.559  21.915  0.00  0.00    +0.000 A 
ATOM     26  C   UNL     1      -3.035  12.711  23.293  0.00  0.00    +0.000 A 
ATOM     27  C   UNL     1      -4.331  12.774  23.770  0.00  0.00    +0.000 A 
ATOM     28  N   UNL     1      -5.425  12.663  22.991  0.00  0.00    +0.000 NA
ATOM     29  C   UNL     1      -5.244  12.502  21.672  0.00  0.00    +0.000 A 
ATOM     30  C   UNL     1      -6.377  12.333  20.888  0.00  0.00    +0.000 A 
ATOM     31  C   UNL     1      -6.298  12.151  19.507  0.00  0.00    +0.000 A 
ATOM     32  C   UNL     1      -5.059  12.171  18.887  0.00  0.00    +0.000 A 
ATOM     33  C   UNL     1      -3.904  12.331  19.655  0.00  0.00    +0.000 A 
ATOM     34  C   UNL     1      -3.960  12.473  21.064  0.00  0.00    +0.000 A 
ENDBRANCH  24  25
ENDBRANCH  13  24
TORSDOF 5
ENDMDL
MODEL 7
REMARK VINA RESULT:      -7.5      2.422      8.823
REMARK  Name = 
REMARK  6 active torsions:
REMARK  status: ('A' for Active; 'I' for Inactive)
REMARK    1  A    between atoms: C_1  and  C_2
REMARK    2  A    between atoms: C_3  and  C_4
REMARK    3  A    between atoms: C_4  and  N_5
REMARK    4  A    between atoms: C_11  and  N_12
REMARK    5  A    between atoms: N_18  and  C_19
REMARK    6  A    between atoms: C_19  and  C_20
REMARK                            x       y       z     vdW  Elec       q    Type
REMARK                         _______ _______ _______ _____ _____    ______ ____
ROOT
ATOM      1  N   UNL     1       1.036   9.399  19.518  0.00  0.00    +0.000 N 
ATOM      2  C   UNL     1       1.176   8.360  20.451  0.00  0.00    +0.000 A 
ATOM      3  N   UNL     1       1.696   7.163  19.998  0.00  0.00    +0.000 N 
ATOM      4  C   UNL     1       3.067   7.071  19.493  0.00  0.00    +0.000 C 
ATOM      5  C   UNL     1       3.057   6.075  18.332  0.00  0.00    +0.000 C 
ATOM      6  C   UNL     1       2.514   4.713  18.780  0.00  0.00    +0.000 C 
ATOM      7  C   UNL     1       1.170   4.841  19.523  0.00  0.00    +0.000 C 
ATOM      8  C   UNL     1       1.264   5.909  20.635  0.00  0.00    +0.000 C 
ATOM      9  N   UNL     1       0.824   8.452  21.719  0.00  0.00    +0.000 NA
ATOM     10  C   UNL     1       0.182   9.633  22.085  0.00  0.00    +0.000 A 
ATOM     11  C   UNL     1      -0.361  10.012  23.321  0.00  0.00    +0.000 A 
ATOM     12  C   UNL     1      -0.909  11.273  23.138  0.00  0.00    +0.000 A 
ATOM     13  N   UNL     1      -0.761  11.612  21.807  0.00  0.00    +0.000 N 
ATOM     14  C   UNL     1       0.073  10.685  21.237  0.00  0.00    +0.000 A 
ATOM     15  C   UNL     1       0.780  10.699  20.012  0.00  0.00    +0.000 A 
ATOM     16  O   UNL     1       1.188  11.759  19.556  0.00  0.00    +0.000 OA
ENDROOT
BRANCH   7  17
ATOM     17  N   UNL     1       0.745   3.537  20.037  0.00  0.00    +0.000 NA
ATOM     18  H   UNL     1       0.760   2.842  19.292  0.00  0.00    +0.000 HD
ATOM     19  H   UNL     1      -0.221   3.596  20.356  0.00  0.00    +0.000 HD
ENDBRANCH   7  17
BRANCH   1  20
ATOM     20  C   UNL     1       1.146   9.150  18.025  0.00  0.00    +0.000 C 
BRANCH  20  23
ATOM     21  C   UNL     1      -2.755   9.984  16.460  0.00  0.00    +0.000 C 
ATOM     22  C   UNL     1      -1.423   9.708  16.993  0.00  0.00    +0.000 C 
ATOM     23  C   UNL     1      -0.238   9.451  17.470  0.00  0.00    +0.000 C 
ENDBRANCH  20  23
ENDBRANCH   1  20
BRANCH  13  24
ATOM     24  C   UNL     1      -1.384  12.759  21.148  0.00  0.00    +0.000 C 
BRANCH  24  25
ATOM     25  C   UNL     1      -2.834  12.499  20.750  0.00  0.00    +0.000 A 
ATOM     26  C   UNL     1      -3.096  12.116  19.427  0.00  0.00    +0.000 A 
ATOM     27  C   UNL     1      -4.406  11.920  19.030  0.00  0.00    +0.000 A 
ATOM     28  N   UNL     1      -5.470  12.107  19.836  0.00  0.00    +0.000 NA
ATOM     29  C   UNL     1      -5.242  12.488  21.101  0.00  0.00    +0.000 A 
ATOM     30  C   UNL     1      -6.348  12.733  21.904  0.00  0.00    +0.000 A 
ATOM     31  C   UNL     1      -6.220  13.140  23.232  0.00  0.00    +0.000 A 
ATOM     32  C   UNL     1      -4.956  13.275  23.784  0.00  0.00    +0.000 A 
ATOM     33  C   UNL     1      -3.828  13.043  22.995  0.00  0.00    +0.000 A 
ATOM     34  C   UNL     1      -3.937  12.672  21.632  0.00  0.00    +0.000 A 
ENDBRANCH  24  25
ENDBRANCH  13  24
TORSDOF 5
ENDMDL
MODEL 8
REMARK VINA RESULT:      -7.5      2.203      9.101
REMARK  Name = 
REMARK  6 active torsions:
REMARK  status: ('A' for Active; 'I' for Inactive)
REMARK    1  A    between atoms: C_1  and  C_2
REMARK    2  A    between atoms: C_3  and  C_4
REMARK    3  A    between atoms: C_4  and  N_5
REMARK    4  A    between atoms: C_11  and  N_12
REMARK    5  A    between atoms: N_18  and  C_19
REMARK    6  A    between atoms: C_19  and  C_20
REMARK                            x       y       z     vdW  Elec       q    Type
REMARK                         _______ _______ _______ _____ _____    ______ ____
ROOT
ATOM      1  N   UNL     1       1.229   9.202  19.424  0.00  0.00    +0.000 N 
ATOM      2  C   UNL     1       1.502   8.089  20.234  0.00  0.00    +0.000 A 
ATOM      3  N   UNL     1       2.076   6.987  19.629  0.00  0.00    +0.000 N 
ATOM      4  C   UNL     1       3.414   7.053  19.039  0.00  0.00    +0.000 C 
ATOM      5  C   UNL     1       3.400   6.181  17.782  0.00  0.00    +0.000 C 
ATOM      6  C   UNL     1       2.986   4.742  18.115  0.00  0.00    +0.000 C 
ATOM      7  C   UNL     1       1.686   4.690  18.943  0.00  0.00    +0.000 C 
ATOM      8  C   UNL     1       1.776   5.646  20.154  0.00  0.00    +0.000 C 
ATOM      9  N   UNL     1       1.227   8.025  21.522  0.00  0.00    +0.000 NA
ATOM     10  C   UNL     1       0.529   9.110  22.046  0.00  0.00    +0.000 A 
ATOM     11  C   UNL     1       0.041   9.320  23.344  0.00  0.00    +0.000 A 
ATOM     12  C   UNL     1      -0.606  10.546  23.326  0.00  0.00    +0.000 A 
ATOM     13  N   UNL     1      -0.569  11.028  22.032  0.00  0.00    +0.000 N 
ATOM     14  C   UNL     1       0.290  10.230  21.321  0.00  0.00    +0.000 A 
ATOM     15  C   UNL     1       0.914  10.422  20.066  0.00  0.00    +0.000 A 
ATOM     16  O   UNL     1       1.215  11.551  19.702  0.00  0.00    +0.000 OA
ENDROOT
BRANCH   7  17
ATOM     17  N   UNL     1       1.389   3.313  19.340  0.00  0.00    +0.000 NA
ATOM     18  H   UNL     1       1.449   2.692  18.534  0.00  0.00    +0.000 HD
ATOM     19  H   UNL     1       0.429   3.255  19.677  0.00  0.00    +0.000 HD
ENDBRANCH   7  17
BRANCH   1  20
ATOM     20  C   UNL     1       1.259   9.114  17.910  0.00  0.00    +0.000 C 
BRANCH  20  23
ATOM     21  C   UNL     1      -2.719  10.084  16.647  0.00  0.00    +0.000 C 
ATOM     22  C   UNL     1      -1.365   9.747  17.081  0.00  0.00    +0.000 C 
ATOM     23  C   UNL     1      -0.154   9.455  17.464  0.00  0.00    +0.000 C 
ENDBRANCH  20  23
ENDBRANCH   1  20
BRANCH  13  24
ATOM     24  C   UNL     1      -1.313  12.184  21.534  0.00  0.00    +0.000 C 
BRANCH  24  25
ATOM     25  C   UNL     1      -0.868  13.496  22.173  0.00  0.00    +0.000 A 
ATOM     26  C   UNL     1       0.321  14.083  21.716  0.00  0.00    +0.000 A 
ATOM     27  C   UNL     1       0.769  15.247  22.312  0.00  0.00    +0.000 A 
ATOM     28  N   UNL     1       0.146  15.850  23.344  0.00  0.00    +0.000 NA
ATOM     29  C   UNL     1      -0.985  15.297  23.806  0.00  0.00    +0.000 A 
ATOM     30  C   UNL     1      -1.586  15.895  24.906  0.00  0.00    +0.000 A 
ATOM     31  C   UNL     1      -2.760  15.394  25.468  0.00  0.00    +0.000 A 
ATOM     32  C   UNL     1      -3.369  14.287  24.900  0.00  0.00    +0.000 A 
ATOM     33  C   UNL     1      -2.780  13.662  23.799  0.00  0.00    +0.000 A 
ATOM     34  C   UNL     1      -1.564  14.129  23.241  0.00  0.00    +0.000 A 
ENDBRANCH  24  25
ENDBRANCH  13  24
TORSDOF 5
ENDMDL
MODEL 9
REMARK VINA RESULT:      -7.4      2.323      9.138
REMARK  Name = 
REMARK  6 active torsions:
REMARK  status: ('A' for Active; 'I' for Inactive)
REMARK    1  A    between atoms: C_1  and  C_2
REMARK    2  A    between atoms: C_3  and  C_4
REMARK    3  A    between atoms: C_4  and  N_5
REMARK    4  A    between atoms: C_11  and  N_12
REMARK    5  A    between atoms: N_18  and  C_19
REMARK    6  A    between atoms: C_19  and  C_20
REMARK                            x       y       z     vdW  Elec       q    Type
REMARK                         _______ _______ _______ _____ _____    ______ ____
ROOT
ATOM      1  N   UNL     1       1.112   9.337  19.487  0.00  0.00    +0.000 N 
ATOM      2  C   UNL     1       1.357   8.251  20.341  0.00  0.00    +0.000 A 
ATOM      3  N   UNL     1       1.937   7.125  19.790  0.00  0.00    +0.000 N 
ATOM      4  C   UNL     1       3.290   7.161  19.232  0.00  0.00    +0.000 C 
ATOM      5  C   UNL     1       3.301   6.246  18.006  0.00  0.00    +0.000 C 
ATOM      6  C   UNL     1       2.868   4.823  18.378  0.00  0.00    +0.000 C 
ATOM      7  C   UNL     1       1.548   4.808  19.175  0.00  0.00    +0.000 C 
ATOM      8  C   UNL     1       1.615   5.805  20.354  0.00  0.00    +0.000 C 
ATOM      9  N   UNL     1       1.049   8.234  21.623  0.00  0.00    +0.000 NA
ATOM     10  C   UNL     1       0.346   9.341  22.092  0.00  0.00    +0.000 A 
ATOM     11  C   UNL     1      -0.172   9.600  23.369  0.00  0.00    +0.000 A 
ATOM     12  C   UNL     1      -0.809  10.829  23.292  0.00  0.00    +0.000 A 
ATOM     13  N   UNL     1      -0.737  11.265  21.983  0.00  0.00    +0.000 N 
ATOM     14  C   UNL     1       0.134  10.437  21.322  0.00  0.00    +0.000 A 
ATOM     15  C   UNL     1       0.789  10.580  20.077  0.00  0.00    +0.000 A 
ATOM     16  O   UNL     1       1.108  11.694  19.682  0.00  0.00    +0.000 OA
ENDROOT
BRANCH   7  17
ATOM     17  N   UNL     1       1.232   3.447  19.613  0.00  0.00    +0.000 NA
ATOM     18  H   UNL     1       1.415   2.783  18.862  0.00  0.00    +0.000 HD
ATOM     19  H   UNL     1       0.236   3.380  19.821  0.00  0.00    +0.000 HD
ENDBRANCH   7  17
BRANCH   1  20
ATOM     20  C   UNL     1       1.179   9.195  17.978  0.00  0.00    +0.000 C 
BRANCH  20  23
ATOM     21  C   UNL     1      -2.778  10.085  16.593  0.00  0.00    +0.000 C 
ATOM     22  C   UNL     1      -1.430   9.774  17.065  0.00  0.00    +0.000 C 
ATOM     23  C   UNL     1      -0.226   9.507  17.486  0.00  0.00    +0.000 C 
ENDBRANCH  20  23
ENDBRANCH   1  20
BRANCH  13  24
ATOM     24  C   UNL     1      -1.460  12.407  21.427  0.00  0.00    +0.000 C 
BRANCH  24  25
ATOM     25  C   UNL     1      -2.564  12.917  22.349  0.00  0.00    +0.000 A 
ATOM     26  C   UNL     1      -3.868  12.445  22.141  0.00  0.00    +0.000 A 
ATOM     27  C   UNL     1      -4.892  12.929  22.935  0.00  0.00    +0.000 A 
ATOM     28  N   UNL     1      -4.724  13.864  23.890  0.00  0.00    +0.000 NA
ATOM     29  C   UNL     1      -3.487  14.339  24.095  0.00  0.00    +0.000 A 
ATOM     30  C   UNL     1      -3.336  15.343  25.042  0.00  0.00    +0.000 A 
ATOM     31  C   UNL     1      -2.094  15.910  25.325  0.00  0.00    +0.000 A 
ATOM     32  C   UNL     1      -0.966  15.441  24.671  0.00  0.00    +0.000 A 
ATOM     33  C   UNL     1      -1.092  14.439  23.707  0.00  0.00    +0.000 A 
ATOM     34  C   UNL     1      -2.352  13.881  23.374  0.00  0.00    +0.000 A 
ENDBRANCH  24  25
ENDBRANCH  13  24
TORSDOF 5
ENDMDL
