MODEL 1
REMARK VINA RESULT:      -9.3      0.000      0.000
REMARK  Name = 
REMARK  3 active torsions:
REMARK  status: ('A' for Active; 'I' for Inactive)
REMARK    1  A    between atoms: C_6  and  C_7
REMARK    2  A    between atoms: N_15  and  C_16
REMARK    3  A    between atoms: C_16  and  C_17
REMARK                            x       y       z     vdW  Elec       q    Type
REMARK                         _______ _______ _______ _____ _____    ______ ____
ROOT
ATOM      1  C   UNL     1       7.077   4.928  16.080  0.00  0.00    +0.000 A 
ATOM      2  N   UNL     1       7.728   5.318  14.993  0.00  0.00    +0.000 NA
ATOM      3  C   UNL     1       7.096   4.726  13.935  0.00  0.00    +0.000 A 
ATOM      4  C   UNL     1       7.412   4.777  12.568  0.00  0.00    +0.000 A 
ATOM      5  C   UNL     1       6.583   4.110  11.657  0.00  0.00    +0.000 A 
ATOM      6  C   UNL     1       5.454   3.418  12.098  0.00  0.00    +0.000 A 
ATOM      7  C   UNL     1       5.134   3.345  13.459  0.00  0.00    +0.000 A 
ATOM      8  C   UNL     1       5.990   3.999  14.355  0.00  0.00    +0.000 A 
ATOM      9  N   UNL     1       6.019   4.106  15.735  0.00  0.00    +0.000 N 
ENDROOT
BRANCH   1  15
ATOM     10  N   UNL     1       7.501   7.808  17.185  0.00  0.00    +0.000 N 
ATOM     11  C   UNL     1       7.677   6.686  17.910  0.00  0.00    +0.000 A 
ATOM     12  N   UNL     1       8.026   6.662  19.195  0.00  0.00    +0.000 NA
ATOM     13  O   UNL     1       8.067   5.317  19.536  0.00  0.00    +0.000 OA
ATOM     14  N   UNL     1       7.722   4.508  18.460  0.00  0.00    +0.000 NA
ATOM     15  C   UNL     1       7.488   5.356  17.455  0.00  0.00    +0.000 A 
ATOM     16  H   UNL     1       7.447   8.706  17.648  0.00  0.00    +0.000 HD
ATOM     17  H   UNL     1       7.055   7.754  16.270  0.00  0.00    +0.000 HD
ENDBRANCH   1  15
BRANCH   9  18
ATOM     18  C   UNL     1       5.034   3.518  16.636  0.00  0.00    +0.000 C 
BRANCH  18  19
ATOM     19  C   UNL     1       4.199   4.512  17.428  0.00  0.00    +0.000 A 
ATOM     20  C   UNL     1       3.999   5.846  17.017  0.00  0.00    +0.000 A 
ATOM     21  C   UNL     1       3.310   6.701  17.858  0.00  0.00    +0.000 A 
ATOM     22  C   UNL     1       2.842   6.296  19.083  0.00  0.00    +0.000 A 
ATOM     23  C   UNL     1       2.988   5.002  19.520  0.00  0.00    +0.000 A 
ATOM     24  C   UNL     1       3.645   4.103  18.673  0.00  0.00    +0.000 A 
ATOM     25 CL   UNL     1       3.742   2.458  19.204  0.00  0.00    +0.000 Cl
ATOM     26  O   UNL     1       2.226   7.300  19.763  0.00  0.00    +0.000 OA
ATOM     27  C   UNL     1       2.184   8.317  18.741  0.00  0.00    +0.000 C 
ATOM     28  O   UNL     1       3.016   8.006  17.604  0.00  0.00    +0.000 OA
ENDBRANCH  18  19
ENDBRANCH   9  18
TORSDOF 3
ENDMDL
MODEL 2
REMARK VINA RESULT:      -8.4      2.523      4.994
REMARK  Name = 
REMARK  3 active torsions:
REMARK  status: ('A' for Active; 'I' for Inactive)
REMARK    1  A    between atoms: C_6  and  C_7
REMARK    2  A    between atoms: N_15  and  C_16
REMARK    3  A    between atoms: C_16  and  C_17
REMARK                            x       y       z     vdW  Elec       q    Type
REMARK                         _______ _______ _______ _____ _____    ______ ____
ROOT
ATOM      1  C   UNL     1       4.580   3.853  17.861  0.00  0.00    +0.000 A 
ATOM      2  N   UNL     1       3.904   2.773  17.496  0.00  0.00    +0.000 NA
ATOM      3  C   UNL     1       2.749   2.778  18.228  0.00  0.00    +0.000 A 
ATOM      4  C   UNL     1       1.707   1.837  18.255  0.00  0.00    +0.000 A 
ATOM      5  C   UNL     1       0.595   2.082  19.070  0.00  0.00    +0.000 A 
ATOM      6  C   UNL     1       0.516   3.248  19.833  0.00  0.00    +0.000 A 
ATOM      7  C   UNL     1       1.553   4.189  19.829  0.00  0.00    +0.000 A 
ATOM      8  C   UNL     1       2.667   3.912  19.025  0.00  0.00    +0.000 A 
ATOM      9  N   UNL     1       3.867   4.566  18.808  0.00  0.00    +0.000 N 
ENDROOT
BRANCH   1  15
ATOM     10  N   UNL     1       5.378   4.297  14.883  0.00  0.00    +0.000 N 
ATOM     11  C   UNL     1       6.239   4.372  15.917  0.00  0.00    +0.000 A 
ATOM     12  N   UNL     1       7.532   4.672  15.805  0.00  0.00    +0.000 NA
ATOM     13  O   UNL     1       8.022   4.661  17.104  0.00  0.00    +0.000 OA
ATOM     14  N   UNL     1       7.021   4.372  18.024  0.00  0.00    +0.000 NA
ATOM     15  C   UNL     1       5.922   4.187  17.287  0.00  0.00    +0.000 A 
ATOM     16  H   UNL     1       5.645   4.654  13.975  0.00  0.00    +0.000 HD
ATOM     17  H   UNL     1       4.375   4.248  15.063  0.00  0.00    +0.000 HD
ENDBRANCH   1  15
BRANCH   9  18
ATOM     18  C   UNL     1       4.245   5.837  19.416  0.00  0.00    +0.000 C 
BRANCH  18  19
ATOM     19  C   UNL     1       3.272   6.984  19.190  0.00  0.00    +0.000 A 
ATOM     20  C   UNL     1       2.348   7.411  20.166  0.00  0.00    +0.000 A 
ATOM     21  C   UNL     1       1.436   8.394  19.829  0.00  0.00    +0.000 A 
ATOM     22  C   UNL     1       1.389   8.943  18.571  0.00  0.00    +0.000 A 
ATOM     23  C   UNL     1       2.283   8.582  17.592  0.00  0.00    +0.000 A 
ATOM     24  C   UNL     1       3.245   7.619  17.917  0.00  0.00    +0.000 A 
ATOM     25 CL   UNL     1       4.415   7.241  16.697  0.00  0.00    +0.000 Cl
ATOM     26  O   UNL     1       0.398   9.864  18.442  0.00  0.00    +0.000 OA
ATOM     27  C   UNL     1      -0.035   9.973  19.813  0.00  0.00    +0.000 C 
ATOM     28  O   UNL     1       0.495   8.928  20.655  0.00  0.00    +0.000 OA
ENDBRANCH  18  19
ENDBRANCH   9  18
TORSDOF 3
ENDMDL
MODEL 3
REMARK VINA RESULT:      -8.2      2.858      5.147
REMARK  Name = 
REMARK  3 active torsions:
REMARK  status: ('A' for Active; 'I' for Inactive)
REMARK    1  A    between atoms: C_6  and  C_7
REMARK    2  A    between atoms: N_15  and  C_16
REMARK    3  A    between atoms: C_16  and  C_17
REMARK                            x       y       z     vdW  Elec       q    Type
REMARK                         _______ _______ _______ _____ _____    ______ ____
ROOT
ATOM      1  C   UNL     1       4.249   4.153  17.473  0.00  0.00    +0.000 A 
ATOM      2  N   UNL     1       3.566   3.055  17.180  0.00  0.00    +0.000 NA
ATOM      3  C   UNL     1       2.578   2.955  18.121  0.00  0.00    +0.000 A 
ATOM      4  C   UNL     1       1.608   1.955  18.290  0.00  0.00    +0.000 A 
ATOM      5  C   UNL     1       0.667   2.093  19.318  0.00  0.00    +0.000 A 
ATOM      6  C   UNL     1       0.683   3.212  20.151  0.00  0.00    +0.000 A 
ATOM      7  C   UNL     1       1.653   4.211  20.005  0.00  0.00    +0.000 A 
ATOM      8  C   UNL     1       2.600   4.041  18.986  0.00  0.00    +0.000 A 
ATOM      9  N   UNL     1       3.701   4.775  18.581  0.00  0.00    +0.000 N 
ENDROOT
BRANCH   1  15
ATOM     10  N   UNL     1       7.238   4.308  18.332  0.00  0.00    +0.000 N 
ATOM     11  C   UNL     1       6.782   4.654  17.112  0.00  0.00    +0.000 A 
ATOM     12  N   UNL     1       7.549   5.081  16.111  0.00  0.00    +0.000 NA
ATOM     13  O   UNL     1       6.678   5.296  15.051  0.00  0.00    +0.000 OA
ATOM     14  N   UNL     1       5.369   4.982  15.397  0.00  0.00    +0.000 NA
ATOM     15  C   UNL     1       5.435   4.593  16.673  0.00  0.00    +0.000 A 
ATOM     16  H   UNL     1       8.230   4.179  18.483  0.00  0.00    +0.000 HD
ATOM     17  H   UNL     1       6.623   3.817  18.981  0.00  0.00    +0.000 HD
ENDBRANCH   1  15
BRANCH   9  18
ATOM     18  C   UNL     1       4.129   6.034  19.182  0.00  0.00    +0.000 C 
BRANCH  18  19
ATOM     19  C   UNL     1       3.123   7.170  19.102  0.00  0.00    +0.000 A 
ATOM     20  C   UNL     1       2.237   7.486  20.153  0.00  0.00    +0.000 A 
ATOM     21  C   UNL     1       1.289   8.471  19.946  0.00  0.00    +0.000 A 
ATOM     22  C   UNL     1       1.171   9.127  18.746  0.00  0.00    +0.000 A 
ATOM     23  C   UNL     1       2.025   8.876  17.699  0.00  0.00    +0.000 A 
ATOM     24  C   UNL     1       3.022   7.913  17.893  0.00  0.00    +0.000 A 
ATOM     25 CL   UNL     1       4.140   7.674  16.593  0.00  0.00    +0.000 Cl
ATOM     26  O   UNL     1       0.155  10.030  18.744  0.00  0.00    +0.000 OA
ATOM     27  C   UNL     1      -0.214  10.008  20.137  0.00  0.00    +0.000 C 
ATOM     28  O   UNL     1       0.377   8.906  20.858  0.00  0.00    +0.000 OA
ENDBRANCH  18  19
ENDBRANCH   9  18
TORSDOF 3
ENDMDL
MODEL 4
REMARK VINA RESULT:      -8.1      2.716      4.426
REMARK  Name = 
REMARK  3 active torsions:
REMARK  status: ('A' for Active; 'I' for Inactive)
REMARK    1  A    between atoms: C_6  and  C_7
REMARK    2  A    between atoms: N_15  and  C_16
REMARK    3  A    between atoms: C_16  and  C_17
REMARK                            x       y       z     vdW  Elec       q    Type
REMARK                         _______ _______ _______ _____ _____    ______ ____
ROOT
ATOM      1  C   UNL     1       3.664   3.789  17.060  0.00  0.00    +0.000 A 
ATOM      2  N   UNL     1       4.095   3.372  15.879  0.00  0.00    +0.000 NA
ATOM      3  C   UNL     1       5.217   4.104  15.599  0.00  0.00    +0.000 A 
ATOM      4  C   UNL     1       6.031   4.084  14.456  0.00  0.00    +0.000 A 
ATOM      5  C   UNL     1       7.161   4.909  14.416  0.00  0.00    +0.000 A 
ATOM      6  C   UNL     1       7.482   5.728  15.500  0.00  0.00    +0.000 A 
ATOM      7  C   UNL     1       6.673   5.770  16.642  0.00  0.00    +0.000 A 
ATOM      8  C   UNL     1       5.533   4.954  16.650  0.00  0.00    +0.000 A 
ATOM      9  N   UNL     1       4.505   4.769  17.557  0.00  0.00    +0.000 N 
ENDROOT
BRANCH   1  15
ATOM     10  N   UNL     1       3.326   1.157  18.689  0.00  0.00    +0.000 N 
ATOM     11  C   UNL     1       2.325   2.021  18.431  0.00  0.00    +0.000 A 
ATOM     12  N   UNL     1       1.072   1.877  18.858  0.00  0.00    +0.000 NA
ATOM     13  O   UNL     1       0.396   2.994  18.386  0.00  0.00    +0.000 OA
ATOM     14  N   UNL     1       1.242   3.840  17.680  0.00  0.00    +0.000 NA
ATOM     15  C   UNL     1       2.431   3.233  17.702  0.00  0.00    +0.000 A 
ATOM     16  H   UNL     1       3.206   0.439  19.392  0.00  0.00    +0.000 HD
ATOM     17  H   UNL     1       4.290   1.426  18.490  0.00  0.00    +0.000 HD
ENDBRANCH   1  15
BRANCH   9  18
ATOM     18  C   UNL     1       4.404   5.439  18.850  0.00  0.00    +0.000 C 
BRANCH  18  19
ATOM     19  C   UNL     1       3.327   6.506  18.950  0.00  0.00    +0.000 A 
ATOM     20  C   UNL     1       3.238   7.593  18.056  0.00  0.00    +0.000 A 
ATOM     21  C   UNL     1       2.286   8.568  18.291  0.00  0.00    +0.000 A 
ATOM     22  C   UNL     1       1.447   8.519  19.378  0.00  0.00    +0.000 A 
ATOM     23  C   UNL     1       1.475   7.470  20.265  0.00  0.00    +0.000 A 
ATOM     24  C   UNL     1       2.401   6.448  20.029  0.00  0.00    +0.000 A 
ATOM     25 CL   UNL     1       2.361   5.094  21.107  0.00  0.00    +0.000 Cl
ATOM     26  O   UNL     1       0.614   9.591  19.441  0.00  0.00    +0.000 OA
ATOM     27  C   UNL     1       0.886  10.206  18.165  0.00  0.00    +0.000 C 
ATOM     28  O   UNL     1       2.058   9.665  17.519  0.00  0.00    +0.000 OA
ENDBRANCH  18  19
ENDBRANCH   9  18
TORSDOF 3
ENDMDL
MODEL 5
REMARK VINA RESULT:      -7.8      3.799      5.093
REMARK  Name = 
REMARK  3 active torsions:
REMARK  status: ('A' for Active; 'I' for Inactive)
REMARK    1  A    between atoms: C_6  and  C_7
REMARK    2  A    between atoms: N_15  and  C_16
REMARK    3  A    between atoms: C_16  and  C_17
REMARK                            x       y       z     vdW  Elec       q    Type
REMARK                         _______ _______ _______ _____ _____    ______ ____
ROOT
ATOM      1  C   UNL     1       4.234   4.172  19.185  0.00  0.00    +0.000 A 
ATOM      2  N   UNL     1       5.528   4.099  19.462  0.00  0.00    +0.000 NA
ATOM      3  C   UNL     1       6.123   5.131  18.790  0.00  0.00    +0.000 A 
ATOM      4  C   UNL     1       7.481   5.476  18.710  0.00  0.00    +0.000 A 
ATOM      5  C   UNL     1       7.849   6.613  17.981  0.00  0.00    +0.000 A 
ATOM      6  C   UNL     1       6.881   7.399  17.354  0.00  0.00    +0.000 A 
ATOM      7  C   UNL     1       5.523   7.060  17.411  0.00  0.00    +0.000 A 
ATOM      8  C   UNL     1       5.180   5.904  18.126  0.00  0.00    +0.000 A 
ATOM      9  N   UNL     1       3.983   5.251  18.357  0.00  0.00    +0.000 N 
ENDROOT
BRANCH   1  15
ATOM     10  N   UNL     1       2.519   2.075  17.649  0.00  0.00    +0.000 N 
ATOM     11  C   UNL     1       2.478   2.255  18.984  0.00  0.00    +0.000 A 
ATOM     12  N   UNL     1       1.723   1.545  19.820  0.00  0.00    +0.000 NA
ATOM     13  O   UNL     1       2.010   2.045  21.083  0.00  0.00    +0.000 OA
ATOM     14  N   UNL     1       2.962   3.055  21.026  0.00  0.00    +0.000 NA
ATOM     15  C   UNL     1       3.244   3.188  19.727  0.00  0.00    +0.000 A 
ATOM     16  H   UNL     1       2.104   1.249  17.237  0.00  0.00    +0.000 HD
ATOM     17  H   UNL     1       3.252   2.524  17.101  0.00  0.00    +0.000 HD
ENDBRANCH   1  15
BRANCH   9  18
ATOM     18  C   UNL     1       2.682   5.702  17.873  0.00  0.00    +0.000 C 
BRANCH  18  19
ATOM     19  C   UNL     1       2.231   7.061  18.383  0.00  0.00    +0.000 A 
ATOM     20  C   UNL     1       2.327   8.240  17.614  0.00  0.00    +0.000 A 
ATOM     21  C   UNL     1       1.987   9.444  18.204  0.00  0.00    +0.000 A 
ATOM     22  C   UNL     1       1.585   9.525  19.514  0.00  0.00    +0.000 A 
ATOM     23  C   UNL     1       1.450   8.405  20.298  0.00  0.00    +0.000 A 
ATOM     24  C   UNL     1       1.748   7.168  19.717  0.00  0.00    +0.000 A 
ATOM     25 CL   UNL     1       1.487   5.762  20.694  0.00  0.00    +0.000 Cl
ATOM     26  O   UNL     1       1.334  10.803  19.903  0.00  0.00    +0.000 OA
ATOM     27  C   UNL     1       1.426  11.483  18.635  0.00  0.00    +0.000 C 
ATOM     28  O   UNL     1       2.006  10.663  17.598  0.00  0.00    +0.000 OA
ENDBRANCH  18  19
ENDBRANCH   9  18
TORSDOF 3
ENDMDL
MODEL 6
REMARK VINA RESULT:      -7.8      2.004      2.825
REMARK  Name = 
REMARK  3 active torsions:
REMARK  status: ('A' for Active; 'I' for Inactive)
REMARK    1  A    between atoms: C_6  and  C_7
REMARK    2  A    between atoms: N_15  and  C_16
REMARK    3  A    between atoms: C_16  and  C_17
REMARK                            x       y       z     vdW  Elec       q    Type
REMARK                         _______ _______ _______ _____ _____    ______ ____
ROOT
ATOM      1  C   UNL     1       6.905   5.747  15.854  0.00  0.00    +0.000 A 
ATOM      2  N   UNL     1       7.703   5.164  14.971  0.00  0.00    +0.000 NA
ATOM      3  C   UNL     1       6.886   4.541  14.068  0.00  0.00    +0.000 A 
ATOM      4  C   UNL     1       7.225   3.748  12.960  0.00  0.00    +0.000 A 
ATOM      5  C   UNL     1       6.200   3.242  12.152  0.00  0.00    +0.000 A 
ATOM      6  C   UNL     1       4.864   3.533  12.432  0.00  0.00    +0.000 A 
ATOM      7  C   UNL     1       4.509   4.309  13.542  0.00  0.00    +0.000 A 
ATOM      8  C   UNL     1       5.549   4.785  14.352  0.00  0.00    +0.000 A 
ATOM      9  N   UNL     1       5.580   5.523  15.521  0.00  0.00    +0.000 N 
ENDROOT
BRANCH   1  15
ATOM     10  N   UNL     1       7.792   4.701  18.650  0.00  0.00    +0.000 N 
ATOM     11  C   UNL     1       7.819   5.997  18.283  0.00  0.00    +0.000 A 
ATOM     12  N   UNL     1       8.251   6.993  19.054  0.00  0.00    +0.000 NA
ATOM     13  O   UNL     1       8.125   8.137  18.277  0.00  0.00    +0.000 OA
ATOM     14  N   UNL     1       7.629   7.841  17.013  0.00  0.00    +0.000 NA
ATOM     15  C   UNL     1       7.434   6.520  17.022  0.00  0.00    +0.000 A 
ATOM     16  H   UNL     1       8.283   4.400  19.481  0.00  0.00    +0.000 HD
ATOM     17  H   UNL     1       7.626   3.980  17.948  0.00  0.00    +0.000 HD
ENDBRANCH   1  15
BRANCH   9  18
ATOM     18  C   UNL     1       4.403   6.043  16.210  0.00  0.00    +0.000 C 
BRANCH  18  19
ATOM     19  C   UNL     1       4.051   5.348  17.515  0.00  0.00    +0.000 A 
ATOM     20  C   UNL     1       4.464   4.035  17.822  0.00  0.00    +0.000 A 
ATOM     21  C   UNL     1       4.006   3.453  18.990  0.00  0.00    +0.000 A 
ATOM     22  C   UNL     1       3.147   4.105  19.840  0.00  0.00    +0.000 A 
ATOM     23  C   UNL     1       2.734   5.393  19.601  0.00  0.00    +0.000 A 
ATOM     24  C   UNL     1       3.214   6.023  18.447  0.00  0.00    +0.000 A 
ATOM     25 CL   UNL     1       2.752   7.675  18.209  0.00  0.00    +0.000 Cl
ATOM     26  O   UNL     1       2.793   3.342  20.908  0.00  0.00    +0.000 OA
ATOM     27  C   UNL     1       3.687   2.223  20.735  0.00  0.00    +0.000 C 
ATOM     28  O   UNL     1       4.324   2.208  19.440  0.00  0.00    +0.000 OA
ENDBRANCH  18  19
ENDBRANCH   9  18
TORSDOF 3
ENDMDL
MODEL 7
REMARK VINA RESULT:      -7.7      2.700      4.249
REMARK  Name = 
REMARK  3 active torsions:
REMARK  status: ('A' for Active; 'I' for Inactive)
REMARK    1  A    between atoms: C_6  and  C_7
REMARK    2  A    between atoms: N_15  and  C_16
REMARK    3  A    between atoms: C_16  and  C_17
REMARK                            x       y       z     vdW  Elec       q    Type
REMARK                         _______ _______ _______ _____ _____    ______ ____
ROOT
ATOM      1  C   UNL     1       3.950   3.559  17.398  0.00  0.00    +0.000 A 
ATOM      2  N   UNL     1       4.368   3.092  16.231  0.00  0.00    +0.000 NA
ATOM      3  C   UNL     1       5.383   3.917  15.829  0.00  0.00    +0.000 A 
ATOM      4  C   UNL     1       6.138   3.889  14.646  0.00  0.00    +0.000 A 
ATOM      5  C   UNL     1       7.163   4.827  14.475  0.00  0.00    +0.000 A 
ATOM      6  C   UNL     1       7.440   5.766  15.470  0.00  0.00    +0.000 A 
ATOM      7  C   UNL     1       6.687   5.817  16.649  0.00  0.00    +0.000 A 
ATOM      8  C   UNL     1       5.651   4.884  16.789  0.00  0.00    +0.000 A 
ATOM      9  N   UNL     1       4.696   4.665  17.766  0.00  0.00    +0.000 N 
ENDROOT
BRANCH   1  15
ATOM     10  N   UNL     1       0.952   4.396  17.497  0.00  0.00    +0.000 N 
ATOM     11  C   UNL     1       1.469   3.351  18.173  0.00  0.00    +0.000 A 
ATOM     12  N   UNL     1       0.765   2.528  18.947  0.00  0.00    +0.000 NA
ATOM     13  O   UNL     1       1.681   1.598  19.419  0.00  0.00    +0.000 OA
ATOM     14  N   UNL     1       2.955   1.839  18.917  0.00  0.00    +0.000 NA
ATOM     15  C   UNL     1       2.822   2.927  18.154  0.00  0.00    +0.000 A 
ATOM     16  H   UNL     1      -0.051   4.490  17.400  0.00  0.00    +0.000 HD
ATOM     17  H   UNL     1       1.512   4.863  16.783  0.00  0.00    +0.000 HD
ENDBRANCH   1  15
BRANCH   9  18
ATOM     18  C   UNL     1       4.583   5.427  19.005  0.00  0.00    +0.000 C 
BRANCH  18  19
ATOM     19  C   UNL     1       3.467   6.459  19.037  0.00  0.00    +0.000 A 
ATOM     20  C   UNL     1       3.378   7.523  18.115  0.00  0.00    +0.000 A 
ATOM     21  C   UNL     1       2.384   8.468  18.290  0.00  0.00    +0.000 A 
ATOM     22  C   UNL     1       1.504   8.414  19.342  0.00  0.00    +0.000 A 
ATOM     23  C   UNL     1       1.530   7.385  20.252  0.00  0.00    +0.000 A 
ATOM     24  C   UNL     1       2.499   6.391  20.078  0.00  0.00    +0.000 A 
ATOM     25 CL   UNL     1       2.460   5.059  21.184  0.00  0.00    +0.000 Cl
ATOM     26  O   UNL     1       0.633   9.457  19.346  0.00  0.00    +0.000 OA
ATOM     27  C   UNL     1       0.936  10.054  18.069  0.00  0.00    +0.000 C 
ATOM     28  O   UNL     1       2.152   9.541  17.484  0.00  0.00    +0.000 OA
ENDBRANCH  18  19
ENDBRANCH   9  18
TORSDOF 3
ENDMDL
MODEL 8
REMARK VINA RESULT:      -7.7      3.784      6.841
REMARK  Name = 
REMARK  3 active torsions:
REMARK  status: ('A' for Active; 'I' for Inactive)
REMARK    1  A    between atoms: C_6  and  C_7
REMARK    2  A    between atoms: N_15  and  C_16
REMARK    3  A    between atoms: C_16  and  C_17
REMARK                            x       y       z     vdW  Elec       q    Type
REMARK                         _______ _______ _______ _____ _____    ______ ____
ROOT
ATOM      1  C   UNL     1       1.848   5.854  20.269  0.00  0.00    +0.000 A 
ATOM      2  N   UNL     1       1.338   6.904  20.896  0.00  0.00    +0.000 NA
ATOM      3  C   UNL     1       1.466   7.963  20.039  0.00  0.00    +0.000 A 
ATOM      4  C   UNL     1       1.122   9.310  20.231  0.00  0.00    +0.000 A 
ATOM      5  C   UNL     1       1.315  10.213  19.178  0.00  0.00    +0.000 A 
ATOM      6  C   UNL     1       1.827   9.780  17.955  0.00  0.00    +0.000 A 
ATOM      7  C   UNL     1       2.188   8.443  17.752  0.00  0.00    +0.000 A 
ATOM      8  C   UNL     1       2.010   7.560  18.826  0.00  0.00    +0.000 A 
ATOM      9  N   UNL     1       2.286   6.217  19.008  0.00  0.00    +0.000 N 
ENDROOT
BRANCH   1  15
ATOM     10  N   UNL     1       0.204   3.301  19.580  0.00  0.00    +0.000 N 
ATOM     11  C   UNL     1       1.131   3.364  20.556  0.00  0.00    +0.000 A 
ATOM     12  N   UNL     1       1.484   2.341  21.332  0.00  0.00    +0.000 NA
ATOM     13  O   UNL     1       2.473   2.841  22.168  0.00  0.00    +0.000 OA
ATOM     14  N   UNL     1       2.745   4.176  21.892  0.00  0.00    +0.000 NA
ATOM     15  C   UNL     1       1.909   4.498  20.901  0.00  0.00    +0.000 A 
ATOM     16  H   UNL     1      -0.140   2.403  19.266  0.00  0.00    +0.000 HD
ATOM     17  H   UNL     1       0.123   4.066  18.910  0.00  0.00    +0.000 HD
ENDBRANCH   1  15
BRANCH   9  18
ATOM     18  C   UNL     1       2.856   5.340  17.991  0.00  0.00    +0.000 C 
BRANCH  18  19
ATOM     19  C   UNL     1       4.353   5.098  18.101  0.00  0.00    +0.000 A 
ATOM     20  C   UNL     1       5.106   5.451  19.240  0.00  0.00    +0.000 A 
ATOM     21  C   UNL     1       6.478   5.286  19.203  0.00  0.00    +0.000 A 
ATOM     22  C   UNL     1       7.125   4.814  18.087  0.00  0.00    +0.000 A 
ATOM     23  C   UNL     1       6.437   4.432  16.961  0.00  0.00    +0.000 A 
ATOM     24  C   UNL     1       5.043   4.549  16.984  0.00  0.00    +0.000 A 
ATOM     25 CL   UNL     1       4.188   3.981  15.589  0.00  0.00    +0.000 Cl
ATOM     26  O   UNL     1       8.474   4.763  18.250  0.00  0.00    +0.000 OA
ATOM     27  C   UNL     1       8.576   5.060  19.658  0.00  0.00    +0.000 C 
ATOM     28  O   UNL     1       7.343   5.559  20.218  0.00  0.00    +0.000 OA
ENDBRANCH  18  19
ENDBRANCH   9  18
TORSDOF 3
ENDMDL
MODEL 9
REMARK VINA RESULT:      -7.6      0.755      1.245
REMARK  Name = 
REMARK  3 active torsions:
REMARK  status: ('A' for Active; 'I' for Inactive)
REMARK    1  A    between atoms: C_6  and  C_7
REMARK    2  A    between atoms: N_15  and  C_16
REMARK    3  A    between atoms: C_16  and  C_17
REMARK                            x       y       z     vdW  Elec       q    Type
REMARK                         _______ _______ _______ _____ _____    ______ ____
ROOT
ATOM      1  C   UNL     1       7.085   5.427  15.734  0.00  0.00    +0.000 A 
ATOM      2  N   UNL     1       7.686   5.685  14.581  0.00  0.00    +0.000 NA
ATOM      3  C   UNL     1       7.113   4.856  13.656  0.00  0.00    +0.000 A 
ATOM      4  C   UNL     1       7.413   4.699  12.294  0.00  0.00    +0.000 A 
ATOM      5  C   UNL     1       6.653   3.803  11.532  0.00  0.00    +0.000 A 
ATOM      6  C   UNL     1       5.605   3.088  12.113  0.00  0.00    +0.000 A 
ATOM      7  C   UNL     1       5.302   3.222  13.473  0.00  0.00    +0.000 A 
ATOM      8  C   UNL     1       6.091   4.106  14.222  0.00  0.00    +0.000 A 
ATOM      9  N   UNL     1       6.116   4.455  15.561  0.00  0.00    +0.000 N 
ENDROOT
BRANCH   1  15
ATOM     10  N   UNL     1       7.872   4.200  18.486  0.00  0.00    +0.000 N 
ATOM     11  C   UNL     1       7.802   5.523  18.239  0.00  0.00    +0.000 A 
ATOM     12  N   UNL     1       8.085   6.475  19.127  0.00  0.00    +0.000 NA
ATOM     13  O   UNL     1       7.905   7.672  18.447  0.00  0.00    +0.000 OA
ATOM     14  N   UNL     1       7.528   7.456  17.127  0.00  0.00    +0.000 NA
ATOM     15  C   UNL     1       7.457   6.128  17.003  0.00  0.00    +0.000 A 
ATOM     16  H   UNL     1       8.331   3.866  19.323  0.00  0.00    +0.000 HD
ATOM     17  H   UNL     1       7.823   3.538  17.712  0.00  0.00    +0.000 HD
ENDBRANCH   1  15
BRANCH   9  18
ATOM     18  C   UNL     1       5.202   3.937  16.574  0.00  0.00    +0.000 C 
BRANCH  18  19
ATOM     19  C   UNL     1       4.319   4.974  17.247  0.00  0.00    +0.000 A 
ATOM     20  C   UNL     1       4.095   6.259  16.709  0.00  0.00    +0.000 A 
ATOM     21  C   UNL     1       3.359   7.167  17.448  0.00  0.00    +0.000 A 
ATOM     22  C   UNL     1       2.866   6.863  18.693  0.00  0.00    +0.000 A 
ATOM     23  C   UNL     1       3.033   5.619  19.252  0.00  0.00    +0.000 A 
ATOM     24  C   UNL     1       3.738   4.666  18.509  0.00  0.00    +0.000 A 
ATOM     25 CL   UNL     1       3.863   3.080  19.193  0.00  0.00    +0.000 Cl
ATOM     26  O   UNL     1       2.205   7.907  19.259  0.00  0.00    +0.000 OA
ATOM     27  C   UNL     1       2.165   8.824  18.147  0.00  0.00    +0.000 C 
ATOM     28  O   UNL     1       3.039   8.434  17.066  0.00  0.00    +0.000 OA
ENDBRANCH  18  19
ENDBRANCH   9  18
TORSDOF 3
ENDMDL
