MODEL 1
REMARK VINA RESULT:      -8.5      0.000      0.000
REMARK  Name = 
REMARK  7 active torsions:
REMARK  status: ('A' for Active; 'I' for Inactive)
REMARK    1  A    between atoms: C_1  and  C_2
REMARK    2  A    between atoms: C_2  and  C_3
REMARK    3  A    between atoms: C_2  and  C_17
REMARK    4  A    between atoms: C_6  and  C_7
REMARK    5  A    between atoms: N_12  and  C_13
REMARK    6  A    between atoms: C_17  and  N_18
REMARK    7  A    between atoms: C_17  and  C_19
REMARK                            x       y       z     vdW  Elec       q    Type
REMARK                         _______ _______ _______ _____ _____    ______ ____
ROOT
ATOM      1  C   UNL     1       2.931   7.053  18.173  0.00  0.00    +0.000 A 
ATOM      2  C   UNL     1       2.402   8.285  17.737  0.00  0.00    +0.000 A 
ATOM      3  C   UNL     1       1.663   9.102  18.612  0.00  0.00    +0.000 A 
ATOM      4  C   UNL     1       1.438   8.699  19.924  0.00  0.00    +0.000 A 
ATOM      5  C   UNL     1       1.947   7.477  20.362  0.00  0.00    +0.000 A 
ATOM      6  C   UNL     1       2.685   6.675  19.499  0.00  0.00    +0.000 A 
ENDROOT
BRANCH   4   7
ATOM      7  C   UNL     1       0.695   9.503  20.905  0.00  0.00    +0.000 A 
ATOM      8  C   UNL     1       0.580   9.133  22.301  0.00  0.00    +0.000 A 
ATOM      9  C   UNL     1      -0.260   9.780  23.119  0.00  0.00    +0.000 A 
ATOM     10  C   UNL     1      -1.086  10.908  22.610  0.00  0.00    +0.000 A 
ATOM     11  O   UNL     1      -1.864  11.470  23.375  0.00  0.00    +0.000 OA
ATOM     12  N   UNL     1      -0.909  11.231  21.266  0.00  0.00    +0.000 N 
ATOM     13  C   UNL     1      -1.705  12.292  20.674  0.00  0.00    +0.000 C 
ATOM     14  C   UNL     1      -0.041  10.528  20.445  0.00  0.00    +0.000 A 
ENDBRANCH   4   7
BRANCH   1  16
ATOM     15  C   UNL     1       5.183   6.960  17.133  0.00  0.00    +0.000 C 
ATOM     16  C   UNL     1       3.837   6.227  17.250  0.00  0.00    +0.000 C 
BRANCH  16  17
ATOM     17  C   UNL     1       4.003   4.725  17.638  0.00  0.00    +0.000 C 
BRANCH  17  18
ATOM     18  C   UNL     1       2.696   3.963  18.028  0.00  0.00    +0.000 C 
ATOM     19  O   UNL     1       1.682   4.063  17.332  0.00  0.00    +0.000 OA
ATOM     20  N   UNL     1       2.803   3.011  19.022  0.00  0.00    +0.000 N 
ATOM     21  C   UNL     1       1.766   1.974  19.218  0.00  0.00    +0.000 C 
ATOM     22  C   UNL     1       1.402   2.669  20.530  0.00  0.00    +0.000 C 
ATOM     23  F   UNL     1       0.342   3.512  20.482  0.00  0.00    +0.000 F 
ATOM     24  C   UNL     1       2.782   3.335  20.459  0.00  0.00    +0.000 C 
ENDBRANCH  17  18
BRANCH  17  25
ATOM     25  N   UNL     1       4.676   3.885  16.608  0.00  0.00    +0.000 NA
ATOM     26  H   UNL     1       3.981   3.612  15.913  0.00  0.00    +0.000 HD
ATOM     27  H   UNL     1       4.915   2.992  17.055  0.00  0.00    +0.000 HD
ENDBRANCH  17  25
ENDBRANCH  16  17
ENDBRANCH   1  16
TORSDOF 5
ENDMDL
MODEL 2
REMARK VINA RESULT:      -8.4      2.394      3.768
REMARK  Name = 
REMARK  7 active torsions:
REMARK  status: ('A' for Active; 'I' for Inactive)
REMARK    1  A    between atoms: C_1  and  C_2
REMARK    2  A    between atoms: C_2  and  C_3
REMARK    3  A    between atoms: C_2  and  C_17
REMARK    4  A    between atoms: C_6  and  C_7
REMARK    5  A    between atoms: N_12  and  C_13
REMARK    6  A    between atoms: C_17  and  N_18
REMARK    7  A    between atoms: C_17  and  C_19
REMARK                            x       y       z     vdW  Elec       q    Type
REMARK                         _______ _______ _______ _____ _____    ______ ____
ROOT
ATOM      1  C   UNL     1       2.647   4.860  19.155  0.00  0.00    +0.000 A 
ATOM      2  C   UNL     1       2.112   4.952  20.456  0.00  0.00    +0.000 A 
ATOM      3  C   UNL     1       1.648   6.181  20.960  0.00  0.00    +0.000 A 
ATOM      4  C   UNL     1       1.715   7.329  20.177  0.00  0.00    +0.000 A 
ATOM      5  C   UNL     1       2.253   7.252  18.892  0.00  0.00    +0.000 A 
ATOM      6  C   UNL     1       2.702   6.034  18.393  0.00  0.00    +0.000 A 
ENDROOT
BRANCH   4   7
ATOM      7  C   UNL     1       1.233   8.645  20.620  0.00  0.00    +0.000 A 
ATOM      8  C   UNL     1       0.804   8.910  21.978  0.00  0.00    +0.000 A 
ATOM      9  C   UNL     1       0.192  10.058  22.296  0.00  0.00    +0.000 A 
ATOM     10  C   UNL     1      -0.047  11.096  21.257  0.00  0.00    +0.000 A 
ATOM     11  O   UNL     1      -0.629  12.130  21.571  0.00  0.00    +0.000 OA
ATOM     12  N   UNL     1       0.414  10.791  19.978  0.00  0.00    +0.000 N 
ATOM     13  C   UNL     1       0.186  11.729  18.892  0.00  0.00    +0.000 C 
ATOM     14  C   UNL     1       1.029   9.584  19.682  0.00  0.00    +0.000 A 
ENDBRANCH   4   7
BRANCH   1  16
ATOM     15  C   UNL     1       2.579   3.463  17.105  0.00  0.00    +0.000 C 
ATOM     16  C   UNL     1       3.037   3.496  18.571  0.00  0.00    +0.000 C 
BRANCH  16  17
ATOM     17  C   UNL     1       4.536   3.095  18.740  0.00  0.00    +0.000 C 
BRANCH  17  18
ATOM     18  C   UNL     1       5.570   4.266  18.730  0.00  0.00    +0.000 C 
ATOM     19  O   UNL     1       5.899   4.821  19.782  0.00  0.00    +0.000 OA
ATOM     20  N   UNL     1       6.258   4.479  17.552  0.00  0.00    +0.000 N 
ATOM     21  C   UNL     1       7.505   5.275  17.514  0.00  0.00    +0.000 C 
ATOM     22  C   UNL     1       6.730   6.343  16.743  0.00  0.00    +0.000 C 
ATOM     23  F   UNL     1       6.261   7.383  17.475  0.00  0.00    +0.000 F 
ATOM     24  C   UNL     1       5.708   5.246  16.420  0.00  0.00    +0.000 C 
ENDBRANCH  17  18
BRANCH  17  25
ATOM     25  N   UNL     1       4.834   2.295  19.961  0.00  0.00    +0.000 NA
ATOM     26  H   UNL     1       4.713   1.307  19.734  0.00  0.00    +0.000 HD
ATOM     27  H   UNL     1       4.076   2.471  20.630  0.00  0.00    +0.000 HD
ENDBRANCH  17  25
ENDBRANCH  16  17
ENDBRANCH   1  16
TORSDOF 5
ENDMDL
MODEL 3
REMARK VINA RESULT:      -8.3      2.371      3.667
REMARK  Name = 
REMARK  7 active torsions:
REMARK  status: ('A' for Active; 'I' for Inactive)
REMARK    1  A    between atoms: C_1  and  C_2
REMARK    2  A    between atoms: C_2  and  C_3
REMARK    3  A    between atoms: C_2  and  C_17
REMARK    4  A    between atoms: C_6  and  C_7
REMARK    5  A    between atoms: N_12  and  C_13
REMARK    6  A    between atoms: C_17  and  N_18
REMARK    7  A    between atoms: C_17  and  C_19
REMARK                            x       y       z     vdW  Elec       q    Type
REMARK                         _______ _______ _______ _____ _____    ______ ____
ROOT
ATOM      1  C   UNL     1       2.538   4.639  19.017  0.00  0.00    +0.000 A 
ATOM      2  C   UNL     1       2.596   5.771  18.180  0.00  0.00    +0.000 A 
ATOM      3  C   UNL     1       2.237   7.044  18.661  0.00  0.00    +0.000 A 
ATOM      4  C   UNL     1       1.813   7.200  19.977  0.00  0.00    +0.000 A 
ATOM      5  C   UNL     1       1.741   6.085  20.811  0.00  0.00    +0.000 A 
ATOM      6  C   UNL     1       2.105   4.829  20.336  0.00  0.00    +0.000 A 
ENDROOT
BRANCH   4   7
ATOM      7  C   UNL     1       1.442   8.496  20.562  0.00  0.00    +0.000 A 
ATOM      8  C   UNL     1       1.143   8.668  21.970  0.00  0.00    +0.000 A 
ATOM      9  C   UNL     1       0.623   9.813  22.430  0.00  0.00    +0.000 A 
ATOM     10  C   UNL     1       0.354  10.943  21.500  0.00  0.00    +0.000 A 
ATOM     11  O   UNL     1      -0.143  11.974  21.943  0.00  0.00    +0.000 OA
ATOM     12  N   UNL     1       0.688  10.724  20.165  0.00  0.00    +0.000 N 
ATOM     13  C   UNL     1       0.421  11.758  19.181  0.00  0.00    +0.000 C 
ATOM     14  C   UNL     1       1.211   9.518  19.723  0.00  0.00    +0.000 A 
ENDBRANCH   4   7
BRANCH   1  16
ATOM     15  C   UNL     1       2.636   3.131  17.048  0.00  0.00    +0.000 C 
ATOM     16  C   UNL     1       3.046   3.279  18.521  0.00  0.00    +0.000 C 
BRANCH  16  17
ATOM     17  C   UNL     1       4.565   3.002  18.752  0.00  0.00    +0.000 C 
BRANCH  17  18
ATOM     18  C   UNL     1       5.504   4.250  18.737  0.00  0.00    +0.000 C 
ATOM     19  O   UNL     1       5.762   4.853  19.783  0.00  0.00    +0.000 OA
ATOM     20  N   UNL     1       6.204   4.489  17.571  0.00  0.00    +0.000 N 
ATOM     21  C   UNL     1       7.386   5.379  17.544  0.00  0.00    +0.000 C 
ATOM     22  C   UNL     1       6.550   6.366  16.728  0.00  0.00    +0.000 C 
ATOM     23  F   UNL     1       5.983   7.382  17.423  0.00  0.00    +0.000 F 
ATOM     24  C   UNL     1       5.625   5.185  16.408  0.00  0.00    +0.000 C 
ENDBRANCH  17  18
BRANCH  17  25
ATOM     25  N   UNL     1       4.881   2.264  20.007  0.00  0.00    +0.000 NA
ATOM     26  H   UNL     1       4.164   2.487  20.698  0.00  0.00    +0.000 HD
ATOM     27  H   UNL     1       5.724   2.693  20.405  0.00  0.00    +0.000 HD
ENDBRANCH  17  25
ENDBRANCH  16  17
ENDBRANCH   1  16
TORSDOF 5
ENDMDL
MODEL 4
REMARK VINA RESULT:      -8.3      2.758      4.143
REMARK  Name = 
REMARK  7 active torsions:
REMARK  status: ('A' for Active; 'I' for Inactive)
REMARK    1  A    between atoms: C_1  and  C_2
REMARK    2  A    between atoms: C_2  and  C_3
REMARK    3  A    between atoms: C_2  and  C_17
REMARK    4  A    between atoms: C_6  and  C_7
REMARK    5  A    between atoms: N_12  and  C_13
REMARK    6  A    between atoms: C_17  and  N_18
REMARK    7  A    between atoms: C_17  and  C_19
REMARK                            x       y       z     vdW  Elec       q    Type
REMARK                         _______ _______ _______ _____ _____    ______ ____
ROOT
ATOM      1  C   UNL     1       2.354   6.776  19.556  0.00  0.00    +0.000 A 
ATOM      2  C   UNL     1       2.510   7.353  18.279  0.00  0.00    +0.000 A 
ATOM      3  C   UNL     1       2.041   8.652  18.012  0.00  0.00    +0.000 A 
ATOM      4  C   UNL     1       1.408   9.386  19.010  0.00  0.00    +0.000 A 
ATOM      5  C   UNL     1       1.238   8.821  20.273  0.00  0.00    +0.000 A 
ATOM      6  C   UNL     1       1.712   7.540  20.538  0.00  0.00    +0.000 A 
ENDROOT
BRANCH   4   7
ATOM      7  C   UNL     1       0.908  10.755  18.819  0.00  0.00    +0.000 A 
ATOM      8  C   UNL     1       1.769  11.865  18.461  0.00  0.00    +0.000 A 
ATOM      9  C   UNL     1       1.316  13.125  18.486  0.00  0.00    +0.000 A 
ATOM     10  C   UNL     1      -0.093  13.410  18.869  0.00  0.00    +0.000 A 
ATOM     11  O   UNL     1      -0.477  14.575  18.905  0.00  0.00    +0.000 OA
ATOM     12  N   UNL     1      -0.876  12.298  19.176  0.00  0.00    +0.000 N 
ATOM     13  C   UNL     1      -2.252  12.486  19.601  0.00  0.00    +0.000 C 
ATOM     14  C   UNL     1      -0.367  11.008  19.154  0.00  0.00    +0.000 A 
ENDBRANCH   4   7
BRANCH   1  16
ATOM     15  C   UNL     1       1.925   4.575  20.619  0.00  0.00    +0.000 C 
ATOM     16  C   UNL     1       2.976   5.410  19.872  0.00  0.00    +0.000 C 
BRANCH  16  17
ATOM     17  C   UNL     1       3.589   4.651  18.653  0.00  0.00    +0.000 C 
BRANCH  17  18
ATOM     18  C   UNL     1       5.149   4.634  18.563  0.00  0.00    +0.000 C 
ATOM     19  O   UNL     1       5.814   3.957  19.352  0.00  0.00    +0.000 OA
ATOM     20  N   UNL     1       5.714   5.204  17.440  0.00  0.00    +0.000 N 
ATOM     21  C   UNL     1       7.113   4.923  17.049  0.00  0.00    +0.000 C 
ATOM     22  C   UNL     1       7.443   6.371  17.411  0.00  0.00    +0.000 C 
ATOM     23  F   UNL     1       7.981   6.568  18.640  0.00  0.00    +0.000 F 
ATOM     24  C   UNL     1       5.940   6.652  17.293  0.00  0.00    +0.000 C 
ENDBRANCH  17  18
BRANCH  17  25
ATOM     25  N   UNL     1       3.155   3.232  18.518  0.00  0.00    +0.000 NA
ATOM     26  H   UNL     1       3.778   2.768  17.856  0.00  0.00    +0.000 HD
ATOM     27  H   UNL     1       2.257   3.237  18.021  0.00  0.00    +0.000 HD
ENDBRANCH  17  25
ENDBRANCH  16  17
ENDBRANCH   1  16
TORSDOF 5
ENDMDL
MODEL 5
REMARK VINA RESULT:      -8.3      2.759      4.160
REMARK  Name = 
REMARK  7 active torsions:
REMARK  status: ('A' for Active; 'I' for Inactive)
REMARK    1  A    between atoms: C_1  and  C_2
REMARK    2  A    between atoms: C_2  and  C_3
REMARK    3  A    between atoms: C_2  and  C_17
REMARK    4  A    between atoms: C_6  and  C_7
REMARK    5  A    between atoms: N_12  and  C_13
REMARK    6  A    between atoms: C_17  and  N_18
REMARK    7  A    between atoms: C_17  and  C_19
REMARK                            x       y       z     vdW  Elec       q    Type
REMARK                         _______ _______ _______ _____ _____    ______ ____
ROOT
ATOM      1  C   UNL     1       2.377   6.618  19.548  0.00  0.00    +0.000 A 
ATOM      2  C   UNL     1       1.746   7.328  20.589  0.00  0.00    +0.000 A 
ATOM      3  C   UNL     1       1.277   8.639  20.388  0.00  0.00    +0.000 A 
ATOM      4  C   UNL     1       1.436   9.257  19.152  0.00  0.00    +0.000 A 
ATOM      5  C   UNL     1       2.070   8.568  18.118  0.00  0.00    +0.000 A 
ATOM      6  C   UNL     1       2.524   7.269  18.316  0.00  0.00    +0.000 A 
ENDROOT
BRANCH   4   7
ATOM      7  C   UNL     1       0.957  10.614  18.854  0.00  0.00    +0.000 A 
ATOM      8  C   UNL     1       1.846  11.705  18.506  0.00  0.00    +0.000 A 
ATOM      9  C   UNL     1       1.396  12.964  18.432  0.00  0.00    +0.000 A 
ATOM     10  C   UNL     1      -0.038  13.267  18.693  0.00  0.00    +0.000 A 
ATOM     11  O   UNL     1      -0.420  14.432  18.639  0.00  0.00    +0.000 OA
ATOM     12  N   UNL     1      -0.845  12.171  18.994  0.00  0.00    +0.000 N 
ATOM     13  C   UNL     1      -2.248  12.379  19.303  0.00  0.00    +0.000 C 
ATOM     14  C   UNL     1      -0.340  10.883  19.078  0.00  0.00    +0.000 A 
ENDBRANCH   4   7
BRANCH   1  16
ATOM     15  C   UNL     1       1.522   4.375  20.180  0.00  0.00    +0.000 C 
ATOM     16  C   UNL     1       2.775   5.149  19.740  0.00  0.00    +0.000 C 
BRANCH  16  17
ATOM     17  C   UNL     1       3.497   4.483  18.526  0.00  0.00    +0.000 C 
BRANCH  17  18
ATOM     18  C   UNL     1       5.056   4.436  18.591  0.00  0.00    +0.000 C 
ATOM     19  O   UNL     1       5.628   3.731  19.428  0.00  0.00    +0.000 OA
ATOM     20  N   UNL     1       5.741   5.015  17.541  0.00  0.00    +0.000 N 
ATOM     21  C   UNL     1       7.167   4.713  17.285  0.00  0.00    +0.000 C 
ATOM     22  C   UNL     1       7.485   6.147  17.708  0.00  0.00    +0.000 C 
ATOM     23  F   UNL     1       7.902   6.311  18.987  0.00  0.00    +0.000 F 
ATOM     24  C   UNL     1       6.007   6.461  17.447  0.00  0.00    +0.000 C 
ENDBRANCH  17  18
BRANCH  17  25
ATOM     25  N   UNL     1       3.056   3.092  18.225  0.00  0.00    +0.000 NA
ATOM     26  H   UNL     1       2.036   3.075  18.208  0.00  0.00    +0.000 HD
ATOM     27  H   UNL     1       3.280   2.519  19.047  0.00  0.00    +0.000 HD
ENDBRANCH  17  25
ENDBRANCH  16  17
ENDBRANCH   1  16
TORSDOF 5
ENDMDL
MODEL 6
REMARK VINA RESULT:      -8.3      1.842      2.367
REMARK  Name = 
REMARK  7 active torsions:
REMARK  status: ('A' for Active; 'I' for Inactive)
REMARK    1  A    between atoms: C_1  and  C_2
REMARK    2  A    between atoms: C_2  and  C_3
REMARK    3  A    between atoms: C_2  and  C_17
REMARK    4  A    between atoms: C_6  and  C_7
REMARK    5  A    between atoms: N_12  and  C_13
REMARK    6  A    between atoms: C_17  and  N_18
REMARK    7  A    between atoms: C_17  and  C_19
REMARK                            x       y       z     vdW  Elec       q    Type
REMARK                         _______ _______ _______ _____ _____    ______ ____
ROOT
ATOM      1  C   UNL     1       2.661   7.452  18.618  0.00  0.00    +0.000 A 
ATOM      2  C   UNL     1       2.145   7.548  19.926  0.00  0.00    +0.000 A 
ATOM      3  C   UNL     1       1.229   8.560  20.268  0.00  0.00    +0.000 A 
ATOM      4  C   UNL     1       0.823   9.487  19.314  0.00  0.00    +0.000 A 
ATOM      5  C   UNL     1       1.335   9.408  18.020  0.00  0.00    +0.000 A 
ATOM      6  C   UNL     1       2.233   8.401  17.682  0.00  0.00    +0.000 A 
ENDROOT
BRANCH   4   7
ATOM      7  C   UNL     1      -0.145  10.560  19.585  0.00  0.00    +0.000 A 
ATOM      8  C   UNL     1      -0.118  11.359  20.794  0.00  0.00    +0.000 A 
ATOM      9  C   UNL     1      -1.124  12.190  21.093  0.00  0.00    +0.000 A 
ATOM     10  C   UNL     1      -2.289  12.322  20.176  0.00  0.00    +0.000 A 
ATOM     11  O   UNL     1      -3.208  13.076  20.484  0.00  0.00    +0.000 OA
ATOM     12  N   UNL     1      -2.240  11.548  19.018  0.00  0.00    +0.000 N 
ATOM     13  C   UNL     1      -3.354  11.583  18.087  0.00  0.00    +0.000 C 
ATOM     14  C   UNL     1      -1.189  10.686  18.749  0.00  0.00    +0.000 A 
ENDBRANCH   4   7
BRANCH   1  16
ATOM     15  C   UNL     1       4.560   6.778  17.169  0.00  0.00    +0.000 C 
ATOM     16  C   UNL     1       3.562   6.275  18.223  0.00  0.00    +0.000 C 
BRANCH  16  17
ATOM     17  C   UNL     1       4.262   5.536  19.407  0.00  0.00    +0.000 C 
BRANCH  17  18
ATOM     18  C   UNL     1       3.730   4.105  19.739  0.00  0.00    +0.000 C 
ATOM     19  O   UNL     1       4.350   3.104  19.367  0.00  0.00    +0.000 OA
ATOM     20  N   UNL     1       2.696   4.021  20.650  0.00  0.00    +0.000 N 
ATOM     21  C   UNL     1       2.363   2.750  21.331  0.00  0.00    +0.000 C 
ATOM     22  C   UNL     1       1.068   2.723  20.520  0.00  0.00    +0.000 C 
ATOM     23  F   UNL     1       1.080   1.953  19.405  0.00  0.00    +0.000 F 
ATOM     24  C   UNL     1       1.282   4.224  20.290  0.00  0.00    +0.000 C 
ENDBRANCH  17  18
BRANCH  17  25
ATOM     25  N   UNL     1       5.740   5.404  19.275  0.00  0.00    +0.000 NA
ATOM     26  H   UNL     1       6.003   4.458  19.553  0.00  0.00    +0.000 HD
ATOM     27  H   UNL     1       6.162   5.985  20.008  0.00  0.00    +0.000 HD
ENDBRANCH  17  25
ENDBRANCH  16  17
ENDBRANCH   1  16
TORSDOF 5
ENDMDL
MODEL 7
REMARK VINA RESULT:      -8.2      1.690      2.447
REMARK  Name = 
REMARK  7 active torsions:
REMARK  status: ('A' for Active; 'I' for Inactive)
REMARK    1  A    between atoms: C_1  and  C_2
REMARK    2  A    between atoms: C_2  and  C_3
REMARK    3  A    between atoms: C_2  and  C_17
REMARK    4  A    between atoms: C_6  and  C_7
REMARK    5  A    between atoms: N_12  and  C_13
REMARK    6  A    between atoms: C_17  and  N_18
REMARK    7  A    between atoms: C_17  and  C_19
REMARK                            x       y       z     vdW  Elec       q    Type
REMARK                         _______ _______ _______ _____ _____    ______ ____
ROOT
ATOM      1  C   UNL     1       2.588   7.485  18.640  0.00  0.00    +0.000 A 
ATOM      2  C   UNL     1       2.115   7.573  19.965  0.00  0.00    +0.000 A 
ATOM      3  C   UNL     1       1.221   8.591  20.346  0.00  0.00    +0.000 A 
ATOM      4  C   UNL     1       0.796   9.533  19.415  0.00  0.00    +0.000 A 
ATOM      5  C   UNL     1       1.267   9.462  18.104  0.00  0.00    +0.000 A 
ATOM      6  C   UNL     1       2.142   8.449  17.728  0.00  0.00    +0.000 A 
ENDROOT
BRANCH   4   7
ATOM      7  C   UNL     1      -0.150  10.614  19.726  0.00  0.00    +0.000 A 
ATOM      8  C   UNL     1      -0.604  11.573  18.739  0.00  0.00    +0.000 A 
ATOM      9  C   UNL     1      -1.308  12.653  19.100  0.00  0.00    +0.000 A 
ATOM     10  C   UNL     1      -1.654  12.883  20.528  0.00  0.00    +0.000 A 
ATOM     11  O   UNL     1      -2.283  13.891  20.835  0.00  0.00    +0.000 OA
ATOM     12  N   UNL     1      -1.213  11.910  21.424  0.00  0.00    +0.000 N 
ATOM     13  C   UNL     1      -1.470  12.074  22.844  0.00  0.00    +0.000 C 
ATOM     14  C   UNL     1      -0.471  10.812  21.015  0.00  0.00    +0.000 A 
ENDBRANCH   4   7
BRANCH   1  16
ATOM     15  C   UNL     1       4.419   6.800  17.111  0.00  0.00    +0.000 C 
ATOM     16  C   UNL     1       3.463   6.302  18.206  0.00  0.00    +0.000 C 
BRANCH  16  17
ATOM     17  C   UNL     1       4.206   5.555  19.357  0.00  0.00    +0.000 C 
BRANCH  17  18
ATOM     18  C   UNL     1       3.694   4.117  19.691  0.00  0.00    +0.000 C 
ATOM     19  O   UNL     1       4.292   3.125  19.265  0.00  0.00    +0.000 OA
ATOM     20  N   UNL     1       2.714   4.014  20.658  0.00  0.00    +0.000 N 
ATOM     21  C   UNL     1       2.421   2.729  21.331  0.00  0.00    +0.000 C 
ATOM     22  C   UNL     1       1.081   2.717  20.596  0.00  0.00    +0.000 C 
ATOM     23  F   UNL     1       1.030   1.969  19.467  0.00  0.00    +0.000 F 
ATOM     24  C   UNL     1       1.282   4.223  20.384  0.00  0.00    +0.000 C 
ENDBRANCH  17  18
BRANCH  17  25
ATOM     25  N   UNL     1       5.680   5.434  19.174  0.00  0.00    +0.000 NA
ATOM     26  H   UNL     1       5.905   5.694  18.213  0.00  0.00    +0.000 HD
ATOM     27  H   UNL     1       5.906   4.434  19.200  0.00  0.00    +0.000 HD
ENDBRANCH  17  25
ENDBRANCH  16  17
ENDBRANCH   1  16
TORSDOF 5
ENDMDL
MODEL 8
REMARK VINA RESULT:      -8.2      1.090      1.769
REMARK  Name = 
REMARK  7 active torsions:
REMARK  status: ('A' for Active; 'I' for Inactive)
REMARK    1  A    between atoms: C_1  and  C_2
REMARK    2  A    between atoms: C_2  and  C_3
REMARK    3  A    between atoms: C_2  and  C_17
REMARK    4  A    between atoms: C_6  and  C_7
REMARK    5  A    between atoms: N_12  and  C_13
REMARK    6  A    between atoms: C_17  and  N_18
REMARK    7  A    between atoms: C_17  and  C_19
REMARK                            x       y       z     vdW  Elec       q    Type
REMARK                         _______ _______ _______ _____ _____    ______ ____
ROOT
ATOM      1  C   UNL     1       3.762   6.378  18.382  0.00  0.00    +0.000 A 
ATOM      2  C   UNL     1       3.459   7.437  17.502  0.00  0.00    +0.000 A 
ATOM      3  C   UNL     1       2.498   8.406  17.844  0.00  0.00    +0.000 A 
ATOM      4  C   UNL     1       1.826   8.328  19.060  0.00  0.00    +0.000 A 
ATOM      5  C   UNL     1       2.110   7.278  19.933  0.00  0.00    +0.000 A 
ATOM      6  C   UNL     1       3.067   6.327  19.597  0.00  0.00    +0.000 A 
ENDROOT
BRANCH   4   7
ATOM      7  C   UNL     1       0.826   9.310  19.500  0.00  0.00    +0.000 A 
ATOM      8  C   UNL     1       0.303  10.346  18.632  0.00  0.00    +0.000 A 
ATOM      9  C   UNL     1      -0.456  11.336  19.119  0.00  0.00    +0.000 A 
ATOM     10  C   UNL     1      -0.792  11.383  20.568  0.00  0.00    +0.000 A 
ATOM     11  O   UNL     1      -1.472  12.313  20.992  0.00  0.00    +0.000 OA
ATOM     12  N   UNL     1      -0.281  10.343  21.343  0.00  0.00    +0.000 N 
ATOM     13  C   UNL     1      -0.524  10.333  22.775  0.00  0.00    +0.000 C 
ATOM     14  C   UNL     1       0.515   9.344  20.806  0.00  0.00    +0.000 A 
ENDBRANCH   4   7
BRANCH   1  16
ATOM     15  C   UNL     1       5.771   5.254  19.310  0.00  0.00    +0.000 C 
ATOM     16  C   UNL     1       4.895   5.398  18.055  0.00  0.00    +0.000 C 
BRANCH  16  17
ATOM     17  C   UNL     1       4.447   4.019  17.475  0.00  0.00    +0.000 C 
BRANCH  17  18
ATOM     18  C   UNL     1       3.006   3.548  17.848  0.00  0.00    +0.000 C 
ATOM     19  O   UNL     1       2.056   3.780  17.094  0.00  0.00    +0.000 OA
ATOM     20  N   UNL     1       2.891   2.675  18.911  0.00  0.00    +0.000 N 
ATOM     21  C   UNL     1       1.669   1.868  19.125  0.00  0.00    +0.000 C 
ATOM     22  C   UNL     1       1.394   2.721  20.363  0.00  0.00    +0.000 C 
ATOM     23  F   UNL     1       0.516   3.741  20.199  0.00  0.00    +0.000 F 
ATOM     24  C   UNL     1       2.877   3.111  20.319  0.00  0.00    +0.000 C 
ENDBRANCH  17  18
BRANCH  17  25
ATOM     25  N   UNL     1       4.546   3.904  15.993  0.00  0.00    +0.000 NA
ATOM     26  H   UNL     1       4.835   4.810  15.620  0.00  0.00    +0.000 HD
ATOM     27  H   UNL     1       3.591   3.802  15.633  0.00  0.00    +0.000 HD
ENDBRANCH  17  25
ENDBRANCH  16  17
ENDBRANCH   1  16
TORSDOF 5
ENDMDL
MODEL 9
REMARK VINA RESULT:      -8.1      2.398      3.947
REMARK  Name = 
REMARK  7 active torsions:
REMARK  status: ('A' for Active; 'I' for Inactive)
REMARK    1  A    between atoms: C_1  and  C_2
REMARK    2  A    between atoms: C_2  and  C_3
REMARK    3  A    between atoms: C_2  and  C_17
REMARK    4  A    between atoms: C_6  and  C_7
REMARK    5  A    between atoms: N_12  and  C_13
REMARK    6  A    between atoms: C_17  and  N_18
REMARK    7  A    between atoms: C_17  and  C_19
REMARK                            x       y       z     vdW  Elec       q    Type
REMARK                         _______ _______ _______ _____ _____    ______ ____
ROOT
ATOM      1  C   UNL     1       2.668   4.821  19.083  0.00  0.00    +0.000 A 
ATOM      2  C   UNL     1       2.125   4.979  20.374  0.00  0.00    +0.000 A 
ATOM      3  C   UNL     1       1.620   6.222  20.798  0.00  0.00    +0.000 A 
ATOM      4  C   UNL     1       1.656   7.320  19.943  0.00  0.00    +0.000 A 
ATOM      5  C   UNL     1       2.201   7.177  18.667  0.00  0.00    +0.000 A 
ATOM      6  C   UNL     1       2.691   5.944  18.248  0.00  0.00    +0.000 A 
ENDROOT
BRANCH   4   7
ATOM      7  C   UNL     1       1.132   8.645  20.300  0.00  0.00    +0.000 A 
ATOM      8  C   UNL     1       1.402   9.836  19.519  0.00  0.00    +0.000 A 
ATOM      9  C   UNL     1       1.072  11.050  19.977  0.00  0.00    +0.000 A 
ATOM     10  C   UNL     1       0.405  11.200  21.298  0.00  0.00    +0.000 A 
ATOM     11  O   UNL     1       0.133  12.326  21.704  0.00  0.00    +0.000 OA
ATOM     12  N   UNL     1       0.149  10.016  21.987  0.00  0.00    +0.000 N 
ATOM     13  C   UNL     1      -0.462  10.071  23.304  0.00  0.00    +0.000 C 
ATOM     14  C   UNL     1       0.519   8.776  21.488  0.00  0.00    +0.000 A 
ENDBRANCH   4   7
BRANCH   1  16
ATOM     15  C   UNL     1       2.643   3.290  17.129  0.00  0.00    +0.000 C 
ATOM     16  C   UNL     1       3.102   3.435  18.588  0.00  0.00    +0.000 C 
BRANCH  16  17
ATOM     17  C   UNL     1       4.614   3.096  18.778  0.00  0.00    +0.000 C 
BRANCH  17  18
ATOM     18  C   UNL     1       5.601   4.306  18.760  0.00  0.00    +0.000 C 
ATOM     19  O   UNL     1       5.893   4.893  19.807  0.00  0.00    +0.000 OA
ATOM     20  N   UNL     1       6.297   4.525  17.588  0.00  0.00    +0.000 N 
ATOM     21  C   UNL     1       7.513   5.369  17.553  0.00  0.00    +0.000 C 
ATOM     22  C   UNL     1       6.707   6.391  16.751  0.00  0.00    +0.000 C 
ATOM     23  F   UNL     1       6.188   7.425  17.457  0.00  0.00    +0.000 F 
ATOM     24  C   UNL     1       5.734   5.249  16.435  0.00  0.00    +0.000 C 
ENDBRANCH  17  18
BRANCH  17  25
ATOM     25  N   UNL     1       4.931   2.326  20.014  0.00  0.00    +0.000 NA
ATOM     26  H   UNL     1       5.339   1.432  19.738  0.00  0.00    +0.000 HD
ATOM     27  H   UNL     1       4.037   2.050  20.435  0.00  0.00    +0.000 HD
ENDBRANCH  17  25
ENDBRANCH  16  17
ENDBRANCH   1  16
TORSDOF 5
ENDMDL
