MODEL 1
REMARK VINA RESULT:      -6.7      0.000      0.000
REMARK  Name = 
REMARK  8 active torsions:
REMARK  status: ('A' for Active; 'I' for Inactive)
REMARK    1  A    between atoms: C_1  and  C_2
REMARK    2  A    between atoms: C_2  and  C_3
REMARK    3  A    between atoms: C_2  and  C_4
REMARK    4  A    between atoms: C_2  and  C_5
REMARK    5  A    between atoms: C_8  and  N_9
REMARK    6  A    between atoms: N_12  and  C_13
REMARK    7  A    between atoms: C_13  and  C_14
REMARK    8  A    between atoms: C_14  and  C_15
REMARK                            x       y       z     vdW  Elec       q    Type
REMARK                         _______ _______ _______ _____ _____    ______ ____
ROOT
ATOM      1  C   UNL     1       3.130   4.221  19.332  0.00  0.00    +0.000 A 
ATOM      2  C   UNL     1       4.376   4.799  19.608  0.00  0.00    +0.000 A 
ATOM      3  C   UNL     1       5.412   4.786  18.671  0.00  0.00    +0.000 A 
ATOM      4  C   UNL     1       5.249   4.193  17.422  0.00  0.00    +0.000 A 
ATOM      5  C   UNL     1       4.012   3.623  17.117  0.00  0.00    +0.000 A 
ATOM      6  C   UNL     1       2.973   3.626  18.066  0.00  0.00    +0.000 A 
ENDROOT
BRANCH   4   7
ATOM      7  N   UNL     1       6.284   4.156  16.460  0.00  0.00    +0.000 N 
ATOM      8  C   UNL     1       6.296   4.893  15.294  0.00  0.00    +0.000 C 
ATOM      9  O   UNL     1       5.499   5.770  14.980  0.00  0.00    +0.000 OA
ATOM     10  N   UNL     1       7.359   4.558  14.481  0.00  0.00    +0.000 N 
ATOM     11  H   UNL     1       7.164   3.757  16.746  0.00  0.00    +0.000 HD
ATOM     12  H   UNL     1       7.706   3.613  14.571  0.00  0.00    +0.000 HD
BRANCH  10  13
ATOM     13  C   UNL     1       7.477   5.201  13.183  0.00  0.00    +0.000 C 
BRANCH  13  14
ATOM     14  C   UNL     1       7.214   4.232  12.031  0.00  0.00    +0.000 C 
BRANCH  14  15
ATOM     15  C   UNL     1       6.172   3.193  12.418  0.00  0.00    +0.000 C 
ATOM     16 CL   UNL     1       4.619   3.529  11.620  0.00  0.00    +0.000 Cl
ENDBRANCH  14  15
ENDBRANCH  13  14
ENDBRANCH  10  13
ENDBRANCH   4   7
BRANCH   1  18
ATOM     17  C   UNL     1       2.353   3.597  21.711  0.00  0.00    +0.000 C 
ATOM     18  C   UNL     1       1.981   4.248  20.357  0.00  0.00    +0.000 C 
ATOM     19  C   UNL     1       0.754   3.491  19.808  0.00  0.00    +0.000 C 
ATOM     20  C   UNL     1       1.580   5.709  20.655  0.00  0.00    +0.000 C 
ENDBRANCH   1  18
TORSDOF 5
ENDMDL
MODEL 2
REMARK VINA RESULT:      -6.6      0.556      1.175
REMARK  Name = 
REMARK  8 active torsions:
REMARK  status: ('A' for Active; 'I' for Inactive)
REMARK    1  A    between atoms: C_1  and  C_2
REMARK    2  A    between atoms: C_2  and  C_3
REMARK    3  A    between atoms: C_2  and  C_4
REMARK    4  A    between atoms: C_2  and  C_5
REMARK    5  A    between atoms: C_8  and  N_9
REMARK    6  A    between atoms: N_12  and  C_13
REMARK    7  A    between atoms: C_13  and  C_14
REMARK    8  A    between atoms: C_14  and  C_15
REMARK                            x       y       z     vdW  Elec       q    Type
REMARK                         _______ _______ _______ _____ _____    ______ ____
ROOT
ATOM      1  C   UNL     1       3.064   4.021  19.359  0.00  0.00    +0.000 A 
ATOM      2  C   UNL     1       4.179   4.848  19.546  0.00  0.00    +0.000 A 
ATOM      3  C   UNL     1       5.230   4.880  18.627  0.00  0.00    +0.000 A 
ATOM      4  C   UNL     1       5.214   4.085  17.484  0.00  0.00    +0.000 A 
ATOM      5  C   UNL     1       4.107   3.262  17.266  0.00  0.00    +0.000 A 
ATOM      6  C   UNL     1       3.054   3.222  18.199  0.00  0.00    +0.000 A 
ENDROOT
BRANCH   4   7
ATOM      7  N   UNL     1       6.269   4.089  16.544  0.00  0.00    +0.000 N 
ATOM      8  C   UNL     1       6.276   4.828  15.378  0.00  0.00    +0.000 C 
ATOM      9  O   UNL     1       5.452   5.672  15.048  0.00  0.00    +0.000 OA
ATOM     10  N   UNL     1       7.368   4.534  14.587  0.00  0.00    +0.000 N 
ATOM     11  H   UNL     1       7.158   3.724  16.848  0.00  0.00    +0.000 HD
ATOM     12  H   UNL     1       7.749   3.604  14.684  0.00  0.00    +0.000 HD
BRANCH  10  13
ATOM     13  C   UNL     1       7.487   5.183  13.292  0.00  0.00    +0.000 C 
BRANCH  13  14
ATOM     14  C   UNL     1       7.211   4.223  12.136  0.00  0.00    +0.000 C 
BRANCH  14  15
ATOM     15  C   UNL     1       5.982   3.370  12.416  0.00  0.00    +0.000 C 
ATOM     16 CL   UNL     1       5.987   1.906  11.407  0.00  0.00    +0.000 Cl
ENDBRANCH  14  15
ENDBRANCH  13  14
ENDBRANCH  10  13
ENDBRANCH   4   7
BRANCH   1  18
ATOM     17  C   UNL     1       0.627   3.306  19.807  0.00  0.00    +0.000 C 
ATOM     18  C   UNL     1       1.897   3.996  20.362  0.00  0.00    +0.000 C 
ATOM     19  C   UNL     1       1.497   5.432  20.759  0.00  0.00    +0.000 C 
ATOM     20  C   UNL     1       2.312   3.220  21.630  0.00  0.00    +0.000 C 
ENDBRANCH   1  18
TORSDOF 5
ENDMDL
MODEL 3
REMARK VINA RESULT:      -6.6      0.596      1.603
REMARK  Name = 
REMARK  8 active torsions:
REMARK  status: ('A' for Active; 'I' for Inactive)
REMARK    1  A    between atoms: C_1  and  C_2
REMARK    2  A    between atoms: C_2  and  C_3
REMARK    3  A    between atoms: C_2  and  C_4
REMARK    4  A    between atoms: C_2  and  C_5
REMARK    5  A    between atoms: C_8  and  N_9
REMARK    6  A    between atoms: N_12  and  C_13
REMARK    7  A    between atoms: C_13  and  C_14
REMARK    8  A    between atoms: C_14  and  C_15
REMARK                            x       y       z     vdW  Elec       q    Type
REMARK                         _______ _______ _______ _____ _____    ______ ____
ROOT
ATOM      1  C   UNL     1       2.757   3.999  19.326  0.00  0.00    +0.000 A 
ATOM      2  C   UNL     1       2.377   3.825  17.990  0.00  0.00    +0.000 A 
ATOM      3  C   UNL     1       3.322   3.649  16.976  0.00  0.00    +0.000 A 
ATOM      4  C   UNL     1       4.686   3.644  17.254  0.00  0.00    +0.000 A 
ATOM      5  C   UNL     1       5.091   3.800  18.581  0.00  0.00    +0.000 A 
ATOM      6  C   UNL     1       4.139   3.989  19.599  0.00  0.00    +0.000 A 
ENDROOT
BRANCH   4   7
ATOM      7  N   UNL     1       5.663   3.479  16.246  0.00  0.00    +0.000 N 
ATOM      8  C   UNL     1       5.981   4.432  15.301  0.00  0.00    +0.000 C 
ATOM      9  O   UNL     1       5.573   5.587  15.267  0.00  0.00    +0.000 OA
ATOM     10  N   UNL     1       6.870   3.951  14.361  0.00  0.00    +0.000 N 
ATOM     11  H   UNL     1       6.324   2.728  16.365  0.00  0.00    +0.000 HD
ATOM     12  H   UNL     1       6.841   2.956  14.191  0.00  0.00    +0.000 HD
BRANCH  10  13
ATOM     13  C   UNL     1       7.256   4.815  13.258  0.00  0.00    +0.000 C 
BRANCH  13  14
ATOM     14  C   UNL     1       6.972   4.179  11.898  0.00  0.00    +0.000 C 
BRANCH  14  15
ATOM     15  C   UNL     1       6.055   2.973  12.040  0.00  0.00    +0.000 C 
ATOM     16 CL   UNL     1       4.400   3.375  11.529  0.00  0.00    +0.000 Cl
ENDBRANCH  14  15
ENDBRANCH  13  14
ENDBRANCH  10  13
ENDBRANCH   4   7
BRANCH   1  18
ATOM     17  C   UNL     1       1.314   5.653  20.680  0.00  0.00    +0.000 C 
ATOM     18  C   UNL     1       1.717   4.177  20.448  0.00  0.00    +0.000 C 
ATOM     19  C   UNL     1       2.271   3.641  21.784  0.00  0.00    +0.000 C 
ATOM     20  C   UNL     1       0.427   3.408  20.092  0.00  0.00    +0.000 C 
ENDBRANCH   1  18
TORSDOF 5
ENDMDL
MODEL 4
REMARK VINA RESULT:      -6.5      0.742      1.680
REMARK  Name = 
REMARK  8 active torsions:
REMARK  status: ('A' for Active; 'I' for Inactive)
REMARK    1  A    between atoms: C_1  and  C_2
REMARK    2  A    between atoms: C_2  and  C_3
REMARK    3  A    between atoms: C_2  and  C_4
REMARK    4  A    between atoms: C_2  and  C_5
REMARK    5  A    between atoms: C_8  and  N_9
REMARK    6  A    between atoms: N_12  and  C_13
REMARK    7  A    between atoms: C_13  and  C_14
REMARK    8  A    between atoms: C_14  and  C_15
REMARK                            x       y       z     vdW  Elec       q    Type
REMARK                         _______ _______ _______ _____ _____    ______ ____
ROOT
ATOM      1  C   UNL     1       2.847   3.965  19.327  0.00  0.00    +0.000 A 
ATOM      2  C   UNL     1       2.522   3.669  17.997  0.00  0.00    +0.000 A 
ATOM      3  C   UNL     1       3.504   3.559  17.010  0.00  0.00    +0.000 A 
ATOM      4  C   UNL     1       4.851   3.744  17.309  0.00  0.00    +0.000 A 
ATOM      5  C   UNL     1       5.203   4.026  18.630  0.00  0.00    +0.000 A 
ATOM      6  C   UNL     1       4.212   4.148  19.621  0.00  0.00    +0.000 A 
ENDROOT
BRANCH   4   7
ATOM      7  N   UNL     1       5.864   3.649  16.327  0.00  0.00    +0.000 N 
ATOM      8  C   UNL     1       6.017   4.526  15.273  0.00  0.00    +0.000 C 
ATOM      9  O   UNL     1       5.399   5.570  15.100  0.00  0.00    +0.000 OA
ATOM     10  N   UNL     1       7.001   4.115  14.397  0.00  0.00    +0.000 N 
ATOM     11  H   UNL     1       6.653   3.058  16.536  0.00  0.00    +0.000 HD
ATOM     12  H   UNL     1       7.165   3.119  14.350  0.00  0.00    +0.000 HD
BRANCH  10  13
ATOM     13  C   UNL     1       7.241   4.899  13.197  0.00  0.00    +0.000 C 
BRANCH  13  14
ATOM     14  C   UNL     1       7.003   4.092  11.922  0.00  0.00    +0.000 C 
BRANCH  14  15
ATOM     15  C   UNL     1       5.795   3.179  12.071  0.00  0.00    +0.000 C 
ATOM     16 CL   UNL     1       6.087   1.613  11.282  0.00  0.00    +0.000 Cl
ENDBRANCH  14  15
ENDBRANCH  13  14
ENDBRANCH  10  13
ENDBRANCH   4   7
BRANCH   1  18
ATOM     17  C   UNL     1       0.419   3.430  20.012  0.00  0.00    +0.000 C 
ATOM     18  C   UNL     1       1.768   4.071  20.420  0.00  0.00    +0.000 C 
ATOM     19  C   UNL     1       1.486   5.550  20.757  0.00  0.00    +0.000 C 
ATOM     20  C   UNL     1       2.243   3.345  21.697  0.00  0.00    +0.000 C 
ENDBRANCH   1  18
TORSDOF 5
ENDMDL
MODEL 5
REMARK VINA RESULT:      -6.4      1.176      1.296
REMARK  Name = 
REMARK  8 active torsions:
REMARK  status: ('A' for Active; 'I' for Inactive)
REMARK    1  A    between atoms: C_1  and  C_2
REMARK    2  A    between atoms: C_2  and  C_3
REMARK    3  A    between atoms: C_2  and  C_4
REMARK    4  A    between atoms: C_2  and  C_5
REMARK    5  A    between atoms: C_8  and  N_9
REMARK    6  A    between atoms: N_12  and  C_13
REMARK    7  A    between atoms: C_13  and  C_14
REMARK    8  A    between atoms: C_14  and  C_15
REMARK                            x       y       z     vdW  Elec       q    Type
REMARK                         _______ _______ _______ _____ _____    ______ ____
ROOT
ATOM      1  C   UNL     1       2.942   4.035  19.346  0.00  0.00    +0.000 A 
ATOM      2  C   UNL     1       3.973   4.957  19.127  0.00  0.00    +0.000 A 
ATOM      3  C   UNL     1       4.899   4.788  18.095  0.00  0.00    +0.000 A 
ATOM      4  C   UNL     1       4.837   3.689  17.242  0.00  0.00    +0.000 A 
ATOM      5  C   UNL     1       3.809   2.763  17.430  0.00  0.00    +0.000 A 
ATOM      6  C   UNL     1       2.884   2.929  18.477  0.00  0.00    +0.000 A 
ENDROOT
BRANCH   4   7
ATOM      7  N   UNL     1       5.768   3.488  16.197  0.00  0.00    +0.000 N 
ATOM      8  C   UNL     1       5.632   3.991  14.920  0.00  0.00    +0.000 C 
ATOM      9  O   UNL     1       4.776   4.779  14.536  0.00  0.00    +0.000 OA
ATOM     10  N   UNL     1       6.617   3.525  14.073  0.00  0.00    +0.000 N 
ATOM     11  H   UNL     1       6.686   3.165  16.456  0.00  0.00    +0.000 HD
ATOM     12  H   UNL     1       7.005   2.621  14.300  0.00  0.00    +0.000 HD
BRANCH  10  13
ATOM     13  C   UNL     1       6.577   3.913  12.673  0.00  0.00    +0.000 C 
BRANCH  13  14
ATOM     14  C   UNL     1       5.396   3.286  11.933  0.00  0.00    +0.000 C 
BRANCH  14  15
ATOM     15  C   UNL     1       5.746   1.895  11.427  0.00  0.00    +0.000 C 
ATOM     16 CL   UNL     1       7.469   1.793  10.999  0.00  0.00    +0.000 Cl
ENDBRANCH  14  15
ENDBRANCH  13  14
ENDBRANCH  10  13
ENDBRANCH   4   7
BRANCH   1  18
ATOM     17  C   UNL     1       2.328   3.565  21.806  0.00  0.00    +0.000 C 
ATOM     18  C   UNL     1       1.909   4.228  20.472  0.00  0.00    +0.000 C 
ATOM     19  C   UNL     1       0.551   3.618  20.067  0.00  0.00    +0.000 C 
ATOM     20  C   UNL     1       1.720   5.733  20.757  0.00  0.00    +0.000 C 
ENDBRANCH   1  18
TORSDOF 5
ENDMDL
MODEL 6
REMARK VINA RESULT:      -6.4      0.831      1.455
REMARK  Name = 
REMARK  8 active torsions:
REMARK  status: ('A' for Active; 'I' for Inactive)
REMARK    1  A    between atoms: C_1  and  C_2
REMARK    2  A    between atoms: C_2  and  C_3
REMARK    3  A    between atoms: C_2  and  C_4
REMARK    4  A    between atoms: C_2  and  C_5
REMARK    5  A    between atoms: C_8  and  N_9
REMARK    6  A    between atoms: N_12  and  C_13
REMARK    7  A    between atoms: C_13  and  C_14
REMARK    8  A    between atoms: C_14  and  C_15
REMARK                            x       y       z     vdW  Elec       q    Type
REMARK                         _______ _______ _______ _____ _____    ______ ____
ROOT
ATOM      1  C   UNL     1       3.015   3.948  19.254  0.00  0.00    +0.000 A 
ATOM      2  C   UNL     1       2.780   3.142  18.133  0.00  0.00    +0.000 A 
ATOM      3  C   UNL     1       3.722   3.018  17.110  0.00  0.00    +0.000 A 
ATOM      4  C   UNL     1       4.936   3.697  17.160  0.00  0.00    +0.000 A 
ATOM      5  C   UNL     1       5.202   4.496  18.274  0.00  0.00    +0.000 A 
ATOM      6  C   UNL     1       4.247   4.629  19.299  0.00  0.00    +0.000 A 
ENDROOT
BRANCH   4   7
ATOM      7  N   UNL     1       5.902   3.598  16.133  0.00  0.00    +0.000 N 
ATOM      8  C   UNL     1       5.699   3.994  14.827  0.00  0.00    +0.000 C 
ATOM      9  O   UNL     1       4.725   4.598  14.393  0.00  0.00    +0.000 OA
ATOM     10  N   UNL     1       6.762   3.656  14.013  0.00  0.00    +0.000 N 
ATOM     11  H   UNL     1       6.859   3.455  16.413  0.00  0.00    +0.000 HD
ATOM     12  H   UNL     1       7.297   2.848  14.296  0.00  0.00    +0.000 HD
BRANCH  10  13
ATOM     13  C   UNL     1       6.674   3.948  12.592  0.00  0.00    +0.000 C 
BRANCH  13  14
ATOM     14  C   UNL     1       6.845   2.696  11.733  0.00  0.00    +0.000 C 
BRANCH  14  15
ATOM     15  C   UNL     1       5.497   2.087  11.380  0.00  0.00    +0.000 C 
ATOM     16 CL   UNL     1       4.238   3.341  11.305  0.00  0.00    +0.000 Cl
ENDBRANCH  14  15
ENDBRANCH  13  14
ENDBRANCH  10  13
ENDBRANCH   4   7
BRANCH   1  18
ATOM     17  C   UNL     1       2.413   3.342  21.688  0.00  0.00    +0.000 C 
ATOM     18  C   UNL     1       1.986   4.073  20.392  0.00  0.00    +0.000 C 
ATOM     19  C   UNL     1       0.630   3.477  19.959  0.00  0.00    +0.000 C 
ATOM     20  C   UNL     1       1.788   5.559  20.758  0.00  0.00    +0.000 C 
ENDBRANCH   1  18
TORSDOF 5
ENDMDL
MODEL 7
REMARK VINA RESULT:      -6.2      1.316      1.706
REMARK  Name = 
REMARK  8 active torsions:
REMARK  status: ('A' for Active; 'I' for Inactive)
REMARK    1  A    between atoms: C_1  and  C_2
REMARK    2  A    between atoms: C_2  and  C_3
REMARK    3  A    between atoms: C_2  and  C_4
REMARK    4  A    between atoms: C_2  and  C_5
REMARK    5  A    between atoms: C_8  and  N_9
REMARK    6  A    between atoms: N_12  and  C_13
REMARK    7  A    between atoms: C_13  and  C_14
REMARK    8  A    between atoms: C_14  and  C_15
REMARK                            x       y       z     vdW  Elec       q    Type
REMARK                         _______ _______ _______ _____ _____    ______ ____
ROOT
ATOM      1  C   UNL     1       3.004   4.171  19.220  0.00  0.00    +0.000 A 
ATOM      2  C   UNL     1       3.177   2.907  18.643  0.00  0.00    +0.000 A 
ATOM      3  C   UNL     1       4.103   2.689  17.620  0.00  0.00    +0.000 A 
ATOM      4  C   UNL     1       4.891   3.725  17.127  0.00  0.00    +0.000 A 
ATOM      5  C   UNL     1       4.748   4.993  17.694  0.00  0.00    +0.000 A 
ATOM      6  C   UNL     1       3.807   5.213  18.717  0.00  0.00    +0.000 A 
ENDROOT
BRANCH   4   7
ATOM      7  N   UNL     1       5.826   3.535  16.084  0.00  0.00    +0.000 N 
ATOM      8  C   UNL     1       5.645   3.957  14.783  0.00  0.00    +0.000 C 
ATOM      9  O   UNL     1       4.731   4.658  14.366  0.00  0.00    +0.000 OA
ATOM     10  N   UNL     1       6.656   3.518  13.952  0.00  0.00    +0.000 N 
ATOM     11  H   UNL     1       6.768   3.294  16.350  0.00  0.00    +0.000 HD
ATOM     12  H   UNL     1       7.110   2.657  14.223  0.00  0.00    +0.000 HD
BRANCH  10  13
ATOM     13  C   UNL     1       6.577   3.824  12.534  0.00  0.00    +0.000 C 
BRANCH  13  14
ATOM     14  C   UNL     1       5.858   2.732  11.745  0.00  0.00    +0.000 C 
BRANCH  14  15
ATOM     15  C   UNL     1       6.841   1.691  11.231  0.00  0.00    +0.000 C 
ATOM     16 CL   UNL     1       6.101   0.075  11.216  0.00  0.00    +0.000 Cl
ENDBRANCH  14  15
ENDBRANCH  13  14
ENDBRANCH  10  13
ENDBRANCH   4   7
BRANCH   1  18
ATOM     17  C   UNL     1       2.441   3.796  21.709  0.00  0.00    +0.000 C 
ATOM     18  C   UNL     1       1.996   4.411  20.359  0.00  0.00    +0.000 C 
ATOM     19  C   UNL     1       0.628   3.792  20.006  0.00  0.00    +0.000 C 
ATOM     20  C   UNL     1       1.819   5.926  20.592  0.00  0.00    +0.000 C 
ENDBRANCH   1  18
TORSDOF 5
ENDMDL
MODEL 8
REMARK VINA RESULT:      -6.1      4.618      6.582
REMARK  Name = 
REMARK  8 active torsions:
REMARK  status: ('A' for Active; 'I' for Inactive)
REMARK    1  A    between atoms: C_1  and  C_2
REMARK    2  A    between atoms: C_2  and  C_3
REMARK    3  A    between atoms: C_2  and  C_4
REMARK    4  A    between atoms: C_2  and  C_5
REMARK    5  A    between atoms: C_8  and  N_9
REMARK    6  A    between atoms: N_12  and  C_13
REMARK    7  A    between atoms: C_13  and  C_14
REMARK    8  A    between atoms: C_14  and  C_15
REMARK                            x       y       z     vdW  Elec       q    Type
REMARK                         _______ _______ _______ _____ _____    ______ ____
ROOT
ATOM      1  C   UNL     1       0.740   9.804  19.347  0.00  0.00    +0.000 A 
ATOM      2  C   UNL     1       1.271   9.553  18.075  0.00  0.00    +0.000 A 
ATOM      3  C   UNL     1       2.094   8.451  17.830  0.00  0.00    +0.000 A 
ATOM      4  C   UNL     1       2.424   7.557  18.844  0.00  0.00    +0.000 A 
ATOM      5  C   UNL     1       1.895   7.776  20.117  0.00  0.00    +0.000 A 
ATOM      6  C   UNL     1       1.075   8.892  20.366  0.00  0.00    +0.000 A 
ENDROOT
BRANCH   4   7
ATOM      7  N   UNL     1       3.263   6.441  18.626  0.00  0.00    +0.000 N 
ATOM      8  C   UNL     1       2.835   5.224  18.137  0.00  0.00    +0.000 C 
ATOM      9  O   UNL     1       1.719   4.966  17.702  0.00  0.00    +0.000 OA
ATOM     10  N   UNL     1       3.840   4.277  18.155  0.00  0.00    +0.000 N 
ATOM     11  H   UNL     1       4.256   6.610  18.599  0.00  0.00    +0.000 HD
ATOM     12  H   UNL     1       4.551   4.399  18.862  0.00  0.00    +0.000 HD
BRANCH  10  13
ATOM     13  C   UNL     1       3.531   2.922  17.730  0.00  0.00    +0.000 C 
BRANCH  13  14
ATOM     14  C   UNL     1       3.222   2.003  18.911  0.00  0.00    +0.000 C 
BRANCH  14  15
ATOM     15  C   UNL     1       1.722   1.895  19.141  0.00  0.00    +0.000 C 
ATOM     16 CL   UNL     1       1.216   2.923  20.500  0.00  0.00    +0.000 Cl
ENDBRANCH  14  15
ENDBRANCH  13  14
ENDBRANCH  10  13
ENDBRANCH   4   7
BRANCH   1  18
ATOM     17  C   UNL     1      -1.524  10.936  18.849  0.00  0.00    +0.000 C 
ATOM     18  C   UNL     1      -0.181  11.008  19.616  0.00  0.00    +0.000 C 
ATOM     19  C   UNL     1       0.513  12.321  19.197  0.00  0.00    +0.000 C 
ATOM     20  C   UNL     1      -0.525  11.078  21.119  0.00  0.00    +0.000 C 
ENDBRANCH   1  18
TORSDOF 5
ENDMDL
MODEL 9
REMARK VINA RESULT:      -6.1      4.624      6.432
REMARK  Name = 
REMARK  8 active torsions:
REMARK  status: ('A' for Active; 'I' for Inactive)
REMARK    1  A    between atoms: C_1  and  C_2
REMARK    2  A    between atoms: C_2  and  C_3
REMARK    3  A    between atoms: C_2  and  C_4
REMARK    4  A    between atoms: C_2  and  C_5
REMARK    5  A    between atoms: C_8  and  N_9
REMARK    6  A    between atoms: N_12  and  C_13
REMARK    7  A    between atoms: C_13  and  C_14
REMARK    8  A    between atoms: C_14  and  C_15
REMARK                            x       y       z     vdW  Elec       q    Type
REMARK                         _______ _______ _______ _____ _____    ______ ____
ROOT
ATOM      1  C   UNL     1       0.819   9.687  19.264  0.00  0.00    +0.000 A 
ATOM      2  C   UNL     1       1.114   8.784  20.293  0.00  0.00    +0.000 A 
ATOM      3  C   UNL     1       1.946   7.682  20.083  0.00  0.00    +0.000 A 
ATOM      4  C   UNL     1       2.516   7.434  18.838  0.00  0.00    +0.000 A 
ATOM      5  C   UNL     1       2.249   8.327  17.799  0.00  0.00    +0.000 A 
ATOM      6  C   UNL     1       1.401   9.431  18.008  0.00  0.00    +0.000 A 
ENDROOT
BRANCH   4   7
ATOM      7  N   UNL     1       3.352   6.320  18.596  0.00  0.00    +0.000 N 
ATOM      8  C   UNL     1       2.916   5.103  18.114  0.00  0.00    +0.000 C 
ATOM      9  O   UNL     1       1.790   4.844  17.706  0.00  0.00    +0.000 OA
ATOM     10  N   UNL     1       3.923   4.160  18.105  0.00  0.00    +0.000 N 
ATOM     11  H   UNL     1       4.344   6.492  18.546  0.00  0.00    +0.000 HD
ATOM     12  H   UNL     1       4.651   4.281  18.795  0.00  0.00    +0.000 HD
BRANCH  10  13
ATOM     13  C   UNL     1       3.608   2.805  17.685  0.00  0.00    +0.000 C 
BRANCH  13  14
ATOM     14  C   UNL     1       3.222   1.909  18.861  0.00  0.00    +0.000 C 
BRANCH  14  15
ATOM     15  C   UNL     1       3.901   2.368  20.143  0.00  0.00    +0.000 C 
ATOM     16 CL   UNL     1       2.701   2.669  21.420  0.00  0.00    +0.000 Cl
ENDBRANCH  14  15
ENDBRANCH  13  14
ENDBRANCH  10  13
ENDBRANCH   4   7
BRANCH   1  18
ATOM     17  C   UNL     1      -0.446  11.133  20.985  0.00  0.00    +0.000 C 
ATOM     18  C   UNL     1      -0.085  10.912  19.496  0.00  0.00    +0.000 C 
ATOM     19  C   UNL     1      -1.412  10.755  18.725  0.00  0.00    +0.000 C 
ATOM     20  C   UNL     1       0.631  12.190  19.012  0.00  0.00    +0.000 C 
ENDBRANCH   1  18
TORSDOF 5
ENDMDL
