MODEL 1
REMARK VINA RESULT:      -7.7      0.000      0.000
REMARK  Name = 
REMARK  7 active torsions:
REMARK  status: ('A' for Active; 'I' for Inactive)
REMARK    1  A    between atoms: C_2  and  C_3
REMARK    2  A    between atoms: C_3  and  O_4
REMARK    3  A    between atoms: O_4  and  C_5
REMARK    4  A    between atoms: C_5  and  C_7
REMARK    5  A    between atoms: C_10  and  S_11
REMARK    6  A    between atoms: S_11  and  N_14
REMARK    7  A    between atoms: N_21  and  C_22
REMARK                            x       y       z     vdW  Elec       q    Type
REMARK                         _______ _______ _______ _____ _____    ______ ____
ROOT
ATOM      1  C   UNL     1       1.111   9.232  19.622  0.00  0.00    +0.000 C 
ATOM      2  O   UNL     1       0.612   9.417  20.720  0.00  0.00    +0.000 OA
ENDROOT
BRANCH   1   3
ATOM      3  C   UNL     1       1.962   8.058  19.274  0.00  0.00    +0.000 A 
ATOM      4  C   UNL     1       2.636   8.051  18.044  0.00  0.00    +0.000 A 
ATOM      5  C   UNL     1       3.512   7.007  17.720  0.00  0.00    +0.000 A 
ATOM      6  C   UNL     1       3.711   5.958  18.625  0.00  0.00    +0.000 A 
ATOM      7  C   UNL     1       3.004   5.936  19.831  0.00  0.00    +0.000 A 
ATOM      8  C   UNL     1       2.152   6.991  20.164  0.00  0.00    +0.000 A 
BRANCH   6   9
ATOM      9  S   UNL     1       4.746   4.567  18.182  0.00  0.00    +0.000 S 
ATOM     10  O   UNL     1       5.283   4.856  16.873  0.00  0.00    +0.000 OA
ATOM     11  O   UNL     1       5.613   4.307  19.312  0.00  0.00    +0.000 OA
BRANCH   9  12
ATOM     12  N   UNL     1       3.704   3.248  18.041  0.00  0.00    +0.000 NA
ATOM     13  C   UNL     1       2.460   3.339  17.262  0.00  0.00    +0.000 C 
ATOM     14  C   UNL     1       1.370   3.167  18.304  0.00  0.00    +0.000 C 
ATOM     15  C   UNL     1       1.967   2.182  19.294  0.00  0.00    +0.000 C 
ATOM     16  C   UNL     1       3.482   2.357  19.193  0.00  0.00    +0.000 C 
ENDBRANCH   9  12
ENDBRANCH   6   9
ENDBRANCH   1   3
BRANCH   1  17
ATOM     17  O   UNL     1       0.893   9.989  18.522  0.00  0.00    +0.000 OA
BRANCH  17  18
ATOM     18  C   UNL     1       1.057  11.399  18.708  0.00  0.00    +0.000 C 
BRANCH  18  20
ATOM     19  O   UNL     1      -0.405  13.244  18.277  0.00  0.00    +0.000 OA
ATOM     20  C   UNL     1      -0.321  12.053  18.567  0.00  0.00    +0.000 C 
ATOM     21  N   UNL     1      -1.374  11.175  18.738  0.00  0.00    +0.000 N 
ATOM     22  H   UNL     1      -1.169  10.251  19.116  0.00  0.00    +0.000 HD
BRANCH  21  23
ATOM     23  C   UNL     1      -2.745  11.439  18.480  0.00  0.00    +0.000 A 
ATOM     24  C   UNL     1      -3.571  12.093  19.403  0.00  0.00    +0.000 A 
ATOM     25  C   UNL     1      -4.909  12.368  19.098  0.00  0.00    +0.000 A 
ATOM     26  C   UNL     1      -5.442  11.994  17.870  0.00  0.00    +0.000 A 
ATOM     27  C   UNL     1      -4.636  11.341  16.937  0.00  0.00    +0.000 A 
ATOM     28  C   UNL     1      -3.295  11.072  17.236  0.00  0.00    +0.000 A 
ATOM     29 CL   UNL     1      -2.349  10.236  16.054  0.00  0.00    +0.000 Cl
ENDBRANCH  21  23
ENDBRANCH  18  20
ENDBRANCH  17  18
ENDBRANCH   1  17
TORSDOF 7
ENDMDL
MODEL 2
REMARK VINA RESULT:      -7.7      6.497      9.017
REMARK  Name = 
REMARK  7 active torsions:
REMARK  status: ('A' for Active; 'I' for Inactive)
REMARK    1  A    between atoms: C_2  and  C_3
REMARK    2  A    between atoms: C_3  and  O_4
REMARK    3  A    between atoms: O_4  and  C_5
REMARK    4  A    between atoms: C_5  and  C_7
REMARK    5  A    between atoms: C_10  and  S_11
REMARK    6  A    between atoms: S_11  and  N_14
REMARK    7  A    between atoms: N_21  and  C_22
REMARK                            x       y       z     vdW  Elec       q    Type
REMARK                         _______ _______ _______ _____ _____    ______ ____
ROOT
ATOM      1  C   UNL     1       7.121   6.447  16.985  0.00  0.00    +0.000 C 
ATOM      2  O   UNL     1       7.765   6.426  15.949  0.00  0.00    +0.000 OA
ENDROOT
BRANCH   1   3
ATOM      3  C   UNL     1       6.081   5.442  17.348  0.00  0.00    +0.000 A 
ATOM      4  C   UNL     1       5.144   5.055  16.378  0.00  0.00    +0.000 A 
ATOM      5  C   UNL     1       4.208   4.050  16.655  0.00  0.00    +0.000 A 
ATOM      6  C   UNL     1       4.200   3.433  17.911  0.00  0.00    +0.000 A 
ATOM      7  C   UNL     1       5.099   3.849  18.897  0.00  0.00    +0.000 A 
ATOM      8  C   UNL     1       6.050   4.832  18.610  0.00  0.00    +0.000 A 
BRANCH   6   9
ATOM      9  S   UNL     1       2.945   2.223  18.314  0.00  0.00    +0.000 S 
ATOM     10  O   UNL     1       2.131   2.067  17.131  0.00  0.00    +0.000 OA
ATOM     11  O   UNL     1       3.622   1.094  18.918  0.00  0.00    +0.000 OA
BRANCH   9  12
ATOM     12  N   UNL     1       1.994   2.932  19.514  0.00  0.00    +0.000 NA
ATOM     13  C   UNL     1       1.491   4.306  19.374  0.00  0.00    +0.000 C 
ATOM     14  C   UNL     1       2.186   5.059  20.494  0.00  0.00    +0.000 C 
ATOM     15  C   UNL     1       2.275   4.039  21.616  0.00  0.00    +0.000 C 
ATOM     16  C   UNL     1       2.284   2.671  20.935  0.00  0.00    +0.000 C 
ENDBRANCH   9  12
ENDBRANCH   6   9
ENDBRANCH   1   3
BRANCH   1  17
ATOM     17  O   UNL     1       7.310   7.309  18.010  0.00  0.00    +0.000 OA
BRANCH  17  18
ATOM     18  C   UNL     1       7.418   8.687  17.639  0.00  0.00    +0.000 C 
BRANCH  18  20
ATOM     19  O   UNL     1       9.220   8.596  19.210  0.00  0.00    +0.000 OA
ATOM     20  C   UNL     1       8.579   9.296  18.430  0.00  0.00    +0.000 C 
ATOM     21  N   UNL     1       8.826  10.620  18.126  0.00  0.00    +0.000 N 
ATOM     22  H   UNL     1       8.132  11.120  17.571  0.00  0.00    +0.000 HD
BRANCH  21  23
ATOM     23  C   UNL     1       9.943  11.391  18.547  0.00  0.00    +0.000 A 
ATOM     24  C   UNL     1      10.986  11.739  17.681  0.00  0.00    +0.000 A 
ATOM     25  C   UNL     1      12.052  12.530  18.122  0.00  0.00    +0.000 A 
ATOM     26  C   UNL     1      12.093  12.985  19.436  0.00  0.00    +0.000 A 
ATOM     27  C   UNL     1      11.064  12.649  20.315  0.00  0.00    +0.000 A 
ATOM     28  C   UNL     1       9.991  11.864  19.873  0.00  0.00    +0.000 A 
ATOM     29 CL   UNL     1       8.758  11.454  21.013  0.00  0.00    +0.000 Cl
ENDBRANCH  21  23
ENDBRANCH  18  20
ENDBRANCH  17  18
ENDBRANCH   1  17
TORSDOF 7
ENDMDL
MODEL 3
REMARK VINA RESULT:      -7.7      4.298      6.453
REMARK  Name = 
REMARK  7 active torsions:
REMARK  status: ('A' for Active; 'I' for Inactive)
REMARK    1  A    between atoms: C_2  and  C_3
REMARK    2  A    between atoms: C_3  and  O_4
REMARK    3  A    between atoms: O_4  and  C_5
REMARK    4  A    between atoms: C_5  and  C_7
REMARK    5  A    between atoms: C_10  and  S_11
REMARK    6  A    between atoms: S_11  and  N_14
REMARK    7  A    between atoms: N_21  and  C_22
REMARK                            x       y       z     vdW  Elec       q    Type
REMARK                         _______ _______ _______ _____ _____    ______ ____
ROOT
ATOM      1  C   UNL     1       4.047   2.623  20.324  0.00  0.00    +0.000 C 
ATOM      2  O   UNL     1       4.692   1.946  21.109  0.00  0.00    +0.000 OA
ENDROOT
BRANCH   1   3
ATOM      3  C   UNL     1       4.643   3.401  19.201  0.00  0.00    +0.000 A 
ATOM      4  C   UNL     1       4.240   3.114  17.889  0.00  0.00    +0.000 A 
ATOM      5  C   UNL     1       4.712   3.883  16.816  0.00  0.00    +0.000 A 
ATOM      6  C   UNL     1       5.599   4.939  17.054  0.00  0.00    +0.000 A 
ATOM      7  C   UNL     1       6.042   5.198  18.354  0.00  0.00    +0.000 A 
ATOM      8  C   UNL     1       5.549   4.448  19.425  0.00  0.00    +0.000 A 
BRANCH   6   9
ATOM      9  S   UNL     1       6.290   5.862  15.685  0.00  0.00    +0.000 S 
ATOM     10  O   UNL     1       5.188   6.556  15.061  0.00  0.00    +0.000 OA
ATOM     11  O   UNL     1       7.442   6.578  16.194  0.00  0.00    +0.000 OA
BRANCH   9  12
ATOM     12  N   UNL     1       6.864   4.707  14.597  0.00  0.00    +0.000 NA
ATOM     13  C   UNL     1       7.964   5.012  13.671  0.00  0.00    +0.000 C 
ATOM     14  C   UNL     1       7.315   4.927  12.302  0.00  0.00    +0.000 C 
ATOM     15  C   UNL     1       6.294   3.812  12.452  0.00  0.00    +0.000 C 
ATOM     16  C   UNL     1       5.923   3.787  13.935  0.00  0.00    +0.000 C 
ENDBRANCH   9  12
ENDBRANCH   6   9
ENDBRANCH   1   3
BRANCH   1  17
ATOM     17  O   UNL     1       2.697   2.696  20.274  0.00  0.00    +0.000 OA
BRANCH  17  18
ATOM     18  C   UNL     1       2.122   3.836  20.919  0.00  0.00    +0.000 C 
BRANCH  18  20
ATOM     19  O   UNL     1       1.296   4.638  18.822  0.00  0.00    +0.000 OA
ATOM     20  C   UNL     1       1.901   4.914  19.855  0.00  0.00    +0.000 C 
ATOM     21  N   UNL     1       2.386   6.158  20.213  0.00  0.00    +0.000 N 
ATOM     22  H   UNL     1       2.992   6.217  21.030  0.00  0.00    +0.000 HD
BRANCH  21  23
ATOM     23  C   UNL     1       2.163   7.381  19.528  0.00  0.00    +0.000 A 
ATOM     24  C   UNL     1       2.580   7.592  18.208  0.00  0.00    +0.000 A 
ATOM     25  C   UNL     1       2.310   8.799  17.554  0.00  0.00    +0.000 A 
ATOM     26  C   UNL     1       1.621   9.814  18.207  0.00  0.00    +0.000 A 
ATOM     27  C   UNL     1       1.197   9.625  19.523  0.00  0.00    +0.000 A 
ATOM     28  C   UNL     1       1.459   8.415  20.177  0.00  0.00    +0.000 A 
ATOM     29 CL   UNL     1       0.935   8.246  21.816  0.00  0.00    +0.000 Cl
ENDBRANCH  21  23
ENDBRANCH  18  20
ENDBRANCH  17  18
ENDBRANCH   1  17
TORSDOF 7
ENDMDL
MODEL 4
REMARK VINA RESULT:      -7.7      4.306      6.399
REMARK  Name = 
REMARK  7 active torsions:
REMARK  status: ('A' for Active; 'I' for Inactive)
REMARK    1  A    between atoms: C_2  and  C_3
REMARK    2  A    between atoms: C_3  and  O_4
REMARK    3  A    between atoms: O_4  and  C_5
REMARK    4  A    between atoms: C_5  and  C_7
REMARK    5  A    between atoms: C_10  and  S_11
REMARK    6  A    between atoms: S_11  and  N_14
REMARK    7  A    between atoms: N_21  and  C_22
REMARK                            x       y       z     vdW  Elec       q    Type
REMARK                         _______ _______ _______ _____ _____    ______ ____
ROOT
ATOM      1  C   UNL     1       3.211   2.567  19.597  0.00  0.00    +0.000 C 
ATOM      2  O   UNL     1       2.436   1.668  19.314  0.00  0.00    +0.000 OA
ENDROOT
BRANCH   1   3
ATOM      3  C   UNL     1       4.025   3.319  18.600  0.00  0.00    +0.000 A 
ATOM      4  C   UNL     1       3.551   3.431  17.284  0.00  0.00    +0.000 A 
ATOM      5  C   UNL     1       4.245   4.202  16.342  0.00  0.00    +0.000 A 
ATOM      6  C   UNL     1       5.424   4.858  16.712  0.00  0.00    +0.000 A 
ATOM      7  C   UNL     1       5.927   4.711  18.007  0.00  0.00    +0.000 A 
ATOM      8  C   UNL     1       5.220   3.964  18.953  0.00  0.00    +0.000 A 
BRANCH   6   9
ATOM      9  S   UNL     1       6.375   5.761  15.494  0.00  0.00    +0.000 S 
ATOM     10  O   UNL     1       5.441   6.610  14.792  0.00  0.00    +0.000 OA
ATOM     11  O   UNL     1       7.528   6.310  16.177  0.00  0.00    +0.000 OA
BRANCH   9  12
ATOM     12  N   UNL     1       6.946   4.602  14.408  0.00  0.00    +0.000 NA
ATOM     13  C   UNL     1       7.944   4.943  13.384  0.00  0.00    +0.000 C 
ATOM     14  C   UNL     1       7.197   4.752  12.077  0.00  0.00    +0.000 C 
ATOM     15  C   UNL     1       6.277   3.576  12.353  0.00  0.00    +0.000 C 
ATOM     16  C   UNL     1       6.026   3.590  13.860  0.00  0.00    +0.000 C 
ENDBRANCH   9  12
ENDBRANCH   6   9
ENDBRANCH   1   3
BRANCH   1  17
ATOM     17  O   UNL     1       3.381   3.099  20.830  0.00  0.00    +0.000 OA
BRANCH  17  18
ATOM     18  C   UNL     1       2.174   3.416  21.531  0.00  0.00    +0.000 C 
BRANCH  18  20
ATOM     19  O   UNL     1       0.496   4.411  20.146  0.00  0.00    +0.000 OA
ATOM     20  C   UNL     1       1.511   4.594  20.812  0.00  0.00    +0.000 C 
ATOM     21  N   UNL     1       2.129   5.808  21.045  0.00  0.00    +0.000 N 
ATOM     22  H   UNL     1       3.043   5.799  21.496  0.00  0.00    +0.000 HD
BRANCH  21  23
ATOM     23  C   UNL     1       1.640   7.090  20.678  0.00  0.00    +0.000 A 
ATOM     24  C   UNL     1       0.791   7.835  21.505  0.00  0.00    +0.000 A 
ATOM     25  C   UNL     1       0.359   9.111  21.125  0.00  0.00    +0.000 A 
ATOM     26  C   UNL     1       0.768   9.661  19.915  0.00  0.00    +0.000 A 
ATOM     27  C   UNL     1       1.613   8.935  19.077  0.00  0.00    +0.000 A 
ATOM     28  C   UNL     1       2.054   7.661  19.458  0.00  0.00    +0.000 A 
ATOM     29 CL   UNL     1       3.078   6.794  18.369  0.00  0.00    +0.000 Cl
ENDBRANCH  21  23
ENDBRANCH  18  20
ENDBRANCH  17  18
ENDBRANCH   1  17
TORSDOF 7
ENDMDL
MODEL 5
REMARK VINA RESULT:      -7.6      1.665      2.277
REMARK  Name = 
REMARK  7 active torsions:
REMARK  status: ('A' for Active; 'I' for Inactive)
REMARK    1  A    between atoms: C_2  and  C_3
REMARK    2  A    between atoms: C_3  and  O_4
REMARK    3  A    between atoms: O_4  and  C_5
REMARK    4  A    between atoms: C_5  and  C_7
REMARK    5  A    between atoms: C_10  and  S_11
REMARK    6  A    between atoms: S_11  and  N_14
REMARK    7  A    between atoms: N_21  and  C_22
REMARK                            x       y       z     vdW  Elec       q    Type
REMARK                         _______ _______ _______ _____ _____    ______ ____
ROOT
ATOM      1  C   UNL     1       2.055   9.118  18.400  0.00  0.00    +0.000 C 
ATOM      2  O   UNL     1       2.003   9.777  17.374  0.00  0.00    +0.000 OA
ENDROOT
BRANCH   1   3
ATOM      3  C   UNL     1       2.622   7.742  18.485  0.00  0.00    +0.000 A 
ATOM      4  C   UNL     1       2.443   7.008  19.667  0.00  0.00    +0.000 A 
ATOM      5  C   UNL     1       2.885   5.681  19.753  0.00  0.00    +0.000 A 
ATOM      6  C   UNL     1       3.520   5.086  18.656  0.00  0.00    +0.000 A 
ATOM      7  C   UNL     1       3.745   5.829  17.494  0.00  0.00    +0.000 A 
ATOM      8  C   UNL     1       3.279   7.143  17.400  0.00  0.00    +0.000 A 
BRANCH   6   9
ATOM      9  S   UNL     1       4.182   3.428  18.787  0.00  0.00    +0.000 S 
ATOM     10  O   UNL     1       4.311   2.931  17.437  0.00  0.00    +0.000 OA
ATOM     11  O   UNL     1       5.322   3.495  19.678  0.00  0.00    +0.000 OA
BRANCH   9  12
ATOM     12  N   UNL     1       2.993   2.520  19.567  0.00  0.00    +0.000 NA
ATOM     13  C   UNL     1       1.664   2.331  18.969  0.00  0.00    +0.000 C 
ATOM     14  C   UNL     1       0.732   3.042  19.933  0.00  0.00    +0.000 C 
ATOM     15  C   UNL     1       1.360   2.796  21.294  0.00  0.00    +0.000 C 
ATOM     16  C   UNL     1       2.852   2.595  21.032  0.00  0.00    +0.000 C 
ENDBRANCH   9  12
ENDBRANCH   6   9
ENDBRANCH   1   3
BRANCH   1  17
ATOM     17  O   UNL     1       1.712   9.556  19.634  0.00  0.00    +0.000 OA
BRANCH  17  18
ATOM     18  C   UNL     1       0.967  10.777  19.663  0.00  0.00    +0.000 C 
BRANCH  18  20
ATOM     19  O   UNL     1      -1.116   9.614  19.842  0.00  0.00    +0.000 OA
ATOM     20  C   UNL     1      -0.468  10.461  19.232  0.00  0.00    +0.000 C 
ATOM     21  N   UNL     1      -0.919  11.239  18.183  0.00  0.00    +0.000 N 
ATOM     22  H   UNL     1      -0.235  11.799  17.677  0.00  0.00    +0.000 HD
BRANCH  21  23
ATOM     23  C   UNL     1      -2.250  11.311  17.696  0.00  0.00    +0.000 A 
ATOM     24  C   UNL     1      -2.617  10.825  16.435  0.00  0.00    +0.000 A 
ATOM     25  C   UNL     1      -3.947  10.881  16.004  0.00  0.00    +0.000 A 
ATOM     26  C   UNL     1      -4.930  11.424  16.824  0.00  0.00    +0.000 A 
ATOM     27  C   UNL     1      -4.586  11.915  18.083  0.00  0.00    +0.000 A 
ATOM     28  C   UNL     1      -3.257  11.852  18.521  0.00  0.00    +0.000 A 
ATOM     29 CL   UNL     1      -2.881  12.500  20.079  0.00  0.00    +0.000 Cl
ENDBRANCH  21  23
ENDBRANCH  18  20
ENDBRANCH  17  18
ENDBRANCH   1  17
TORSDOF 7
ENDMDL
MODEL 6
REMARK VINA RESULT:      -7.6      1.313      1.790
REMARK  Name = 
REMARK  7 active torsions:
REMARK  status: ('A' for Active; 'I' for Inactive)
REMARK    1  A    between atoms: C_2  and  C_3
REMARK    2  A    between atoms: C_3  and  O_4
REMARK    3  A    between atoms: O_4  and  C_5
REMARK    4  A    between atoms: C_5  and  C_7
REMARK    5  A    between atoms: C_10  and  S_11
REMARK    6  A    between atoms: S_11  and  N_14
REMARK    7  A    between atoms: N_21  and  C_22
REMARK                            x       y       z     vdW  Elec       q    Type
REMARK                         _______ _______ _______ _____ _____    ______ ____
ROOT
ATOM      1  C   UNL     1       1.942   9.228  18.330  0.00  0.00    +0.000 C 
ATOM      2  O   UNL     1       2.181  10.026  17.438  0.00  0.00    +0.000 OA
ENDROOT
BRANCH   1   3
ATOM      3  C   UNL     1       2.545   7.868  18.424  0.00  0.00    +0.000 A 
ATOM      4  C   UNL     1       2.363   7.126  19.601  0.00  0.00    +0.000 A 
ATOM      5  C   UNL     1       2.841   5.811  19.692  0.00  0.00    +0.000 A 
ATOM      6  C   UNL     1       3.513   5.238  18.607  0.00  0.00    +0.000 A 
ATOM      7  C   UNL     1       3.740   5.989  17.452  0.00  0.00    +0.000 A 
ATOM      8  C   UNL     1       3.239   7.290  17.351  0.00  0.00    +0.000 A 
BRANCH   6   9
ATOM      9  S   UNL     1       4.219   3.599  18.748  0.00  0.00    +0.000 S 
ATOM     10  O   UNL     1       4.383   3.106  17.400  0.00  0.00    +0.000 OA
ATOM     11  O   UNL     1       5.342   3.696  19.657  0.00  0.00    +0.000 OA
BRANCH   9  12
ATOM     12  N   UNL     1       3.043   2.658  19.508  0.00  0.00    +0.000 NA
ATOM     13  C   UNL     1       1.742   2.404  18.873  0.00  0.00    +0.000 C 
ATOM     14  C   UNL     1       0.752   3.094  19.794  0.00  0.00    +0.000 C 
ATOM     15  C   UNL     1       1.346   2.898  21.178  0.00  0.00    +0.000 C 
ATOM     16  C   UNL     1       2.852   2.753  20.966  0.00  0.00    +0.000 C 
ENDBRANCH   9  12
ENDBRANCH   6   9
ENDBRANCH   1   3
BRANCH   1  17
ATOM     17  O   UNL     1       1.185   9.476  19.424  0.00  0.00    +0.000 OA
BRANCH  17  18
ATOM     18  C   UNL     1       0.517  10.742  19.431  0.00  0.00    +0.000 C 
BRANCH  18  20
ATOM     19  O   UNL     1      -1.418   9.371  19.111  0.00  0.00    +0.000 OA
ATOM     20  C   UNL     1      -0.944  10.502  19.042  0.00  0.00    +0.000 C 
ATOM     21  N   UNL     1      -1.622  11.653  18.686  0.00  0.00    +0.000 N 
ATOM     22  H   UNL     1      -1.076  12.500  18.531  0.00  0.00    +0.000 HD
BRANCH  21  23
ATOM     23  C   UNL     1      -3.019  11.778  18.466  0.00  0.00    +0.000 A 
ATOM     24  C   UNL     1      -3.891  12.283  19.437  0.00  0.00    +0.000 A 
ATOM     25  C   UNL     1      -5.257  12.425  19.170  0.00  0.00    +0.000 A 
ATOM     26  C   UNL     1      -5.773  12.064  17.930  0.00  0.00    +0.000 A 
ATOM     27  C   UNL     1      -4.921  11.558  16.948  0.00  0.00    +0.000 A 
ATOM     28  C   UNL     1      -3.552  11.423  17.210  0.00  0.00    +0.000 A 
ATOM     29 CL   UNL     1      -2.546  10.764  15.968  0.00  0.00    +0.000 Cl
ENDBRANCH  21  23
ENDBRANCH  18  20
ENDBRANCH  17  18
ENDBRANCH   1  17
TORSDOF 7
ENDMDL
MODEL 7
REMARK VINA RESULT:      -7.5      2.935      4.045
REMARK  Name = 
REMARK  7 active torsions:
REMARK  status: ('A' for Active; 'I' for Inactive)
REMARK    1  A    between atoms: C_2  and  C_3
REMARK    2  A    between atoms: C_3  and  O_4
REMARK    3  A    between atoms: O_4  and  C_5
REMARK    4  A    between atoms: C_5  and  C_7
REMARK    5  A    between atoms: C_10  and  S_11
REMARK    6  A    between atoms: S_11  and  N_14
REMARK    7  A    between atoms: N_21  and  C_22
REMARK                            x       y       z     vdW  Elec       q    Type
REMARK                         _______ _______ _______ _____ _____    ______ ____
ROOT
ATOM      1  C   UNL     1       1.271   9.329  18.836  0.00  0.00    +0.000 C 
ATOM      2  O   UNL     1       0.679   9.849  17.904  0.00  0.00    +0.000 OA
ENDROOT
BRANCH   1   3
ATOM      3  C   UNL     1       2.183   8.157  18.701  0.00  0.00    +0.000 A 
ATOM      4  C   UNL     1       2.198   7.190  19.717  0.00  0.00    +0.000 A 
ATOM      5  C   UNL     1       2.977   6.032  19.584  0.00  0.00    +0.000 A 
ATOM      6  C   UNL     1       3.752   5.843  18.435  0.00  0.00    +0.000 A 
ATOM      7  C   UNL     1       3.779   6.826  17.443  0.00  0.00    +0.000 A 
ATOM      8  C   UNL     1       2.981   7.966  17.563  0.00  0.00    +0.000 A 
BRANCH   6   9
ATOM      9  S   UNL     1       4.830   4.420  18.299  0.00  0.00    +0.000 S 
ATOM     10  O   UNL     1       5.466   4.510  17.005  0.00  0.00    +0.000 OA
ATOM     11  O   UNL     1       5.609   4.359  19.519  0.00  0.00    +0.000 OA
BRANCH   9  12
ATOM     12  N   UNL     1       3.813   3.074  18.290  0.00  0.00    +0.000 NA
ATOM     13  C   UNL     1       2.651   3.003  17.392  0.00  0.00    +0.000 C 
ATOM     14  C   UNL     1       1.465   2.990  18.339  0.00  0.00    +0.000 C 
ATOM     15  C   UNL     1       1.967   2.203  19.538  0.00  0.00    +0.000 C 
ATOM     16  C   UNL     1       3.483   2.391  19.553  0.00  0.00    +0.000 C 
ENDBRANCH   9  12
ENDBRANCH   6   9
ENDBRANCH   1   3
BRANCH   1  17
ATOM     17  O   UNL     1       1.287   9.785  20.110  0.00  0.00    +0.000 OA
BRANCH  17  18
ATOM     18  C   UNL     1       0.341  10.818  20.401  0.00  0.00    +0.000 C 
BRANCH  18  20
ATOM     19  O   UNL     1       1.790  12.503  21.288  0.00  0.00    +0.000 OA
ATOM     20  C   UNL     1       1.079  12.158  20.347  0.00  0.00    +0.000 C 
ATOM     21  N   UNL     1       0.899  12.846  19.162  0.00  0.00    +0.000 N 
ATOM     22  H   UNL     1       0.173  12.518  18.526  0.00  0.00    +0.000 HD
BRANCH  21  23
ATOM     23  C   UNL     1       1.599  14.008  18.744  0.00  0.00    +0.000 A 
ATOM     24  C   UNL     1       2.867  13.951  18.152  0.00  0.00    +0.000 A 
ATOM     25  C   UNL     1       3.510  15.116  17.720  0.00  0.00    +0.000 A 
ATOM     26  C   UNL     1       2.898  16.355  17.873  0.00  0.00    +0.000 A 
ATOM     27  C   UNL     1       1.636  16.434  18.460  0.00  0.00    +0.000 A 
ATOM     28  C   UNL     1       0.986  15.269  18.886  0.00  0.00    +0.000 A 
ATOM     29 CL   UNL     1      -0.565  15.428  19.633  0.00  0.00    +0.000 Cl
ENDBRANCH  21  23
ENDBRANCH  18  20
ENDBRANCH  17  18
ENDBRANCH   1  17
TORSDOF 7
ENDMDL
MODEL 8
REMARK VINA RESULT:      -7.5      2.917      4.257
REMARK  Name = 
REMARK  7 active torsions:
REMARK  status: ('A' for Active; 'I' for Inactive)
REMARK    1  A    between atoms: C_2  and  C_3
REMARK    2  A    between atoms: C_3  and  O_4
REMARK    3  A    between atoms: O_4  and  C_5
REMARK    4  A    between atoms: C_5  and  C_7
REMARK    5  A    between atoms: C_10  and  S_11
REMARK    6  A    between atoms: S_11  and  N_14
REMARK    7  A    between atoms: N_21  and  C_22
REMARK                            x       y       z     vdW  Elec       q    Type
REMARK                         _______ _______ _______ _____ _____    ______ ____
ROOT
ATOM      1  C   UNL     1       1.597   6.203  20.465  0.00  0.00    +0.000 C 
ATOM      2  O   UNL     1       0.843   5.316  20.830  0.00  0.00    +0.000 OA
ENDROOT
BRANCH   1   3
ATOM      3  C   UNL     1       2.617   6.046  19.389  0.00  0.00    +0.000 A 
ATOM      4  C   UNL     1       3.190   4.783  19.177  0.00  0.00    +0.000 A 
ATOM      5  C   UNL     1       4.087   4.579  18.120  0.00  0.00    +0.000 A 
ATOM      6  C   UNL     1       4.422   5.643  17.275  0.00  0.00    +0.000 A 
ATOM      7  C   UNL     1       3.893   6.914  17.512  0.00  0.00    +0.000 A 
ATOM      8  C   UNL     1       2.977   7.110  18.549  0.00  0.00    +0.000 A 
BRANCH   6   9
ATOM      9  S   UNL     1       5.645   5.421  15.987  0.00  0.00    +0.000 S 
ATOM     10  O   UNL     1       5.580   4.032  15.595  0.00  0.00    +0.000 OA
ATOM     11  O   UNL     1       5.446   6.486  15.025  0.00  0.00    +0.000 OA
BRANCH   9  12
ATOM     12  N   UNL     1       7.139   5.688  16.723  0.00  0.00    +0.000 NA
ATOM     13  C   UNL     1       7.688   4.737  17.701  0.00  0.00    +0.000 C 
ATOM     14  C   UNL     1       7.722   5.531  18.994  0.00  0.00    +0.000 C 
ATOM     15  C   UNL     1       8.052   6.944  18.544  0.00  0.00    +0.000 C 
ATOM     16  C   UNL     1       7.537   7.053  17.109  0.00  0.00    +0.000 C 
ENDBRANCH   9  12
ENDBRANCH   6   9
ENDBRANCH   1   3
BRANCH   1  17
ATOM     17  O   UNL     1       1.564   7.487  20.890  0.00  0.00    +0.000 OA
BRANCH  17  18
ATOM     18  C   UNL     1       0.339   7.896  21.507  0.00  0.00    +0.000 C 
BRANCH  18  20
ATOM     19  O   UNL     1       0.776  10.098  22.334  0.00  0.00    +0.000 OA
ATOM     20  C   UNL     1       0.269   9.424  21.441  0.00  0.00    +0.000 C 
ATOM     21  N   UNL     1      -0.343   9.904  20.299  0.00  0.00    +0.000 N 
ATOM     22  H   UNL     1      -0.846   9.240  19.712  0.00  0.00    +0.000 HD
BRANCH  21  23
ATOM     23  C   UNL     1      -0.385  11.256  19.867  0.00  0.00    +0.000 A 
ATOM     24  C   UNL     1      -1.337  12.167  20.340  0.00  0.00    +0.000 A 
ATOM     25  C   UNL     1      -1.325  13.501  19.919  0.00  0.00    +0.000 A 
ATOM     26  C   UNL     1      -0.363  13.946  19.018  0.00  0.00    +0.000 A 
ATOM     27  C   UNL     1       0.594  13.054  18.534  0.00  0.00    +0.000 A 
ATOM     28  C   UNL     1       0.589  11.720  18.960  0.00  0.00    +0.000 A 
ATOM     29 CL   UNL     1       1.780  10.651  18.306  0.00  0.00    +0.000 Cl
ENDBRANCH  21  23
ENDBRANCH  18  20
ENDBRANCH  17  18
ENDBRANCH   1  17
TORSDOF 7
ENDMDL
MODEL 9
REMARK VINA RESULT:      -7.5      6.609      8.489
REMARK  Name = 
REMARK  7 active torsions:
REMARK  status: ('A' for Active; 'I' for Inactive)
REMARK    1  A    between atoms: C_2  and  C_3
REMARK    2  A    between atoms: C_3  and  O_4
REMARK    3  A    between atoms: O_4  and  C_5
REMARK    4  A    between atoms: C_5  and  C_7
REMARK    5  A    between atoms: C_10  and  S_11
REMARK    6  A    between atoms: S_11  and  N_14
REMARK    7  A    between atoms: N_21  and  C_22
REMARK                            x       y       z     vdW  Elec       q    Type
REMARK                         _______ _______ _______ _____ _____    ______ ____
ROOT
ATOM      1  C   UNL     1       5.957   7.059  16.980  0.00  0.00    +0.000 C 
ATOM      2  O   UNL     1       5.896   7.254  15.777  0.00  0.00    +0.000 OA
ENDROOT
BRANCH   1   3
ATOM      3  C   UNL     1       5.467   5.823  17.655  0.00  0.00    +0.000 A 
ATOM      4  C   UNL     1       4.738   4.886  16.908  0.00  0.00    +0.000 A 
ATOM      5  C   UNL     1       4.336   3.675  17.486  0.00  0.00    +0.000 A 
ATOM      6  C   UNL     1       4.656   3.400  18.820  0.00  0.00    +0.000 A 
ATOM      7  C   UNL     1       5.339   4.350  19.583  0.00  0.00    +0.000 A 
ATOM      8  C   UNL     1       5.763   5.546  18.998  0.00  0.00    +0.000 A 
BRANCH   6   9
ATOM      9  S   UNL     1       4.061   1.903  19.601  0.00  0.00    +0.000 S 
ATOM     10  O   UNL     1       3.913   0.923  18.550  0.00  0.00    +0.000 OA
ATOM     11  O   UNL     1       4.909   1.656  20.749  0.00  0.00    +0.000 OA
BRANCH   9  12
ATOM     12  N   UNL     1       2.523   2.274  20.189  0.00  0.00    +0.000 NA
ATOM     13  C   UNL     1       1.362   2.354  19.291  0.00  0.00    +0.000 C 
ATOM     14  C   UNL     1       0.952   3.814  19.364  0.00  0.00    +0.000 C 
ATOM     15  C   UNL     1       1.246   4.203  20.802  0.00  0.00    +0.000 C 
ATOM     16  C   UNL     1       2.366   3.271  21.263  0.00  0.00    +0.000 C 
ENDBRANCH   9  12
ENDBRANCH   6   9
ENDBRANCH   1   3
BRANCH   1  17
ATOM     17  O   UNL     1       6.567   7.868  17.878  0.00  0.00    +0.000 OA
BRANCH  17  18
ATOM     18  C   UNL     1       7.966   8.073  17.663  0.00  0.00    +0.000 C 
BRANCH  18  20
ATOM     19  O   UNL     1       7.751  10.449  17.476  0.00  0.00    +0.000 OA
ATOM     20  C   UNL     1       8.294   9.515  18.062  0.00  0.00    +0.000 C 
ATOM     21  N   UNL     1       9.169   9.614  19.126  0.00  0.00    +0.000 N 
ATOM     22  H   UNL     1       9.655   8.769  19.424  0.00  0.00    +0.000 HD
BRANCH  21  23
ATOM     23  C   UNL     1       9.506  10.796  19.837  0.00  0.00    +0.000 A 
ATOM     24  C   UNL     1       8.993  11.081  21.108  0.00  0.00    +0.000 A 
ATOM     25  C   UNL     1       9.376  12.239  21.793  0.00  0.00    +0.000 A 
ATOM     26  C   UNL     1      10.278  13.130  21.220  0.00  0.00    +0.000 A 
ATOM     27  C   UNL     1      10.800  12.864  19.954  0.00  0.00    +0.000 A 
ATOM     28  C   UNL     1      10.424  11.702  19.270  0.00  0.00    +0.000 A 
ATOM     29 CL   UNL     1      11.081  11.437  17.693  0.00  0.00    +0.000 Cl
ENDBRANCH  21  23
ENDBRANCH  18  20
ENDBRANCH  17  18
ENDBRANCH   1  17
TORSDOF 7
ENDMDL
