MODEL 1
REMARK VINA RESULT:      -6.3      0.000      0.000
REMARK  Name = 
REMARK  6 active torsions:
REMARK  status: ('A' for Active; 'I' for Inactive)
REMARK    1  A    between atoms: C_1  and  C_2
REMARK    2  A    between atoms: C_6  and  C_7
REMARK    3  A    between atoms: C_7  and  O_8
REMARK    4  A    between atoms: O_8  and  C_9
REMARK    5  A    between atoms: C_9  and  C_10
REMARK    6  A    between atoms: N_16  and  C_17
REMARK                            x       y       z     vdW  Elec       q    Type
REMARK                         _______ _______ _______ _____ _____    ______ ____
ROOT
ATOM      1  C   UNL     1       4.180   2.114  20.051  0.00  0.00    +0.000 C 
ATOM      2  C   UNL     1       3.569   3.531  19.871  0.00  0.00    +0.000 C 
ATOM      3  C   UNL     1       4.596   4.334  19.120  0.00  0.00    +0.000 A 
ATOM      4  N   UNL     1       5.909   4.268  19.232  0.00  0.00    +0.000 NA
ATOM      5  C   UNL     1       6.411   5.061  18.235  0.00  0.00    +0.000 A 
ATOM      6  C   UNL     1       5.404   5.644  17.507  0.00  0.00    +0.000 A 
ATOM      7  N   UNL     1       4.253   5.210  18.131  0.00  0.00    +0.000 N 
ATOM      8  C   UNL     1       2.891   5.572  17.835  0.00  0.00    +0.000 C 
ATOM      9  C   UNL     1       1.872   4.506  18.259  0.00  0.00    +0.000 C 
ATOM     10  N   UNL     1       2.272   3.383  19.142  0.00  0.00    +0.000 NA
ATOM     11  C   UNL     1       1.142   3.058  20.040  0.00  0.00    +0.000 C 
ENDROOT
BRANCH   6  12
ATOM     12  C   UNL     1       5.422   6.524  16.320  0.00  0.00    +0.000 C 
BRANCH  12  13
ATOM     13  O   UNL     1       6.133   5.824  15.309  0.00  0.00    +0.000 OA
BRANCH  13  14
ATOM     14  C   UNL     1       5.370   4.746  14.777  0.00  0.00    +0.000 C 
BRANCH  14  15
ATOM     15  C   UNL     1       6.294   3.893  13.969  0.00  0.00    +0.000 C 
ATOM     16  C   UNL     1       5.868   3.421  12.601  0.00  0.00    +0.000 C 
ATOM     17  C   UNL     1       6.977   4.427  12.735  0.00  0.00    +0.000 C 
ENDBRANCH  14  15
ENDBRANCH  13  14
ENDBRANCH  12  13
ENDBRANCH   6  12
TORSDOF 4
ENDMDL
MODEL 2
REMARK VINA RESULT:      -6.1      1.392      2.245
REMARK  Name = 
REMARK  6 active torsions:
REMARK  status: ('A' for Active; 'I' for Inactive)
REMARK    1  A    between atoms: C_1  and  C_2
REMARK    2  A    between atoms: C_6  and  C_7
REMARK    3  A    between atoms: C_7  and  O_8
REMARK    4  A    between atoms: O_8  and  C_9
REMARK    5  A    between atoms: C_9  and  C_10
REMARK    6  A    between atoms: N_16  and  C_17
REMARK                            x       y       z     vdW  Elec       q    Type
REMARK                         _______ _______ _______ _____ _____    ______ ____
ROOT
ATOM      1  C   UNL     1       1.755   5.934  20.599  0.00  0.00    +0.000 C 
ATOM      2  C   UNL     1       2.082   4.653  19.783  0.00  0.00    +0.000 C 
ATOM      3  C   UNL     1       3.044   5.080  18.708  0.00  0.00    +0.000 A 
ATOM      4  N   UNL     1       3.056   6.222  18.045  0.00  0.00    +0.000 NA
ATOM      5  C   UNL     1       4.206   6.211  17.301  0.00  0.00    +0.000 A 
ATOM      6  C   UNL     1       4.908   5.046  17.484  0.00  0.00    +0.000 A 
ATOM      7  N   UNL     1       4.113   4.314  18.343  0.00  0.00    +0.000 N 
ATOM      8  C   UNL     1       4.322   2.972  18.819  0.00  0.00    +0.000 C 
ATOM      9  C   UNL     1       3.643   2.692  20.167  0.00  0.00    +0.000 C 
ATOM     10  N   UNL     1       2.646   3.640  20.725  0.00  0.00    +0.000 NA
ATOM     11  C   UNL     1       1.601   2.868  21.433  0.00  0.00    +0.000 C 
ENDROOT
BRANCH   6  12
ATOM     12  C   UNL     1       6.208   4.581  16.959  0.00  0.00    +0.000 C 
BRANCH  12  13
ATOM     13  O   UNL     1       5.918   3.740  15.851  0.00  0.00    +0.000 OA
BRANCH  13  14
ATOM     14  C   UNL     1       5.974   4.452  14.620  0.00  0.00    +0.000 C 
BRANCH  14  15
ATOM     15  C   UNL     1       6.127   3.448  13.523  0.00  0.00    +0.000 C 
ATOM     16  C   UNL     1       5.208   3.501  12.329  0.00  0.00    +0.000 C 
ATOM     17  C   UNL     1       6.663   3.839  12.169  0.00  0.00    +0.000 C 
ENDBRANCH  14  15
ENDBRANCH  13  14
ENDBRANCH  12  13
ENDBRANCH   6  12
TORSDOF 4
ENDMDL
MODEL 3
REMARK VINA RESULT:      -6.1      1.994      3.155
REMARK  Name = 
REMARK  6 active torsions:
REMARK  status: ('A' for Active; 'I' for Inactive)
REMARK    1  A    between atoms: C_1  and  C_2
REMARK    2  A    between atoms: C_6  and  C_7
REMARK    3  A    between atoms: C_7  and  O_8
REMARK    4  A    between atoms: O_8  and  C_9
REMARK    5  A    between atoms: C_9  and  C_10
REMARK    6  A    between atoms: N_16  and  C_17
REMARK                            x       y       z     vdW  Elec       q    Type
REMARK                         _______ _______ _______ _____ _____    ______ ____
ROOT
ATOM      1  C   UNL     1       1.889   2.217  18.308  0.00  0.00    +0.000 C 
ATOM      2  C   UNL     1       2.746   3.320  18.987  0.00  0.00    +0.000 C 
ATOM      3  C   UNL     1       3.695   3.818  17.930  0.00  0.00    +0.000 A 
ATOM      4  N   UNL     1       4.283   3.115  16.981  0.00  0.00    +0.000 NA
ATOM      5  C   UNL     1       4.911   4.026  16.174  0.00  0.00    +0.000 A 
ATOM      6  C   UNL     1       4.732   5.307  16.634  0.00  0.00    +0.000 A 
ATOM      7  N   UNL     1       4.001   5.141  17.793  0.00  0.00    +0.000 N 
ATOM      8  C   UNL     1       3.589   6.149  18.735  0.00  0.00    +0.000 C 
ATOM      9  C   UNL     1       2.332   5.763  19.528  0.00  0.00    +0.000 C 
ATOM     10  N   UNL     1       1.816   4.372  19.502  0.00  0.00    +0.000 NA
ATOM     11  C   UNL     1       1.262   4.046  20.834  0.00  0.00    +0.000 C 
ENDROOT
BRANCH   6  12
ATOM     12  C   UNL     1       5.156   6.618  16.103  0.00  0.00    +0.000 C 
BRANCH  12  13
ATOM     13  O   UNL     1       6.561   6.697  16.298  0.00  0.00    +0.000 OA
BRANCH  13  14
ATOM     14  C   UNL     1       6.890   7.400  17.491  0.00  0.00    +0.000 C 
BRANCH  14  15
ATOM     15  C   UNL     1       7.820   6.536  18.283  0.00  0.00    +0.000 C 
ATOM     16  C   UNL     1       7.278   5.701  19.415  0.00  0.00    +0.000 C 
ATOM     17  C   UNL     1       7.784   5.033  18.167  0.00  0.00    +0.000 C 
ENDBRANCH  14  15
ENDBRANCH  13  14
ENDBRANCH  12  13
ENDBRANCH   6  12
TORSDOF 4
ENDMDL
MODEL 4
REMARK VINA RESULT:      -5.9      1.364      1.541
REMARK  Name = 
REMARK  6 active torsions:
REMARK  status: ('A' for Active; 'I' for Inactive)
REMARK    1  A    between atoms: C_1  and  C_2
REMARK    2  A    between atoms: C_6  and  C_7
REMARK    3  A    between atoms: C_7  and  O_8
REMARK    4  A    between atoms: O_8  and  C_9
REMARK    5  A    between atoms: C_9  and  C_10
REMARK    6  A    between atoms: N_16  and  C_17
REMARK                            x       y       z     vdW  Elec       q    Type
REMARK                         _______ _______ _______ _____ _____    ______ ____
ROOT
ATOM      1  C   UNL     1       2.556   3.579  21.123  0.00  0.00    +0.000 C 
ATOM      2  C   UNL     1       2.440   3.831  19.595  0.00  0.00    +0.000 C 
ATOM      3  C   UNL     1       3.768   4.392  19.164  0.00  0.00    +0.000 A 
ATOM      4  N   UNL     1       4.553   5.210  19.839  0.00  0.00    +0.000 NA
ATOM      5  C   UNL     1       5.712   5.302  19.113  0.00  0.00    +0.000 A 
ATOM      6  C   UNL     1       5.642   4.551  17.966  0.00  0.00    +0.000 A 
ATOM      7  N   UNL     1       4.366   4.027  17.992  0.00  0.00    +0.000 N 
ATOM      8  C   UNL     1       3.717   3.218  16.994  0.00  0.00    +0.000 C 
ATOM      9  C   UNL     1       2.606   2.324  17.562  0.00  0.00    +0.000 C 
ATOM     10  N   UNL     1       2.096   2.532  18.940  0.00  0.00    +0.000 NA
ATOM     11  C   UNL     1       0.645   2.245  18.958  0.00  0.00    +0.000 C 
ENDROOT
BRANCH   6  12
ATOM     12  C   UNL     1       6.627   4.281  16.899  0.00  0.00    +0.000 C 
BRANCH  12  13
ATOM     13  O   UNL     1       6.705   5.463  16.115  0.00  0.00    +0.000 OA
BRANCH  13  14
ATOM     14  C   UNL     1       5.887   5.381  14.952  0.00  0.00    +0.000 C 
BRANCH  14  15
ATOM     15  C   UNL     1       6.215   4.097  14.259  0.00  0.00    +0.000 C 
ATOM     16  C   UNL     1       5.415   3.677  13.052  0.00  0.00    +0.000 C 
ATOM     17  C   UNL     1       6.854   4.083  12.894  0.00  0.00    +0.000 C 
ENDBRANCH  14  15
ENDBRANCH  13  14
ENDBRANCH  12  13
ENDBRANCH   6  12
TORSDOF 4
ENDMDL
MODEL 5
REMARK VINA RESULT:      -5.7      2.255      6.020
REMARK  Name = 
REMARK  6 active torsions:
REMARK  status: ('A' for Active; 'I' for Inactive)
REMARK    1  A    between atoms: C_1  and  C_2
REMARK    2  A    between atoms: C_6  and  C_7
REMARK    3  A    between atoms: C_7  and  O_8
REMARK    4  A    between atoms: O_8  and  C_9
REMARK    5  A    between atoms: C_9  and  C_10
REMARK    6  A    between atoms: N_16  and  C_17
REMARK                            x       y       z     vdW  Elec       q    Type
REMARK                         _______ _______ _______ _____ _____    ______ ____
ROOT
ATOM      1  C   UNL     1       7.375   6.629  17.232  0.00  0.00    +0.000 C 
ATOM      2  C   UNL     1       7.115   5.236  16.596  0.00  0.00    +0.000 C 
ATOM      3  C   UNL     1       6.123   4.548  17.494  0.00  0.00    +0.000 A 
ATOM      4  N   UNL     1       6.044   4.620  18.809  0.00  0.00    +0.000 NA
ATOM      5  C   UNL     1       4.891   3.963  19.152  0.00  0.00    +0.000 A 
ATOM      6  C   UNL     1       4.257   3.459  18.043  0.00  0.00    +0.000 A 
ATOM      7  N   UNL     1       5.096   3.795  17.002  0.00  0.00    +0.000 N 
ATOM      8  C   UNL     1       4.967   3.452  15.610  0.00  0.00    +0.000 C 
ATOM      9  C   UNL     1       5.669   4.442  14.670  0.00  0.00    +0.000 C 
ATOM     10  N   UNL     1       6.614   5.453  15.204  0.00  0.00    +0.000 NA
ATOM     11  C   UNL     1       7.705   5.648  14.224  0.00  0.00    +0.000 C 
ENDROOT
BRANCH   6  12
ATOM     12  C   UNL     1       2.981   2.732  17.878  0.00  0.00    +0.000 C 
BRANCH  12  13
ATOM     13  O   UNL     1       1.976   3.541  18.474  0.00  0.00    +0.000 OA
BRANCH  13  14
ATOM     14  C   UNL     1       0.993   2.756  19.140  0.00  0.00    +0.000 C 
BRANCH  14  15
ATOM     15  C   UNL     1       0.853   3.291  20.530  0.00  0.00    +0.000 C 
ATOM     16  C   UNL     1       1.618   2.646  21.658  0.00  0.00    +0.000 C 
ATOM     17  C   UNL     1       1.981   4.032  21.203  0.00  0.00    +0.000 C 
ENDBRANCH  14  15
ENDBRANCH  13  14
ENDBRANCH  12  13
ENDBRANCH   6  12
TORSDOF 4
ENDMDL
MODEL 6
REMARK VINA RESULT:      -5.7      1.276      2.359
REMARK  Name = 
REMARK  6 active torsions:
REMARK  status: ('A' for Active; 'I' for Inactive)
REMARK    1  A    between atoms: C_1  and  C_2
REMARK    2  A    between atoms: C_6  and  C_7
REMARK    3  A    between atoms: C_7  and  O_8
REMARK    4  A    between atoms: O_8  and  C_9
REMARK    5  A    between atoms: C_9  and  C_10
REMARK    6  A    between atoms: N_16  and  C_17
REMARK                            x       y       z     vdW  Elec       q    Type
REMARK                         _______ _______ _______ _____ _____    ______ ____
ROOT
ATOM      1  C   UNL     1       2.264   7.108  19.758  0.00  0.00    +0.000 C 
ATOM      2  C   UNL     1       2.389   5.760  18.997  0.00  0.00    +0.000 C 
ATOM      3  C   UNL     1       3.581   5.905  18.089  0.00  0.00    +0.000 A 
ATOM      4  N   UNL     1       3.974   6.986  17.443  0.00  0.00    +0.000 NA
ATOM      5  C   UNL     1       5.187   6.673  16.890  0.00  0.00    +0.000 A 
ATOM      6  C   UNL     1       5.546   5.379  17.175  0.00  0.00    +0.000 A 
ATOM      7  N   UNL     1       4.474   4.890  17.894  0.00  0.00    +0.000 N 
ATOM      8  C   UNL     1       4.271   3.554  18.390  0.00  0.00    +0.000 C 
ATOM      9  C   UNL     1       3.345   3.493  19.612  0.00  0.00    +0.000 C 
ATOM     10  N   UNL     1       2.536   4.671  20.011  0.00  0.00    +0.000 NA
ATOM     11  C   UNL     1       1.238   4.200  20.541  0.00  0.00    +0.000 C 
ENDROOT
BRANCH   6  12
ATOM     12  C   UNL     1       6.757   4.595  16.860  0.00  0.00    +0.000 C 
BRANCH  12  13
ATOM     13  O   UNL     1       6.542   4.017  15.580  0.00  0.00    +0.000 OA
BRANCH  13  14
ATOM     14  C   UNL     1       7.245   4.717  14.559  0.00  0.00    +0.000 C 
BRANCH  14  15
ATOM     15  C   UNL     1       6.435   4.623  13.306  0.00  0.00    +0.000 C 
ATOM     16  C   UNL     1       7.037   3.994  12.075  0.00  0.00    +0.000 C 
ATOM     17  C   UNL     1       5.920   3.298  12.802  0.00  0.00    +0.000 C 
ENDBRANCH  14  15
ENDBRANCH  13  14
ENDBRANCH  12  13
ENDBRANCH   6  12
TORSDOF 4
ENDMDL
MODEL 7
REMARK VINA RESULT:      -5.7      1.688      2.319
REMARK  Name = 
REMARK  6 active torsions:
REMARK  status: ('A' for Active; 'I' for Inactive)
REMARK    1  A    between atoms: C_1  and  C_2
REMARK    2  A    between atoms: C_6  and  C_7
REMARK    3  A    between atoms: C_7  and  O_8
REMARK    4  A    between atoms: O_8  and  C_9
REMARK    5  A    between atoms: C_9  and  C_10
REMARK    6  A    between atoms: N_16  and  C_17
REMARK                            x       y       z     vdW  Elec       q    Type
REMARK                         _______ _______ _______ _____ _____    ______ ____
ROOT
ATOM      1  C   UNL     1       1.358   4.381  20.685  0.00  0.00    +0.000 C 
ATOM      2  C   UNL     1       1.478   4.128  19.157  0.00  0.00    +0.000 C 
ATOM      3  C   UNL     1       2.328   5.245  18.616  0.00  0.00    +0.000 A 
ATOM      4  N   UNL     1       2.346   6.505  19.008  0.00  0.00    +0.000 NA
ATOM      5  C   UNL     1       3.389   7.091  18.340  0.00  0.00    +0.000 A 
ATOM      6  C   UNL     1       4.014   6.195  17.509  0.00  0.00    +0.000 A 
ATOM      7  N   UNL     1       3.279   5.037  17.659  0.00  0.00    +0.000 N 
ATOM      8  C   UNL     1       3.439   3.787  16.964  0.00  0.00    +0.000 C 
ATOM      9  C   UNL     1       2.915   2.580  17.754  0.00  0.00    +0.000 C 
ATOM     10  N   UNL     1       2.075   2.771  18.962  0.00  0.00    +0.000 NA
ATOM     11  C   UNL     1       1.070   1.687  19.019  0.00  0.00    +0.000 C 
ENDROOT
BRANCH   6  12
ATOM     12  C   UNL     1       5.197   6.318  16.633  0.00  0.00    +0.000 C 
BRANCH  12  13
ATOM     13  O   UNL     1       6.236   5.571  17.251  0.00  0.00    +0.000 OA
BRANCH  13  14
ATOM     14  C   UNL     1       7.068   4.929  16.291  0.00  0.00    +0.000 C 
BRANCH  14  15
ATOM     15  C   UNL     1       6.369   4.994  14.971  0.00  0.00    +0.000 C 
ATOM     16  C   UNL     1       7.159   4.811  13.699  0.00  0.00    +0.000 C 
ATOM     17  C   UNL     1       6.171   3.761  14.126  0.00  0.00    +0.000 C 
ENDBRANCH  14  15
ENDBRANCH  13  14
ENDBRANCH  12  13
ENDBRANCH   6  12
TORSDOF 4
ENDMDL
MODEL 8
REMARK VINA RESULT:      -5.6      1.209      2.055
REMARK  Name = 
REMARK  6 active torsions:
REMARK  status: ('A' for Active; 'I' for Inactive)
REMARK    1  A    between atoms: C_1  and  C_2
REMARK    2  A    between atoms: C_6  and  C_7
REMARK    3  A    between atoms: C_7  and  O_8
REMARK    4  A    between atoms: O_8  and  C_9
REMARK    5  A    between atoms: C_9  and  C_10
REMARK    6  A    between atoms: N_16  and  C_17
REMARK                            x       y       z     vdW  Elec       q    Type
REMARK                         _______ _______ _______ _____ _____    ______ ____
ROOT
ATOM      1  C   UNL     1       1.946   5.431  20.360  0.00  0.00    +0.000 C 
ATOM      2  C   UNL     1       2.208   4.555  19.105  0.00  0.00    +0.000 C 
ATOM      3  C   UNL     1       3.199   5.316  18.266  0.00  0.00    +0.000 A 
ATOM      4  N   UNL     1       3.276   6.623  18.101  0.00  0.00    +0.000 NA
ATOM      5  C   UNL     1       4.429   6.844  17.393  0.00  0.00    +0.000 A 
ATOM      6  C   UNL     1       5.066   5.664  17.098  0.00  0.00    +0.000 A 
ATOM      7  N   UNL     1       4.227   4.698  17.616  0.00  0.00    +0.000 N 
ATOM      8  C   UNL     1       4.360   3.268  17.529  0.00  0.00    +0.000 C 
ATOM      9  C   UNL     1       3.658   2.521  18.671  0.00  0.00    +0.000 C 
ATOM     10  N   UNL     1       2.711   3.226  19.570  0.00  0.00    +0.000 NA
ATOM     11  C   UNL     1       1.622   2.295  19.937  0.00  0.00    +0.000 C 
ENDROOT
BRANCH   6  12
ATOM     12  C   UNL     1       6.342   5.373  16.413  0.00  0.00    +0.000 C 
BRANCH  12  13
ATOM     13  O   UNL     1       6.058   5.358  15.021  0.00  0.00    +0.000 OA
BRANCH  13  14
ATOM     14  C   UNL     1       5.890   4.032  14.531  0.00  0.00    +0.000 C 
BRANCH  14  15
ATOM     15  C   UNL     1       5.603   4.124  13.067  0.00  0.00    +0.000 C 
ATOM     16  C   UNL     1       6.744   4.115  12.081  0.00  0.00    +0.000 C 
ATOM     17  C   UNL     1       5.806   2.943  12.151  0.00  0.00    +0.000 C 
ENDBRANCH  14  15
ENDBRANCH  13  14
ENDBRANCH  12  13
ENDBRANCH   6  12
TORSDOF 4
ENDMDL
MODEL 9
REMARK VINA RESULT:      -5.6      2.750      5.321
REMARK  Name = 
REMARK  6 active torsions:
REMARK  status: ('A' for Active; 'I' for Inactive)
REMARK    1  A    between atoms: C_1  and  C_2
REMARK    2  A    between atoms: C_6  and  C_7
REMARK    3  A    between atoms: C_7  and  O_8
REMARK    4  A    between atoms: O_8  and  C_9
REMARK    5  A    between atoms: C_9  and  C_10
REMARK    6  A    between atoms: N_16  and  C_17
REMARK                            x       y       z     vdW  Elec       q    Type
REMARK                         _______ _______ _______ _____ _____    ______ ____
ROOT
ATOM      1  C   UNL     1       5.064   6.433  15.638  0.00  0.00    +0.000 C 
ATOM      2  C   UNL     1       5.473   6.218  17.120  0.00  0.00    +0.000 C 
ATOM      3  C   UNL     1       4.256   6.553  17.940  0.00  0.00    +0.000 A 
ATOM      4  N   UNL     1       3.363   7.496  17.705  0.00  0.00    +0.000 NA
ATOM      5  C   UNL     1       2.365   7.304  18.624  0.00  0.00    +0.000 A 
ATOM      6  C   UNL     1       2.648   6.247  19.453  0.00  0.00    +0.000 A 
ATOM      7  N   UNL     1       3.891   5.822  19.033  0.00  0.00    +0.000 N 
ATOM      8  C   UNL     1       4.713   4.784  19.598  0.00  0.00    +0.000 C 
ATOM      9  C   UNL     1       5.688   4.162  18.589  0.00  0.00    +0.000 C 
ATOM     10  N   UNL     1       5.926   4.801  17.271  0.00  0.00    +0.000 NA
ATOM     11  C   UNL     1       7.344   4.608  16.898  0.00  0.00    +0.000 C 
ENDROOT
BRANCH   6  12
ATOM     12  C   UNL     1       1.884   5.618  20.550  0.00  0.00    +0.000 C 
BRANCH  12  13
ATOM     13  O   UNL     1       1.056   4.632  19.950  0.00  0.00    +0.000 OA
BRANCH  13  14
ATOM     14  C   UNL     1       1.541   3.316  20.193  0.00  0.00    +0.000 C 
BRANCH  14  15
ATOM     15  C   UNL     1       1.441   2.553  18.910  0.00  0.00    +0.000 C 
ATOM     16  C   UNL     1       2.085   3.104  17.663  0.00  0.00    +0.000 C 
ATOM     17  C   UNL     1       2.642   1.867  18.310  0.00  0.00    +0.000 C 
ENDBRANCH  14  15
ENDBRANCH  13  14
ENDBRANCH  12  13
ENDBRANCH   6  12
TORSDOF 4
ENDMDL
