MODEL 1
REMARK VINA RESULT:      -9.2      0.000      0.000
REMARK  Name = 
REMARK  6 active torsions:
REMARK  status: ('A' for Active; 'I' for Inactive)
REMARK    1  A    between atoms: C_1  and  C_2
REMARK    2  A    between atoms: C_2  and  C_3
REMARK    3  A    between atoms: C_5  and  N_6
REMARK    4  A    between atoms: C_10  and  N_11
REMARK    5  A    between atoms: N_11  and  C_12
REMARK    6  A    between atoms: C_24  and  C_25
REMARK                            x       y       z     vdW  Elec       q    Type
REMARK                         _______ _______ _______ _____ _____    ______ ____
ROOT
ATOM      1  N   UNL     1       4.222   3.947  17.931  0.00  0.00    +0.000 N 
ATOM      2  C   UNL     1       3.040   3.507  17.195  0.00  0.00    +0.000 C 
ATOM      3  C   UNL     1       1.800   4.275  17.640  0.00  0.00    +0.000 C 
ATOM      4  C   UNL     1       1.638   4.266  19.163  0.00  0.00    +0.000 C 
ATOM      5  C   UNL     1       2.901   4.748  19.890  0.00  0.00    +0.000 C 
ATOM      6  C   UNL     1       4.136   3.949  19.396  0.00  0.00    +0.000 C 
ENDROOT
BRANCH   1   9
ATOM      7  C   UNL     1       6.581   4.902  15.318  0.00  0.00    +0.000 A 
ATOM      8  C   UNL     1       5.579   4.206  15.967  0.00  0.00    +0.000 A 
ATOM      9  C   UNL     1       5.256   4.573  17.261  0.00  0.00    +0.000 A 
ATOM     10  N   UNL     1       5.913   5.583  17.864  0.00  0.00    +0.000 NA
ATOM     11  C   UNL     1       6.894   6.198  17.168  0.00  0.00    +0.000 A 
ATOM     12  C   UNL     1       7.643   7.306  17.843  0.00  0.00    +0.000 C 
ATOM     13  N   UNL     1       7.255   5.902  15.911  0.00  0.00    +0.000 NA
BRANCH   7  15
ATOM     14  C   UNL     1       5.867   3.665  13.273  0.00  0.00    +0.000 C 
ATOM     15  C   UNL     1       6.894   4.611  13.876  0.00  0.00    +0.000 C 
ENDBRANCH   7  15
ENDBRANCH   1   9
BRANCH   5  16
ATOM     16  N   UNL     1       3.132   6.179  19.668  0.00  0.00    +0.000 N 
ATOM     17  H   UNL     1       3.831   6.374  18.949  0.00  0.00    +0.000 HD
BRANCH  16  18
ATOM     18  C   UNL     1       2.228   7.196  19.920  0.00  0.00    +0.000 A 
ATOM     19  C   UNL     1       1.545   7.356  21.132  0.00  0.00    +0.000 A 
ATOM     20  C   UNL     1       0.687   8.442  21.351  0.00  0.00    +0.000 A 
ATOM     21  C   UNL     1       0.521   9.409  20.366  0.00  0.00    +0.000 A 
ATOM     22  C   UNL     1       1.252   9.314  19.182  0.00  0.00    +0.000 A 
ATOM     23  C   UNL     1       2.082   8.212  18.959  0.00  0.00    +0.000 A 
ATOM     24  O   UNL     1       1.204  10.267  18.194  0.00  0.00    +0.000 OA
ATOM     25  C   UNL     1       0.603  11.479  18.670  0.00  0.00    +0.000 C 
ATOM     26  C   UNL     1      -0.665  11.170  19.447  0.00  0.00    +0.000 C 
ATOM     27  O   UNL     1      -0.356  10.428  20.634  0.00  0.00    +0.000 OA
ENDBRANCH  16  18
ENDBRANCH   5  16
TORSDOF 4
ENDMDL
MODEL 2
REMARK VINA RESULT:      -9.1      1.001      1.726
REMARK  Name = 
REMARK  6 active torsions:
REMARK  status: ('A' for Active; 'I' for Inactive)
REMARK    1  A    between atoms: C_1  and  C_2
REMARK    2  A    between atoms: C_2  and  C_3
REMARK    3  A    between atoms: C_5  and  N_6
REMARK    4  A    between atoms: C_10  and  N_11
REMARK    5  A    between atoms: N_11  and  C_12
REMARK    6  A    between atoms: C_24  and  C_25
REMARK                            x       y       z     vdW  Elec       q    Type
REMARK                         _______ _______ _______ _____ _____    ______ ____
ROOT
ATOM      1  N   UNL     1       4.421   4.312  18.167  0.00  0.00    +0.000 N 
ATOM      2  C   UNL     1       3.444   3.439  17.525  0.00  0.00    +0.000 C 
ATOM      3  C   UNL     1       2.047   4.049  17.575  0.00  0.00    +0.000 C 
ATOM      4  C   UNL     1       1.667   4.490  18.991  0.00  0.00    +0.000 C 
ATOM      5  C   UNL     1       2.718   5.416  19.620  0.00  0.00    +0.000 C 
ATOM      6  C   UNL     1       4.122   4.761  19.533  0.00  0.00    +0.000 C 
ENDROOT
BRANCH   1   9
ATOM      7  C   UNL     1       6.739   5.014  15.439  0.00  0.00    +0.000 A 
ATOM      8  C   UNL     1       5.763   4.371  16.177  0.00  0.00    +0.000 A 
ATOM      9  C   UNL     1       5.431   4.885  17.418  0.00  0.00    +0.000 A 
ATOM     10  N   UNL     1       6.055   5.984  17.886  0.00  0.00    +0.000 NA
ATOM     11  C   UNL     1       7.012   6.540  17.112  0.00  0.00    +0.000 A 
ATOM     12  C   UNL     1       7.725   7.748  17.639  0.00  0.00    +0.000 C 
ATOM     13  N   UNL     1       7.380   6.103  15.898  0.00  0.00    +0.000 NA
BRANCH   7  15
ATOM     14  C   UNL     1       5.901   3.768  13.448  0.00  0.00    +0.000 C 
ATOM     15  C   UNL     1       7.057   4.557  14.042  0.00  0.00    +0.000 C 
ENDBRANCH   7  15
ENDBRANCH   1   9
BRANCH   5  16
ATOM     16  N   UNL     1       2.752   6.720  18.948  0.00  0.00    +0.000 N 
ATOM     17  H   UNL     1       2.984   6.662  17.955  0.00  0.00    +0.000 HD
BRANCH  16  18
ATOM     18  C   UNL     1       2.062   7.853  19.339  0.00  0.00    +0.000 A 
ATOM     19  C   UNL     1       1.658   8.867  18.460  0.00  0.00    +0.000 A 
ATOM     20  C   UNL     1       0.906   9.963  18.905  0.00  0.00    +0.000 A 
ATOM     21  C   UNL     1       0.519  10.049  20.236  0.00  0.00    +0.000 A 
ATOM     22  C   UNL     1       0.841   9.013  21.114  0.00  0.00    +0.000 A 
ATOM     23  C   UNL     1       1.616   7.938  20.670  0.00  0.00    +0.000 A 
ATOM     24  O   UNL     1       0.429   8.985  22.423  0.00  0.00    +0.000 OA
ATOM     25  C   UNL     1      -0.613   9.940  22.661  0.00  0.00    +0.000 C 
ATOM     26  C   UNL     1      -0.256  11.278  22.037  0.00  0.00    +0.000 C 
ATOM     27  O   UNL     1      -0.188  11.163  20.611  0.00  0.00    +0.000 OA
ENDBRANCH  16  18
ENDBRANCH   5  16
TORSDOF 4
ENDMDL
MODEL 3
REMARK VINA RESULT:      -9.0      0.652      2.135
REMARK  Name = 
REMARK  6 active torsions:
REMARK  status: ('A' for Active; 'I' for Inactive)
REMARK    1  A    between atoms: C_1  and  C_2
REMARK    2  A    between atoms: C_2  and  C_3
REMARK    3  A    between atoms: C_5  and  N_6
REMARK    4  A    between atoms: C_10  and  N_11
REMARK    5  A    between atoms: N_11  and  C_12
REMARK    6  A    between atoms: C_24  and  C_25
REMARK                            x       y       z     vdW  Elec       q    Type
REMARK                         _______ _______ _______ _____ _____    ______ ____
ROOT
ATOM      1  N   UNL     1       4.091   4.121  18.137  0.00  0.00    +0.000 N 
ATOM      2  C   UNL     1       2.937   3.678  17.362  0.00  0.00    +0.000 C 
ATOM      3  C   UNL     1       1.679   4.441  17.767  0.00  0.00    +0.000 C 
ATOM      4  C   UNL     1       1.467   4.429  19.283  0.00  0.00    +0.000 C 
ATOM      5  C   UNL     1       2.703   4.915  20.053  0.00  0.00    +0.000 C 
ATOM      6  C   UNL     1       3.956   4.121  19.599  0.00  0.00    +0.000 C 
ENDROOT
BRANCH   1   9
ATOM      7  C   UNL     1       7.016   6.215  17.530  0.00  0.00    +0.000 A 
ATOM      8  C   UNL     1       5.937   5.656  18.188  0.00  0.00    +0.000 A 
ATOM      9  C   UNL     1       5.145   4.752  17.504  0.00  0.00    +0.000 A 
ATOM     10  N   UNL     1       5.427   4.436  16.224  0.00  0.00    +0.000 NA
ATOM     11  C   UNL     1       6.486   5.042  15.647  0.00  0.00    +0.000 A 
ATOM     12  C   UNL     1       6.789   4.713  14.217  0.00  0.00    +0.000 C 
ATOM     13  N   UNL     1       7.302   5.921  16.250  0.00  0.00    +0.000 NA
BRANCH   7  15
ATOM     14  C   UNL     1       7.923   8.532  17.701  0.00  0.00    +0.000 C 
ATOM     15  C   UNL     1       7.967   7.119  18.265  0.00  0.00    +0.000 C 
ENDBRANCH   7  15
ENDBRANCH   1   9
BRANCH   5  16
ATOM     16  N   UNL     1       2.936   6.347  19.840  0.00  0.00    +0.000 N 
ATOM     17  H   UNL     1       3.665   6.545  19.153  0.00  0.00    +0.000 HD
BRANCH  16  18
ATOM     18  C   UNL     1       2.016   7.359  20.049  0.00  0.00    +0.000 A 
ATOM     19  C   UNL     1       1.252   7.496  21.216  0.00  0.00    +0.000 A 
ATOM     20  C   UNL     1       0.380   8.578  21.397  0.00  0.00    +0.000 A 
ATOM     21  C   UNL     1       0.281   9.563  20.422  0.00  0.00    +0.000 A 
ATOM     22  C   UNL     1       1.089   9.492  19.288  0.00  0.00    +0.000 A 
ATOM     23  C   UNL     1       1.934   8.394  19.101  0.00  0.00    +0.000 A 
ATOM     24  O   UNL     1       1.107  10.463  18.318  0.00  0.00    +0.000 OA
ATOM     25  C   UNL     1       0.474  11.666  18.775  0.00  0.00    +0.000 C 
ATOM     26  C   UNL     1      -0.843  11.342  19.459  0.00  0.00    +0.000 C 
ATOM     27  O   UNL     1      -0.614  10.578  20.649  0.00  0.00    +0.000 OA
ENDBRANCH  16  18
ENDBRANCH   5  16
TORSDOF 4
ENDMDL
MODEL 4
REMARK VINA RESULT:      -8.8      1.197      2.789
REMARK  Name = 
REMARK  6 active torsions:
REMARK  status: ('A' for Active; 'I' for Inactive)
REMARK    1  A    between atoms: C_1  and  C_2
REMARK    2  A    between atoms: C_2  and  C_3
REMARK    3  A    between atoms: C_5  and  N_6
REMARK    4  A    between atoms: C_10  and  N_11
REMARK    5  A    between atoms: N_11  and  C_12
REMARK    6  A    between atoms: C_24  and  C_25
REMARK                            x       y       z     vdW  Elec       q    Type
REMARK                         _______ _______ _______ _____ _____    ______ ____
ROOT
ATOM      1  N   UNL     1       4.226   4.370  18.327  0.00  0.00    +0.000 N 
ATOM      2  C   UNL     1       3.235   3.561  17.625  0.00  0.00    +0.000 C 
ATOM      3  C   UNL     1       1.857   4.214  17.677  0.00  0.00    +0.000 C 
ATOM      4  C   UNL     1       1.463   4.601  19.105  0.00  0.00    +0.000 C 
ATOM      5  C   UNL     1       2.530   5.460  19.797  0.00  0.00    +0.000 C 
ATOM      6  C   UNL     1       3.913   4.764  19.706  0.00  0.00    +0.000 C 
ENDROOT
BRANCH   1   9
ATOM      7  C   UNL     1       7.153   6.387  17.505  0.00  0.00    +0.000 A 
ATOM      8  C   UNL     1       6.085   5.887  18.226  0.00  0.00    +0.000 A 
ATOM      9  C   UNL     1       5.270   4.944  17.626  0.00  0.00    +0.000 A 
ATOM     10  N   UNL     1       5.520   4.534  16.367  0.00  0.00    +0.000 NA
ATOM     11  C   UNL     1       6.570   5.087  15.723  0.00  0.00    +0.000 A 
ATOM     12  C   UNL     1       6.836   4.653  14.314  0.00  0.00    +0.000 C 
ATOM     13  N   UNL     1       7.406   5.999  16.243  0.00  0.00    +0.000 NA
BRANCH   7  15
ATOM     14  C   UNL     1       7.871   8.766  17.712  0.00  0.00    +0.000 C 
ATOM     15  C   UNL     1       8.127   7.333  18.150  0.00  0.00    +0.000 C 
ENDBRANCH   7  15
ENDBRANCH   1   9
BRANCH   5  16
ATOM     16  N   UNL     1       2.619   6.792  19.190  0.00  0.00    +0.000 N 
ATOM     17  H   UNL     1       2.928   6.778  18.216  0.00  0.00    +0.000 HD
BRANCH  16  18
ATOM     18  C   UNL     1       1.905   7.912  19.577  0.00  0.00    +0.000 A 
ATOM     19  C   UNL     1       1.430   8.885  18.687  0.00  0.00    +0.000 A 
ATOM     20  C   UNL     1       0.658   9.967  19.131  0.00  0.00    +0.000 A 
ATOM     21  C   UNL     1       0.320  10.077  20.474  0.00  0.00    +0.000 A 
ATOM     22  C   UNL     1       0.713   9.079  21.366  0.00  0.00    +0.000 A 
ATOM     23  C   UNL     1       1.509   8.019  20.921  0.00  0.00    +0.000 A 
ATOM     24  O   UNL     1       0.355   9.075  22.691  0.00  0.00    +0.000 OA
ATOM     25  C   UNL     1      -0.712   9.999  22.944  0.00  0.00    +0.000 C 
ATOM     26  C   UNL     1      -0.428  11.331  22.270  0.00  0.00    +0.000 C 
ATOM     27  O   UNL     1      -0.412  11.176  20.846  0.00  0.00    +0.000 OA
ENDBRANCH  16  18
ENDBRANCH   5  16
TORSDOF 4
ENDMDL
MODEL 5
REMARK VINA RESULT:      -8.6      0.665      1.473
REMARK  Name = 
REMARK  6 active torsions:
REMARK  status: ('A' for Active; 'I' for Inactive)
REMARK    1  A    between atoms: C_1  and  C_2
REMARK    2  A    between atoms: C_2  and  C_3
REMARK    3  A    between atoms: C_5  and  N_6
REMARK    4  A    between atoms: C_10  and  N_11
REMARK    5  A    between atoms: N_11  and  C_12
REMARK    6  A    between atoms: C_24  and  C_25
REMARK                            x       y       z     vdW  Elec       q    Type
REMARK                         _______ _______ _______ _____ _____    ______ ____
ROOT
ATOM      1  N   UNL     1       4.074   3.883  17.840  0.00  0.00    +0.000 N 
ATOM      2  C   UNL     1       2.815   3.813  17.105  0.00  0.00    +0.000 C 
ATOM      3  C   UNL     1       1.742   4.669  17.771  0.00  0.00    +0.000 C 
ATOM      4  C   UNL     1       1.620   4.369  19.267  0.00  0.00    +0.000 C 
ATOM      5  C   UNL     1       2.966   4.467  19.999  0.00  0.00    +0.000 C 
ATOM      6  C   UNL     1       4.026   3.593  19.278  0.00  0.00    +0.000 C 
ENDROOT
BRANCH   1   9
ATOM      7  C   UNL     1       6.599   4.795  15.371  0.00  0.00    +0.000 A 
ATOM      8  C   UNL     1       5.513   4.156  15.938  0.00  0.00    +0.000 A 
ATOM      9  C   UNL     1       5.186   4.451  17.249  0.00  0.00    +0.000 A 
ATOM     10  N   UNL     1       5.920   5.340  17.947  0.00  0.00    +0.000 NA
ATOM     11  C   UNL     1       6.979   5.905  17.327  0.00  0.00    +0.000 A 
ATOM     12  C   UNL     1       7.812   6.875  18.107  0.00  0.00    +0.000 C 
ATOM     13  N   UNL     1       7.350   5.673  16.059  0.00  0.00    +0.000 NA
BRANCH   7  15
ATOM     14  C   UNL     1       5.891   3.703  13.243  0.00  0.00    +0.000 C 
ATOM     15  C   UNL     1       6.929   4.587  13.918  0.00  0.00    +0.000 C 
ENDBRANCH   7  15
ENDBRANCH   1   9
BRANCH   5  16
ATOM     16  N   UNL     1       3.442   5.853  20.056  0.00  0.00    +0.000 N 
ATOM     17  H   UNL     1       4.459   5.934  20.112  0.00  0.00    +0.000 HD
BRANCH  16  18
ATOM     18  C   UNL     1       2.778   6.962  19.564  0.00  0.00    +0.000 A 
ATOM     19  C   UNL     1       2.834   7.380  18.228  0.00  0.00    +0.000 A 
ATOM     20  C   UNL     1       2.089   8.477  17.774  0.00  0.00    +0.000 A 
ATOM     21  C   UNL     1       1.248   9.158  18.645  0.00  0.00    +0.000 A 
ATOM     22  C   UNL     1       1.114   8.712  19.960  0.00  0.00    +0.000 A 
ATOM     23  C   UNL     1       1.883   7.636  20.414  0.00  0.00    +0.000 A 
ATOM     24  O   UNL     1       0.248   9.281  20.859  0.00  0.00    +0.000 OA
ATOM     25  C   UNL     1      -0.705  10.126  20.201  0.00  0.00    +0.000 C 
ATOM     26  C   UNL     1      -0.006  11.024  19.193  0.00  0.00    +0.000 C 
ATOM     27  O   UNL     1       0.572  10.240  18.142  0.00  0.00    +0.000 OA
ENDBRANCH  16  18
ENDBRANCH   5  16
TORSDOF 4
ENDMDL
MODEL 6
REMARK VINA RESULT:      -8.4      1.180      1.875
REMARK  Name = 
REMARK  6 active torsions:
REMARK  status: ('A' for Active; 'I' for Inactive)
REMARK    1  A    between atoms: C_1  and  C_2
REMARK    2  A    between atoms: C_2  and  C_3
REMARK    3  A    between atoms: C_5  and  N_6
REMARK    4  A    between atoms: C_10  and  N_11
REMARK    5  A    between atoms: N_11  and  C_12
REMARK    6  A    between atoms: C_24  and  C_25
REMARK                            x       y       z     vdW  Elec       q    Type
REMARK                         _______ _______ _______ _____ _____    ______ ____
ROOT
ATOM      1  N   UNL     1       3.757   3.580  18.574  0.00  0.00    +0.000 N 
ATOM      2  C   UNL     1       2.589   3.174  17.799  0.00  0.00    +0.000 C 
ATOM      3  C   UNL     1       1.450   4.177  17.958  0.00  0.00    +0.000 C 
ATOM      4  C   UNL     1       1.159   4.481  19.430  0.00  0.00    +0.000 C 
ATOM      5  C   UNL     1       2.414   4.914  20.200  0.00  0.00    +0.000 C 
ATOM      6  C   UNL     1       3.547   3.873  19.996  0.00  0.00    +0.000 C 
ENDROOT
BRANCH   1   9
ATOM      7  C   UNL     1       6.236   4.117  15.952  0.00  0.00    +0.000 A 
ATOM      8  C   UNL     1       5.067   3.708  16.566  0.00  0.00    +0.000 A 
ATOM      9  C   UNL     1       4.930   3.918  17.927  0.00  0.00    +0.000 A 
ATOM     10  N   UNL     1       5.921   4.506  18.625  0.00  0.00    +0.000 NA
ATOM     11  C   UNL     1       7.039   4.857  17.955  0.00  0.00    +0.000 A 
ATOM     12  C   UNL     1       8.153   5.488  18.732  0.00  0.00    +0.000 C 
ATOM     13  N   UNL     1       7.239   4.692  16.638  0.00  0.00    +0.000 NA
BRANCH   7  15
ATOM     14  C   UNL     1       7.362   5.049  13.931  0.00  0.00    +0.000 C 
ATOM     15  C   UNL     1       6.387   4.007  14.460  0.00  0.00    +0.000 C 
ENDBRANCH   7  15
ENDBRANCH   1   9
BRANCH   5  16
ATOM     16  N   UNL     1       2.884   6.231  19.757  0.00  0.00    +0.000 N 
ATOM     17  H   UNL     1       3.559   6.188  18.990  0.00  0.00    +0.000 HD
BRANCH  16  18
ATOM     18  C   UNL     1       2.197   7.425  19.886  0.00  0.00    +0.000 A 
ATOM     19  C   UNL     1       1.878   8.266  18.811  0.00  0.00    +0.000 A 
ATOM     20  C   UNL     1       1.125   9.434  18.995  0.00  0.00    +0.000 A 
ATOM     21  C   UNL     1       0.650   9.765  20.258  0.00  0.00    +0.000 A 
ATOM     22  C   UNL     1       0.887   8.903  21.329  0.00  0.00    +0.000 A 
ATOM     23  C   UNL     1       1.664   7.756  21.144  0.00  0.00    +0.000 A 
ATOM     24  O   UNL     1       0.387   9.119  22.589  0.00  0.00    +0.000 OA
ATOM     25  C   UNL     1      -0.646  10.113  22.575  0.00  0.00    +0.000 C 
ATOM     26  C   UNL     1      -0.215  11.311  21.747  0.00  0.00    +0.000 C 
ATOM     27  O   UNL     1      -0.053  10.937  20.373  0.00  0.00    +0.000 OA
ENDBRANCH  16  18
ENDBRANCH   5  16
TORSDOF 4
ENDMDL
MODEL 7
REMARK VINA RESULT:      -8.2      0.859      2.539
REMARK  Name = 
REMARK  6 active torsions:
REMARK  status: ('A' for Active; 'I' for Inactive)
REMARK    1  A    between atoms: C_1  and  C_2
REMARK    2  A    between atoms: C_2  and  C_3
REMARK    3  A    between atoms: C_5  and  N_6
REMARK    4  A    between atoms: C_10  and  N_11
REMARK    5  A    between atoms: N_11  and  C_12
REMARK    6  A    between atoms: C_24  and  C_25
REMARK                            x       y       z     vdW  Elec       q    Type
REMARK                         _______ _______ _______ _____ _____    ______ ____
ROOT
ATOM      1  N   UNL     1       3.917   3.938  17.866  0.00  0.00    +0.000 N 
ATOM      2  C   UNL     1       2.642   3.881  17.159  0.00  0.00    +0.000 C 
ATOM      3  C   UNL     1       1.587   4.732  17.861  0.00  0.00    +0.000 C 
ATOM      4  C   UNL     1       1.498   4.413  19.355  0.00  0.00    +0.000 C 
ATOM      5  C   UNL     1       2.861   4.498  20.056  0.00  0.00    +0.000 C 
ATOM      6  C   UNL     1       3.902   3.630  19.301  0.00  0.00    +0.000 C 
ENDROOT
BRANCH   1   9
ATOM      7  C   UNL     1       6.944   5.899  17.317  0.00  0.00    +0.000 A 
ATOM      8  C   UNL     1       5.821   5.399  17.948  0.00  0.00    +0.000 A 
ATOM      9  C   UNL     1       5.017   4.511  17.257  0.00  0.00    +0.000 A 
ATOM     10  N   UNL     1       5.332   4.152  15.996  0.00  0.00    +0.000 NA
ATOM     11  C   UNL     1       6.434   4.702  15.443  0.00  0.00    +0.000 A 
ATOM     12  C   UNL     1       6.774   4.325  14.034  0.00  0.00    +0.000 C 
ATOM     13  N   UNL     1       7.263   5.562  16.055  0.00  0.00    +0.000 NA
BRANCH   7  15
ATOM     14  C   UNL     1       7.767   8.233  17.625  0.00  0.00    +0.000 C 
ATOM     15  C   UNL     1       7.904   6.783  18.064  0.00  0.00    +0.000 C 
ENDBRANCH   7  15
ENDBRANCH   1   9
BRANCH   5  16
ATOM     16  N   UNL     1       3.343   5.882  20.121  0.00  0.00    +0.000 N 
ATOM     17  H   UNL     1       4.360   5.958  20.183  0.00  0.00    +0.000 HD
BRANCH  16  18
ATOM     18  C   UNL     1       2.687   6.994  19.627  0.00  0.00    +0.000 A 
ATOM     19  C   UNL     1       2.733   7.401  18.286  0.00  0.00    +0.000 A 
ATOM     20  C   UNL     1       1.997   8.503  17.831  0.00  0.00    +0.000 A 
ATOM     21  C   UNL     1       1.173   9.201  18.706  0.00  0.00    +0.000 A 
ATOM     22  C   UNL     1       1.048   8.767  20.026  0.00  0.00    +0.000 A 
ATOM     23  C   UNL     1       1.809   7.686  20.480  0.00  0.00    +0.000 A 
ATOM     24  O   UNL     1       0.199   9.354  20.930  0.00  0.00    +0.000 OA
ATOM     25  C   UNL     1      -0.750  10.206  20.274  0.00  0.00    +0.000 C 
ATOM     26  C   UNL     1      -0.052  11.087  19.252  0.00  0.00    +0.000 C 
ATOM     27  O   UNL     1       0.505  10.287  18.201  0.00  0.00    +0.000 OA
ENDBRANCH  16  18
ENDBRANCH   5  16
TORSDOF 4
ENDMDL
MODEL 8
REMARK VINA RESULT:      -7.6      3.185      6.951
REMARK  Name = 
REMARK  6 active torsions:
REMARK  status: ('A' for Active; 'I' for Inactive)
REMARK    1  A    between atoms: C_1  and  C_2
REMARK    2  A    between atoms: C_2  and  C_3
REMARK    3  A    between atoms: C_5  and  N_6
REMARK    4  A    between atoms: C_10  and  N_11
REMARK    5  A    between atoms: N_11  and  C_12
REMARK    6  A    between atoms: C_24  and  C_25
REMARK                            x       y       z     vdW  Elec       q    Type
REMARK                         _______ _______ _______ _____ _____    ______ ____
ROOT
ATOM      1  N   UNL     1       1.646   4.590  19.882  0.00  0.00    +0.000 N 
ATOM      2  C   UNL     1       1.456   3.838  21.119  0.00  0.00    +0.000 C 
ATOM      3  C   UNL     1       2.684   2.992  21.439  0.00  0.00    +0.000 C 
ATOM      4  C   UNL     1       3.120   2.142  20.243  0.00  0.00    +0.000 C 
ATOM      5  C   UNL     1       3.318   2.977  18.970  0.00  0.00    +0.000 C 
ATOM      6  C   UNL     1       2.051   3.830  18.693  0.00  0.00    +0.000 C 
ENDROOT
BRANCH   1   9
ATOM      7  C   UNL     1       2.091   8.066  18.869  0.00  0.00    +0.000 A 
ATOM      8  C   UNL     1       2.118   6.685  18.810  0.00  0.00    +0.000 A 
ATOM      9  C   UNL     1       1.693   5.970  19.915  0.00  0.00    +0.000 A 
ATOM     10  N   UNL     1       1.268   6.617  21.018  0.00  0.00    +0.000 NA
ATOM     11  C   UNL     1       1.293   7.967  21.004  0.00  0.00    +0.000 A 
ATOM     12  C   UNL     1       0.845   8.690  22.237  0.00  0.00    +0.000 C 
ATOM     13  N   UNL     1       1.684   8.725  19.968  0.00  0.00    +0.000 NA
BRANCH   7  15
ATOM     14  C   UNL     1       2.045  10.340  17.847  0.00  0.00    +0.000 C 
ATOM     15  C   UNL     1       2.442   8.884  17.657  0.00  0.00    +0.000 C 
ENDBRANCH   7  15
ENDBRANCH   1   9
BRANCH   5  16
ATOM     16  N   UNL     1       4.480   3.864  19.089  0.00  0.00    +0.000 N 
ATOM     17  H   UNL     1       4.901   3.865  20.019  0.00  0.00    +0.000 HD
BRANCH  16  18
ATOM     18  C   UNL     1       5.309   4.259  18.054  0.00  0.00    +0.000 A 
ATOM     19  C   UNL     1       6.564   4.854  18.239  0.00  0.00    +0.000 A 
ATOM     20  C   UNL     1       7.387   5.177  17.152  0.00  0.00    +0.000 A 
ATOM     21  C   UNL     1       6.981   4.880  15.857  0.00  0.00    +0.000 A 
ATOM     22  C   UNL     1       5.772   4.216  15.652  0.00  0.00    +0.000 A 
ATOM     23  C   UNL     1       4.942   3.924  16.739  0.00  0.00    +0.000 A 
ATOM     24  O   UNL     1       5.336   3.819  14.412  0.00  0.00    +0.000 OA
ATOM     25  C   UNL     1       6.397   3.866  13.449  0.00  0.00    +0.000 C 
ATOM     26  C   UNL     1       7.162   5.173  13.568  0.00  0.00    +0.000 C 
ATOM     27  O   UNL     1       7.821   5.251  14.838  0.00  0.00    +0.000 OA
ENDBRANCH  16  18
ENDBRANCH   5  16
TORSDOF 4
ENDMDL
MODEL 9
REMARK VINA RESULT:      -7.5      3.202      7.196
REMARK  Name = 
REMARK  6 active torsions:
REMARK  status: ('A' for Active; 'I' for Inactive)
REMARK    1  A    between atoms: C_1  and  C_2
REMARK    2  A    between atoms: C_2  and  C_3
REMARK    3  A    between atoms: C_5  and  N_6
REMARK    4  A    between atoms: C_10  and  N_11
REMARK    5  A    between atoms: N_11  and  C_12
REMARK    6  A    between atoms: C_24  and  C_25
REMARK                            x       y       z     vdW  Elec       q    Type
REMARK                         _______ _______ _______ _____ _____    ______ ____
ROOT
ATOM      1  N   UNL     1       1.680   4.432  19.793  0.00  0.00    +0.000 N 
ATOM      2  C   UNL     1       1.470   3.718  21.048  0.00  0.00    +0.000 C 
ATOM      3  C   UNL     1       2.701   2.901  21.427  0.00  0.00    +0.000 C 
ATOM      4  C   UNL     1       3.180   2.020  20.271  0.00  0.00    +0.000 C 
ATOM      5  C   UNL     1       3.399   2.817  18.977  0.00  0.00    +0.000 C 
ATOM      6  C   UNL     1       2.127   3.641  18.640  0.00  0.00    +0.000 C 
ENDROOT
BRANCH   1   9
ATOM      7  C   UNL     1       1.328   7.911  20.829  0.00  0.00    +0.000 A 
ATOM      8  C   UNL     1       1.226   6.534  20.860  0.00  0.00    +0.000 A 
ATOM      9  C   UNL     1       1.707   5.813  19.782  0.00  0.00    +0.000 A 
ATOM     10  N   UNL     1       2.257   6.452  18.731  0.00  0.00    +0.000 NA
ATOM     11  C   UNL     1       2.301   7.801  18.769  0.00  0.00    +0.000 A 
ATOM     12  C   UNL     1       2.889   8.517  17.592  0.00  0.00    +0.000 C 
ATOM     13  N   UNL     1       1.862   8.564  19.782  0.00  0.00    +0.000 NA
BRANCH   7  15
ATOM     14  C   UNL     1       0.729  10.191  21.644  0.00  0.00    +0.000 C 
ATOM     15  C   UNL     1       0.918   8.730  22.022  0.00  0.00    +0.000 C 
ENDBRANCH   7  15
ENDBRANCH   1   9
BRANCH   5  16
ATOM     16  N   UNL     1       4.544   3.724  19.096  0.00  0.00    +0.000 N 
ATOM     17  H   UNL     1       4.969   3.727  20.025  0.00  0.00    +0.000 HD
BRANCH  16  18
ATOM     18  C   UNL     1       5.361   4.141  18.060  0.00  0.00    +0.000 A 
ATOM     19  C   UNL     1       6.625   4.718  18.242  0.00  0.00    +0.000 A 
ATOM     20  C   UNL     1       7.435   5.065  17.152  0.00  0.00    +0.000 A 
ATOM     21  C   UNL     1       7.005   4.810  15.856  0.00  0.00    +0.000 A 
ATOM     22  C   UNL     1       5.786   4.164  15.651  0.00  0.00    +0.000 A 
ATOM     23  C   UNL     1       4.970   3.849  16.742  0.00  0.00    +0.000 A 
ATOM     24  O   UNL     1       5.327   3.808  14.407  0.00  0.00    +0.000 OA
ATOM     25  C   UNL     1       6.373   3.873  13.429  0.00  0.00    +0.000 C 
ATOM     26  C   UNL     1       7.153   5.168  13.574  0.00  0.00    +0.000 C 
ATOM     27  O   UNL     1       7.833   5.202  14.835  0.00  0.00    +0.000 OA
ENDBRANCH  16  18
ENDBRANCH   5  16
TORSDOF 4
ENDMDL
