MODEL 1
REMARK VINA RESULT:      -7.9      0.000      0.000
REMARK  Name = 
REMARK  7 active torsions:
REMARK  status: ('A' for Active; 'I' for Inactive)
REMARK    1  A    between atoms: C_1  and  C_2
REMARK    2  A    between atoms: C_7  and  C_8
REMARK    3  A    between atoms: C_8  and  C_9
REMARK    4  A    between atoms: C_9  and  C_11
REMARK    5  A    between atoms: C_14  and  O_15
REMARK    6  A    between atoms: C_16  and  O_17
REMARK    7  A    between atoms: C_18  and  O_19
REMARK                            x       y       z     vdW  Elec       q    Type
REMARK                         _______ _______ _______ _____ _____    ______ ____
ROOT
ATOM      1  C   UNL     1       4.672   6.199  17.706  0.00  0.00    +0.000 A 
ATOM      2  C   UNL     1       5.153   5.537  18.864  0.00  0.00    +0.000 A 
ATOM      3  C   UNL     1       6.367   4.839  18.890  0.00  0.00    +0.000 A 
ATOM      4  C   UNL     1       7.103   4.738  17.725  0.00  0.00    +0.000 A 
ATOM      5  C   UNL     1       6.658   5.381  16.573  0.00  0.00    +0.000 A 
ATOM      6  C   UNL     1       5.491   6.164  16.573  0.00  0.00    +0.000 A 
ENDROOT
BRANCH   1   7
ATOM      7  C   UNL     1       3.318   6.828  17.827  0.00  0.00    +0.000 C 
ATOM      8  O   UNL     1       3.265   8.078  17.845  0.00  0.00    +0.000 OA
BRANCH   7   9
ATOM      9  C   UNL     1       2.013   6.067  17.909  0.00  0.00    +0.000 C 
BRANCH   9  16
ATOM     10  C   UNL     1       1.859   5.245  20.782  0.00  0.00    +0.000 C 
ATOM     11  C   UNL     1       1.757   4.247  19.655  0.00  0.00    +0.000 A 
ATOM     12  C   UNL     1       1.438   2.914  19.952  0.00  0.00    +0.000 A 
ATOM     13  C   UNL     1       1.681   1.918  19.013  0.00  0.00    +0.000 A 
ATOM     14  C   UNL     1       2.296   2.247  17.809  0.00  0.00    +0.000 A 
ATOM     15  C   UNL     1       2.486   3.584  17.457  0.00  0.00    +0.000 A 
ATOM     16  C   UNL     1       2.087   4.606  18.332  0.00  0.00    +0.000 A 
ENDBRANCH   9  16
ENDBRANCH   7   9
ENDBRANCH   1   7
BRANCH   4  17
ATOM     17  O   UNL     1       8.285   4.058  17.661  0.00  0.00    +0.000 OA
ATOM     18  H   UNL     1       8.584   4.066  16.733  0.00  0.00    +0.000 HD
ENDBRANCH   4  17
BRANCH   5  19
ATOM     19  O   UNL     1       7.388   5.262  15.430  0.00  0.00    +0.000 OA
ATOM     20  H   UNL     1       8.228   4.852  15.705  0.00  0.00    +0.000 HD
ENDBRANCH   5  19
BRANCH   6  21
ATOM     21  O   UNL     1       5.248   6.924  15.464  0.00  0.00    +0.000 OA
ATOM     22  H   UNL     1       4.269   7.006  15.426  0.00  0.00    +0.000 HD
ENDBRANCH   6  21
TORSDOF 6
ENDMDL
MODEL 2
REMARK VINA RESULT:      -7.8      0.745      1.725
REMARK  Name = 
REMARK  7 active torsions:
REMARK  status: ('A' for Active; 'I' for Inactive)
REMARK    1  A    between atoms: C_1  and  C_2
REMARK    2  A    between atoms: C_7  and  C_8
REMARK    3  A    between atoms: C_8  and  C_9
REMARK    4  A    between atoms: C_9  and  C_11
REMARK    5  A    between atoms: C_14  and  O_15
REMARK    6  A    between atoms: C_16  and  O_17
REMARK    7  A    between atoms: C_18  and  O_19
REMARK                            x       y       z     vdW  Elec       q    Type
REMARK                         _______ _______ _______ _____ _____    ______ ____
ROOT
ATOM      1  C   UNL     1       4.780   6.050  17.739  0.00  0.00    +0.000 A 
ATOM      2  C   UNL     1       5.319   5.477  18.919  0.00  0.00    +0.000 A 
ATOM      3  C   UNL     1       6.557   4.823  18.949  0.00  0.00    +0.000 A 
ATOM      4  C   UNL     1       7.261   4.676  17.769  0.00  0.00    +0.000 A 
ATOM      5  C   UNL     1       6.759   5.231  16.595  0.00  0.00    +0.000 A 
ATOM      6  C   UNL     1       5.565   5.973  16.584  0.00  0.00    +0.000 A 
ENDROOT
BRANCH   1   7
ATOM      7  C   UNL     1       3.408   6.639  17.866  0.00  0.00    +0.000 C 
ATOM      8  O   UNL     1       3.312   7.885  17.807  0.00  0.00    +0.000 OA
BRANCH   7   9
ATOM      9  C   UNL     1       2.134   5.841  18.037  0.00  0.00    +0.000 C 
BRANCH   9  16
ATOM     10  C   UNL     1       2.399   2.954  17.302  0.00  0.00    +0.000 C 
ATOM     11  C   UNL     1       2.520   3.433  18.726  0.00  0.00    +0.000 A 
ATOM     12  C   UNL     1       2.911   2.524  19.720  0.00  0.00    +0.000 A 
ATOM     13  C   UNL     1       2.693   2.825  21.060  0.00  0.00    +0.000 A 
ATOM     14  C   UNL     1       2.033   4.003  21.398  0.00  0.00    +0.000 A 
ATOM     15  C   UNL     1       1.769   4.968  20.424  0.00  0.00    +0.000 A 
ATOM     16  C   UNL     1       2.141   4.741  19.090  0.00  0.00    +0.000 A 
ENDBRANCH   9  16
ENDBRANCH   7   9
ENDBRANCH   1   7
BRANCH   4  17
ATOM     17  O   UNL     1       8.464   4.033  17.708  0.00  0.00    +0.000 OA
ATOM     18  H   UNL     1       8.443   3.298  18.347  0.00  0.00    +0.000 HD
ENDBRANCH   4  17
BRANCH   5  19
ATOM     19  O   UNL     1       7.458   5.066  15.438  0.00  0.00    +0.000 OA
ATOM     20  H   UNL     1       7.729   5.965  15.174  0.00  0.00    +0.000 HD
ENDBRANCH   5  19
BRANCH   6  21
ATOM     21  O   UNL     1       5.263   6.654  15.440  0.00  0.00    +0.000 OA
ATOM     22  H   UNL     1       5.292   5.975  14.729  0.00  0.00    +0.000 HD
ENDBRANCH   6  21
TORSDOF 6
ENDMDL
MODEL 3
REMARK VINA RESULT:      -7.7      1.959      2.820
REMARK  Name = 
REMARK  7 active torsions:
REMARK  status: ('A' for Active; 'I' for Inactive)
REMARK    1  A    between atoms: C_1  and  C_2
REMARK    2  A    between atoms: C_7  and  C_8
REMARK    3  A    between atoms: C_8  and  C_9
REMARK    4  A    between atoms: C_9  and  C_11
REMARK    5  A    between atoms: C_14  and  O_15
REMARK    6  A    between atoms: C_16  and  O_17
REMARK    7  A    between atoms: C_18  and  O_19
REMARK                            x       y       z     vdW  Elec       q    Type
REMARK                         _______ _______ _______ _____ _____    ______ ____
ROOT
ATOM      1  C   UNL     1       5.569   5.261  17.456  0.00  0.00    +0.000 A 
ATOM      2  C   UNL     1       6.099   6.381  16.766  0.00  0.00    +0.000 A 
ATOM      3  C   UNL     1       7.173   7.136  17.254  0.00  0.00    +0.000 A 
ATOM      4  C   UNL     1       7.705   6.816  18.489  0.00  0.00    +0.000 A 
ATOM      5  C   UNL     1       7.208   5.720  19.188  0.00  0.00    +0.000 A 
ATOM      6  C   UNL     1       6.197   4.903  18.652  0.00  0.00    +0.000 A 
ENDROOT
BRANCH   1   7
ATOM      7  C   UNL     1       4.368   4.618  16.833  0.00  0.00    +0.000 C 
ATOM      8  O   UNL     1       4.570   3.813  15.896  0.00  0.00    +0.000 OA
BRANCH   7   9
ATOM      9  C   UNL     1       2.937   4.851  17.264  0.00  0.00    +0.000 C 
BRANCH   9  16
ATOM     10  C   UNL     1       2.548   6.427  19.778  0.00  0.00    +0.000 C 
ATOM     11  C   UNL     1       2.075   5.001  19.644  0.00  0.00    +0.000 A 
ATOM     12  C   UNL     1       1.303   4.439  20.671  0.00  0.00    +0.000 A 
ATOM     13  C   UNL     1       1.155   3.060  20.751  0.00  0.00    +0.000 A 
ATOM     14  C   UNL     1       1.827   2.245  19.844  0.00  0.00    +0.000 A 
ATOM     15  C   UNL     1       2.479   2.803  18.744  0.00  0.00    +0.000 A 
ATOM     16  C   UNL     1       2.488   4.195  18.563  0.00  0.00    +0.000 A 
ENDBRANCH   9  16
ENDBRANCH   7   9
ENDBRANCH   1   7
BRANCH   4  17
ATOM     17  O   UNL     1       8.738   7.514  19.045  0.00  0.00    +0.000 OA
ATOM     18  H   UNL     1       9.082   6.993  19.793  0.00  0.00    +0.000 HD
ENDBRANCH   4  17
BRANCH   5  19
ATOM     19  O   UNL     1       7.734   5.424  20.408  0.00  0.00    +0.000 OA
ATOM     20  H   UNL     1       8.107   4.528  20.315  0.00  0.00    +0.000 HD
ENDBRANCH   5  19
BRANCH   6  21
ATOM     21  O   UNL     1       5.924   3.736  19.308  0.00  0.00    +0.000 OA
ATOM     22  H   UNL     1       4.954   3.762  19.470  0.00  0.00    +0.000 HD
ENDBRANCH   6  21
TORSDOF 6
ENDMDL
MODEL 4
REMARK VINA RESULT:      -7.6      1.764      2.829
REMARK  Name = 
REMARK  7 active torsions:
REMARK  status: ('A' for Active; 'I' for Inactive)
REMARK    1  A    between atoms: C_1  and  C_2
REMARK    2  A    between atoms: C_7  and  C_8
REMARK    3  A    between atoms: C_8  and  C_9
REMARK    4  A    between atoms: C_9  and  C_11
REMARK    5  A    between atoms: C_14  and  O_15
REMARK    6  A    between atoms: C_16  and  O_17
REMARK    7  A    between atoms: C_18  and  O_19
REMARK                            x       y       z     vdW  Elec       q    Type
REMARK                         _______ _______ _______ _____ _____    ______ ____
ROOT
ATOM      1  C   UNL     1       5.631   4.771  17.415  0.00  0.00    +0.000 A 
ATOM      2  C   UNL     1       4.881   3.755  16.772  0.00  0.00    +0.000 A 
ATOM      3  C   UNL     1       5.155   3.316  15.471  0.00  0.00    +0.000 A 
ATOM      4  C   UNL     1       6.162   3.938  14.757  0.00  0.00    +0.000 A 
ATOM      5  C   UNL     1       6.919   4.937  15.363  0.00  0.00    +0.000 A 
ATOM      6  C   UNL     1       6.708   5.307  16.702  0.00  0.00    +0.000 A 
ENDROOT
BRANCH   1   7
ATOM      7  C   UNL     1       5.152   5.176  18.776  0.00  0.00    +0.000 C 
ATOM      8  O   UNL     1       5.968   5.091  19.720  0.00  0.00    +0.000 OA
BRANCH   7   9
ATOM      9  C   UNL     1       3.767   5.699  19.087  0.00  0.00    +0.000 C 
BRANCH   9  16
ATOM     10  C   UNL     1       1.487   4.502  17.565  0.00  0.00    +0.000 C 
ATOM     11  C   UNL     1       1.893   3.999  18.927  0.00  0.00    +0.000 A 
ATOM     12  C   UNL     1       1.282   2.844  19.438  0.00  0.00    +0.000 A 
ATOM     13  C   UNL     1       1.364   2.561  20.796  0.00  0.00    +0.000 A 
ATOM     14  C   UNL     1       2.002   3.459  21.647  0.00  0.00    +0.000 A 
ATOM     15  C   UNL     1       2.726   4.532  21.124  0.00  0.00    +0.000 A 
ATOM     16  C   UNL     1       2.789   4.728  19.736  0.00  0.00    +0.000 A 
ENDBRANCH   9  16
ENDBRANCH   7   9
ENDBRANCH   1   7
BRANCH   4  17
ATOM     17  O   UNL     1       6.478   3.585  13.476  0.00  0.00    +0.000 OA
ATOM     18  H   UNL     1       5.657   3.597  12.951  0.00  0.00    +0.000 HD
ENDBRANCH   4  17
BRANCH   5  19
ATOM     19  O   UNL     1       7.899   5.548  14.643  0.00  0.00    +0.000 OA
ATOM     20  H   UNL     1       8.663   4.944  14.688  0.00  0.00    +0.000 HD
ENDBRANCH   5  19
BRANCH   6  21
ATOM     21  O   UNL     1       7.630   6.138  17.273  0.00  0.00    +0.000 OA
ATOM     22  H   UNL     1       7.399   7.035  16.940  0.00  0.00    +0.000 HD
ENDBRANCH   6  21
TORSDOF 6
ENDMDL
MODEL 5
REMARK VINA RESULT:      -7.6      2.342      4.787
REMARK  Name = 
REMARK  7 active torsions:
REMARK  status: ('A' for Active; 'I' for Inactive)
REMARK    1  A    between atoms: C_1  and  C_2
REMARK    2  A    between atoms: C_7  and  C_8
REMARK    3  A    between atoms: C_8  and  C_9
REMARK    4  A    between atoms: C_9  and  C_11
REMARK    5  A    between atoms: C_14  and  O_15
REMARK    6  A    between atoms: C_16  and  O_17
REMARK    7  A    between atoms: C_18  and  O_19
REMARK                            x       y       z     vdW  Elec       q    Type
REMARK                         _______ _______ _______ _____ _____    ______ ____
ROOT
ATOM      1  C   UNL     1       3.383   5.251  18.298  0.00  0.00    +0.000 A 
ATOM      2  C   UNL     1       2.259   4.607  17.721  0.00  0.00    +0.000 A 
ATOM      3  C   UNL     1       2.019   3.234  17.854  0.00  0.00    +0.000 A 
ATOM      4  C   UNL     1       2.944   2.458  18.527  0.00  0.00    +0.000 A 
ATOM      5  C   UNL     1       4.056   3.063  19.109  0.00  0.00    +0.000 A 
ATOM      6  C   UNL     1       4.245   4.455  19.059  0.00  0.00    +0.000 A 
ENDROOT
BRANCH   1   7
ATOM      7  C   UNL     1       3.531   6.709  17.988  0.00  0.00    +0.000 C 
ATOM      8  O   UNL     1       2.745   7.499  18.557  0.00  0.00    +0.000 OA
BRANCH   7   9
ATOM      9  C   UNL     1       4.570   7.297  17.058  0.00  0.00    +0.000 C 
BRANCH   9  16
ATOM     10  C   UNL     1       7.445   6.960  17.813  0.00  0.00    +0.000 C 
ATOM     11  C   UNL     1       6.745   6.008  16.876  0.00  0.00    +0.000 A 
ATOM     12  C   UNL     1       7.413   4.849  16.457  0.00  0.00    +0.000 A 
ATOM     13  C   UNL     1       6.958   4.150  15.345  0.00  0.00    +0.000 A 
ATOM     14  C   UNL     1       5.875   4.643  14.622  0.00  0.00    +0.000 A 
ATOM     15  C   UNL     1       5.127   5.713  15.116  0.00  0.00    +0.000 A 
ATOM     16  C   UNL     1       5.482   6.319  16.330  0.00  0.00    +0.000 A 
ENDBRANCH   9  16
ENDBRANCH   7   9
ENDBRANCH   1   7
BRANCH   4  17
ATOM     17  O   UNL     1       2.796   1.110  18.684  0.00  0.00    +0.000 OA
ATOM     18  H   UNL     1       1.841   0.917  18.720  0.00  0.00    +0.000 HD
ENDBRANCH   4  17
BRANCH   5  19
ATOM     19  O   UNL     1       4.964   2.284  19.758  0.00  0.00    +0.000 OA
ATOM     20  H   UNL     1       5.830   2.544  19.392  0.00  0.00    +0.000 HD
ENDBRANCH   5  19
BRANCH   6  21
ATOM     21  O   UNL     1       5.241   4.978  19.832  0.00  0.00    +0.000 OA
ATOM     22  H   UNL     1       5.516   5.799  19.365  0.00  0.00    +0.000 HD
ENDBRANCH   6  21
TORSDOF 6
ENDMDL
MODEL 6
REMARK VINA RESULT:      -7.5      1.838      3.340
REMARK  Name = 
REMARK  7 active torsions:
REMARK  status: ('A' for Active; 'I' for Inactive)
REMARK    1  A    between atoms: C_1  and  C_2
REMARK    2  A    between atoms: C_7  and  C_8
REMARK    3  A    between atoms: C_8  and  C_9
REMARK    4  A    between atoms: C_9  and  C_11
REMARK    5  A    between atoms: C_14  and  O_15
REMARK    6  A    between atoms: C_16  and  O_17
REMARK    7  A    between atoms: C_18  and  O_19
REMARK                            x       y       z     vdW  Elec       q    Type
REMARK                         _______ _______ _______ _____ _____    ______ ____
ROOT
ATOM      1  C   UNL     1       5.700   5.127  17.297  0.00  0.00    +0.000 A 
ATOM      2  C   UNL     1       6.236   6.253  16.622  0.00  0.00    +0.000 A 
ATOM      3  C   UNL     1       7.251   7.052  17.165  0.00  0.00    +0.000 A 
ATOM      4  C   UNL     1       7.712   6.769  18.437  0.00  0.00    +0.000 A 
ATOM      5  C   UNL     1       7.207   5.668  19.123  0.00  0.00    +0.000 A 
ATOM      6  C   UNL     1       6.260   4.809  18.538  0.00  0.00    +0.000 A 
ENDROOT
BRANCH   1   7
ATOM      7  C   UNL     1       4.563   4.434  16.609  0.00  0.00    +0.000 C 
ATOM      8  O   UNL     1       4.708   4.161  15.397  0.00  0.00    +0.000 OA
BRANCH   7   9
ATOM      9  C   UNL     1       3.268   4.022  17.275  0.00  0.00    +0.000 C 
BRANCH   9  16
ATOM     10  C   UNL     1       1.278   3.157  19.334  0.00  0.00    +0.000 C 
ATOM     11  C   UNL     1       1.922   4.520  19.364  0.00  0.00    +0.000 A 
ATOM     12  C   UNL     1       1.694   5.358  20.465  0.00  0.00    +0.000 A 
ATOM     13  C   UNL     1       1.965   6.718  20.369  0.00  0.00    +0.000 A 
ATOM     14  C   UNL     1       2.404   7.245  19.158  0.00  0.00    +0.000 A 
ATOM     15  C   UNL     1       2.762   6.397  18.109  0.00  0.00    +0.000 A 
ATOM     16  C   UNL     1       2.650   5.007  18.259  0.00  0.00    +0.000 A 
ENDBRANCH   9  16
ENDBRANCH   7   9
ENDBRANCH   1   7
BRANCH   4  17
ATOM     17  O   UNL     1       8.683   7.511  19.047  0.00  0.00    +0.000 OA
ATOM     18  H   UNL     1       9.106   6.951  19.723  0.00  0.00    +0.000 HD
ENDBRANCH   4  17
BRANCH   5  19
ATOM     19  O   UNL     1       7.661   5.410  20.380  0.00  0.00    +0.000 OA
ATOM     20  H   UNL     1       8.515   4.955  20.253  0.00  0.00    +0.000 HD
ENDBRANCH   5  19
BRANCH   6  21
ATOM     21  O   UNL     1       5.983   3.645  19.195  0.00  0.00    +0.000 OA
ATOM     22  H   UNL     1       5.262   3.877  19.823  0.00  0.00    +0.000 HD
ENDBRANCH   6  21
TORSDOF 6
ENDMDL
MODEL 7
REMARK VINA RESULT:      -7.5      1.928      3.133
REMARK  Name = 
REMARK  7 active torsions:
REMARK  status: ('A' for Active; 'I' for Inactive)
REMARK    1  A    between atoms: C_1  and  C_2
REMARK    2  A    between atoms: C_7  and  C_8
REMARK    3  A    between atoms: C_8  and  C_9
REMARK    4  A    between atoms: C_9  and  C_11
REMARK    5  A    between atoms: C_14  and  O_15
REMARK    6  A    between atoms: C_16  and  O_17
REMARK    7  A    between atoms: C_18  and  O_19
REMARK                            x       y       z     vdW  Elec       q    Type
REMARK                         _______ _______ _______ _____ _____    ______ ____
ROOT
ATOM      1  C   UNL     1       5.504   5.374  17.559  0.00  0.00    +0.000 A 
ATOM      2  C   UNL     1       6.009   6.513  16.883  0.00  0.00    +0.000 A 
ATOM      3  C   UNL     1       7.117   7.238  17.338  0.00  0.00    +0.000 A 
ATOM      4  C   UNL     1       7.713   6.865  18.529  0.00  0.00    +0.000 A 
ATOM      5  C   UNL     1       7.242   5.748  19.213  0.00  0.00    +0.000 A 
ATOM      6  C   UNL     1       6.193   4.963  18.705  0.00  0.00    +0.000 A 
ENDROOT
BRANCH   1   7
ATOM      7  C   UNL     1       4.262   4.767  16.981  0.00  0.00    +0.000 C 
ATOM      8  O   UNL     1       4.404   3.973  16.024  0.00  0.00    +0.000 OA
BRANCH   7   9
ATOM      9  C   UNL     1       2.857   5.026  17.479  0.00  0.00    +0.000 C 
BRANCH   9  16
ATOM     10  C   UNL     1       2.215   2.127  17.841  0.00  0.00    +0.000 C 
ATOM     11  C   UNL     1       2.441   3.050  19.011  0.00  0.00    +0.000 A 
ATOM     12  C   UNL     1       2.496   2.511  20.305  0.00  0.00    +0.000 A 
ATOM     13  C   UNL     1       2.347   3.342  21.409  0.00  0.00    +0.000 A 
ATOM     14  C   UNL     1       2.084   4.696  21.217  0.00  0.00    +0.000 A 
ATOM     15  C   UNL     1       2.167   5.256  19.941  0.00  0.00    +0.000 A 
ATOM     16  C   UNL     1       2.486   4.449  18.838  0.00  0.00    +0.000 A 
ENDBRANCH   9  16
ENDBRANCH   7   9
ENDBRANCH   1   7
BRANCH   4  17
ATOM     17  O   UNL     1       8.784   7.531  19.052  0.00  0.00    +0.000 OA
ATOM     18  H   UNL     1       9.522   7.453  18.420  0.00  0.00    +0.000 HD
ENDBRANCH   4  17
BRANCH   5  19
ATOM     19  O   UNL     1       7.831   5.401  20.390  0.00  0.00    +0.000 OA
ATOM     20  H   UNL     1       7.128   5.483  21.061  0.00  0.00    +0.000 HD
ENDBRANCH   5  19
BRANCH   6  21
ATOM     21  O   UNL     1       5.941   3.776  19.330  0.00  0.00    +0.000 OA
ATOM     22  H   UNL     1       6.760   3.246  19.201  0.00  0.00    +0.000 HD
ENDBRANCH   6  21
TORSDOF 6
ENDMDL
MODEL 8
REMARK VINA RESULT:      -7.4      1.833      3.392
REMARK  Name = 
REMARK  7 active torsions:
REMARK  status: ('A' for Active; 'I' for Inactive)
REMARK    1  A    between atoms: C_1  and  C_2
REMARK    2  A    between atoms: C_7  and  C_8
REMARK    3  A    between atoms: C_8  and  C_9
REMARK    4  A    between atoms: C_9  and  C_11
REMARK    5  A    between atoms: C_14  and  O_15
REMARK    6  A    between atoms: C_16  and  O_17
REMARK    7  A    between atoms: C_18  and  O_19
REMARK                            x       y       z     vdW  Elec       q    Type
REMARK                         _______ _______ _______ _____ _____    ______ ____
ROOT
ATOM      1  C   UNL     1       4.767   3.917  17.237  0.00  0.00    +0.000 A 
ATOM      2  C   UNL     1       4.897   4.417  15.917  0.00  0.00    +0.000 A 
ATOM      3  C   UNL     1       5.928   5.282  15.530  0.00  0.00    +0.000 A 
ATOM      4  C   UNL     1       6.828   5.715  16.486  0.00  0.00    +0.000 A 
ATOM      5  C   UNL     1       6.728   5.238  17.790  0.00  0.00    +0.000 A 
ATOM      6  C   UNL     1       5.753   4.294  18.154  0.00  0.00    +0.000 A 
ENDROOT
BRANCH   1   7
ATOM      7  C   UNL     1       3.559   3.070  17.499  0.00  0.00    +0.000 C 
ATOM      8  O   UNL     1       3.737   1.836  17.607  0.00  0.00    +0.000 OA
BRANCH   7   9
ATOM      9  C   UNL     1       2.150   3.596  17.664  0.00  0.00    +0.000 C 
BRANCH   9  16
ATOM     10  C   UNL     1       0.907   3.621  20.385  0.00  0.00    +0.000 C 
ATOM     11  C   UNL     1       1.628   4.820  19.821  0.00  0.00    +0.000 A 
ATOM     12  C   UNL     1       1.851   5.932  20.647  0.00  0.00    +0.000 A 
ATOM     13  C   UNL     1       2.180   7.159  20.082  0.00  0.00    +0.000 A 
ATOM     14  C   UNL     1       2.227   7.285  18.696  0.00  0.00    +0.000 A 
ATOM     15  C   UNL     1       2.143   6.154  17.883  0.00  0.00    +0.000 A 
ATOM     16  C   UNL     1       1.979   4.884  18.457  0.00  0.00    +0.000 A 
ENDBRANCH   9  16
ENDBRANCH   7   9
ENDBRANCH   1   7
BRANCH   4  17
ATOM     17  O   UNL     1       7.849   6.574  16.196  0.00  0.00    +0.000 OA
ATOM     18  H   UNL     1       8.676   6.176  16.523  0.00  0.00    +0.000 HD
ENDBRANCH   4  17
BRANCH   5  19
ATOM     19  O   UNL     1       7.613   5.683  18.723  0.00  0.00    +0.000 OA
ATOM     20  H   UNL     1       7.839   4.898  19.256  0.00  0.00    +0.000 HD
ENDBRANCH   5  19
BRANCH   6  21
ATOM     21  O   UNL     1       5.863   3.727  19.392  0.00  0.00    +0.000 OA
ATOM     22  H   UNL     1       6.827   3.571  19.511  0.00  0.00    +0.000 HD
ENDBRANCH   6  21
TORSDOF 6
ENDMDL
MODEL 9
REMARK VINA RESULT:      -7.4      1.879      3.338
REMARK  Name = 
REMARK  7 active torsions:
REMARK  status: ('A' for Active; 'I' for Inactive)
REMARK    1  A    between atoms: C_1  and  C_2
REMARK    2  A    between atoms: C_7  and  C_8
REMARK    3  A    between atoms: C_8  and  C_9
REMARK    4  A    between atoms: C_9  and  C_11
REMARK    5  A    between atoms: C_14  and  O_15
REMARK    6  A    between atoms: C_16  and  O_17
REMARK    7  A    between atoms: C_18  and  O_19
REMARK                            x       y       z     vdW  Elec       q    Type
REMARK                         _______ _______ _______ _____ _____    ______ ____
ROOT
ATOM      1  C   UNL     1       5.068   4.025  16.876  0.00  0.00    +0.000 A 
ATOM      2  C   UNL     1       5.275   3.483  15.582  0.00  0.00    +0.000 A 
ATOM      3  C   UNL     1       6.249   3.971  14.702  0.00  0.00    +0.000 A 
ATOM      4  C   UNL     1       7.003   5.065  15.082  0.00  0.00    +0.000 A 
ATOM      5  C   UNL     1       6.824   5.617  16.348  0.00  0.00    +0.000 A 
ATOM      6  C   UNL     1       5.917   5.064  17.269  0.00  0.00    +0.000 A 
ENDROOT
BRANCH   1   7
ATOM      7  C   UNL     1       3.930   3.439  17.655  0.00  0.00    +0.000 C 
ATOM      8  O   UNL     1       4.187   2.468  18.402  0.00  0.00    +0.000 OA
BRANCH   7   9
ATOM      9  C   UNL     1       2.504   3.944  17.622  0.00  0.00    +0.000 C 
BRANCH   9  16
ATOM     10  C   UNL     1       0.945   3.795  20.171  0.00  0.00    +0.000 C 
ATOM     11  C   UNL     1       1.681   5.043  19.753  0.00  0.00    +0.000 A 
ATOM     12  C   UNL     1       1.760   6.120  20.647  0.00  0.00    +0.000 A 
ATOM     13  C   UNL     1       2.106   7.383  20.182  0.00  0.00    +0.000 A 
ATOM     14  C   UNL     1       2.313   7.579  18.820  0.00  0.00    +0.000 A 
ATOM     15  C   UNL     1       2.371   6.487  17.952  0.00  0.00    +0.000 A 
ATOM     16  C   UNL     1       2.189   5.186  18.445  0.00  0.00    +0.000 A 
ENDBRANCH   9  16
ENDBRANCH   7   9
ENDBRANCH   1   7
BRANCH   4  17
ATOM     17  O   UNL     1       7.957   5.615  14.275  0.00  0.00    +0.000 OA
ATOM     18  H   UNL     1       8.105   6.532  14.569  0.00  0.00    +0.000 HD
ENDBRANCH   4  17
BRANCH   5  19
ATOM     19  O   UNL     1       7.566   6.701  16.704  0.00  0.00    +0.000 OA
ATOM     20  H   UNL     1       8.369   6.653  16.153  0.00  0.00    +0.000 HD
ENDBRANCH   5  19
BRANCH   6  21
ATOM     21  O   UNL     1       5.961   5.535  18.549  0.00  0.00    +0.000 OA
ATOM     22  H   UNL     1       6.042   4.730  19.110  0.00  0.00    +0.000 HD
ENDBRANCH   6  21
TORSDOF 6
ENDMDL
