MODEL 1
REMARK VINA RESULT:      -7.9      0.000      0.000
REMARK  Name = 
REMARK  13 active torsions:
REMARK  status: ('A' for Active; 'I' for Inactive)
REMARK    1  A    between atoms: C_1  and  C_2
REMARK    2  A    between atoms: C_2  and  O_3
REMARK    3  A    between atoms: O_3  and  C_4
REMARK    4  A    between atoms: C_4  and  C_6
REMARK    5  A    between atoms: C_6  and  C_7
REMARK    6  A    between atoms: C_7  and  C_8
REMARK    7  A    between atoms: C_8  and  O_9
REMARK    8  A    between atoms: O_9  and  C_10
REMARK    9  A    between atoms: C_13  and  C_14
REMARK   10  A    between atoms: C_14  and  C_15
REMARK   11  A    between atoms: C_14  and  C_25
REMARK   12  A    between atoms: N_17  and  C_18
REMARK   13  A    between atoms: N_27  and  C_28
REMARK                            x       y       z     vdW  Elec       q    Type
REMARK                         _______ _______ _______ _____ _____    ______ ____
ROOT
ATOM      1  C   UNL     1       0.273  11.279  18.561  0.00  0.00    +0.000 C 
ENDROOT
BRANCH   1   2
ATOM      2  C   UNL     1      -1.271  10.970  18.271  0.00  0.00    +0.000 A 
ATOM      3  C   UNL     1      -1.690   9.805  17.609  0.00  0.00    +0.000 A 
ATOM      4  N   UNL     1      -2.822  10.210  16.944  0.00  0.00    +0.000 N 
ATOM      5  C   UNL     1      -2.791  10.814  15.617  0.00  0.00    +0.000 C 
ATOM      6  C   UNL     1      -3.589  10.784  17.936  0.00  0.00    +0.000 A 
ATOM      7  C   UNL     1      -4.998  10.847  18.039  0.00  0.00    +0.000 A 
ATOM      8  C   UNL     1      -5.531  11.675  19.021  0.00  0.00    +0.000 A 
ATOM      9  C   UNL     1      -4.672  12.459  19.770  0.00  0.00    +0.000 A 
ATOM     10  C   UNL     1      -3.236  12.402  19.617  0.00  0.00    +0.000 A 
ATOM     11  C   UNL     1      -2.634  11.486  18.712  0.00  0.00    +0.000 A 
ENDBRANCH   1   2
BRANCH   1  12
ATOM     12  C   UNL     1       0.585  12.242  19.795  0.00  0.00    +0.000 A 
ATOM     13  C   UNL     1      -0.175  12.293  20.967  0.00  0.00    +0.000 A 
ATOM     14  N   UNL     1      -0.139  13.606  21.354  0.00  0.00    +0.000 N 
ATOM     15  C   UNL     1      -1.194  14.591  21.161  0.00  0.00    +0.000 C 
ATOM     16  C   UNL     1       1.179  13.999  21.240  0.00  0.00    +0.000 A 
ATOM     17  C   UNL     1       1.822  15.022  21.924  0.00  0.00    +0.000 A 
ATOM     18  C   UNL     1       3.101  15.371  21.494  0.00  0.00    +0.000 A 
ATOM     19  C   UNL     1       3.622  14.724  20.382  0.00  0.00    +0.000 A 
ATOM     20  C   UNL     1       2.911  13.698  19.678  0.00  0.00    +0.000 A 
ATOM     21  C   UNL     1       1.640  13.264  20.128  0.00  0.00    +0.000 A 
ENDBRANCH   1  12
BRANCH   1  25
ATOM     22  C   UNL     1       2.178   7.348  19.537  0.00  0.00    +0.000 A 
ATOM     23  C   UNL     1       1.466   8.124  20.447  0.00  0.00    +0.000 A 
ATOM     24  C   UNL     1       0.869   9.350  20.083  0.00  0.00    +0.000 A 
ATOM     25  C   UNL     1       0.939   9.885  18.784  0.00  0.00    +0.000 A 
ATOM     26  C   UNL     1       1.661   9.096  17.857  0.00  0.00    +0.000 A 
ATOM     27  C   UNL     1       2.268   7.848  18.228  0.00  0.00    +0.000 A 
BRANCH  22  28
ATOM     28  O   UNL     1       2.797   6.143  19.844  0.00  0.00    +0.000 OA
BRANCH  28  29
ATOM     29  C   UNL     1       2.067   5.305  20.764  0.00  0.00    +0.000 C 
BRANCH  29  30
ATOM     30  C   UNL     1       1.135   4.267  20.126  0.00  0.00    +0.000 C 
BRANCH  30  31
ATOM     31  C   UNL     1       1.854   3.248  19.246  0.00  0.00    +0.000 C 
BRANCH  31  32
ATOM     32  C   UNL     1       1.873   3.680  17.794  0.00  0.00    +0.000 C 
ATOM     33  O   UNL     1       0.987   4.300  17.225  0.00  0.00    +0.000 OA
BRANCH  32  34
ATOM     34  O   UNL     1       2.991   3.174  17.197  0.00  0.00    +0.000 OA
BRANCH  34  36
ATOM     35  C   UNL     1       4.634   4.909  17.105  0.00  0.00    +0.000 C 
ATOM     36  C   UNL     1       4.240   3.598  17.762  0.00  0.00    +0.000 C 
ENDBRANCH  34  36
ENDBRANCH  32  34
ENDBRANCH  31  32
ENDBRANCH  30  31
ENDBRANCH  29  30
ENDBRANCH  28  29
ENDBRANCH  22  28
ENDBRANCH   1  25
TORSDOF 10
ENDMDL
MODEL 2
REMARK VINA RESULT:      -7.9      1.123      1.618
REMARK  Name = 
REMARK  13 active torsions:
REMARK  status: ('A' for Active; 'I' for Inactive)
REMARK    1  A    between atoms: C_1  and  C_2
REMARK    2  A    between atoms: C_2  and  O_3
REMARK    3  A    between atoms: O_3  and  C_4
REMARK    4  A    between atoms: C_4  and  C_6
REMARK    5  A    between atoms: C_6  and  C_7
REMARK    6  A    between atoms: C_7  and  C_8
REMARK    7  A    between atoms: C_8  and  O_9
REMARK    8  A    between atoms: O_9  and  C_10
REMARK    9  A    between atoms: C_13  and  C_14
REMARK   10  A    between atoms: C_14  and  C_15
REMARK   11  A    between atoms: C_14  and  C_25
REMARK   12  A    between atoms: N_17  and  C_18
REMARK   13  A    between atoms: N_27  and  C_28
REMARK                            x       y       z     vdW  Elec       q    Type
REMARK                         _______ _______ _______ _____ _____    ______ ____
ROOT
ATOM      1  C   UNL     1       0.681  11.180  18.333  0.00  0.00    +0.000 C 
ENDROOT
BRANCH   1   2
ATOM      2  C   UNL     1      -0.908  11.014  18.227  0.00  0.00    +0.000 A 
ATOM      3  C   UNL     1      -1.504   9.904  17.607  0.00  0.00    +0.000 A 
ATOM      4  N   UNL     1      -2.666  10.421  17.087  0.00  0.00    +0.000 N 
ATOM      5  C   UNL     1      -2.739  11.049  15.772  0.00  0.00    +0.000 C 
ATOM      6  C   UNL     1      -3.257  11.039  18.170  0.00  0.00    +0.000 A 
ATOM      7  C   UNL     1      -4.632  11.223  18.442  0.00  0.00    +0.000 A 
ATOM      8  C   UNL     1      -4.969  12.073  19.489  0.00  0.00    +0.000 A 
ATOM      9  C   UNL     1      -3.961  12.762  20.140  0.00  0.00    +0.000 A 
ATOM     10  C   UNL     1      -2.564  12.583  19.815  0.00  0.00    +0.000 A 
ATOM     11  C   UNL     1      -2.157  11.638  18.834  0.00  0.00    +0.000 A 
ENDBRANCH   1   2
BRANCH   1  12
ATOM     12  C   UNL     1       1.211  12.361  19.268  0.00  0.00    +0.000 A 
ATOM     13  C   UNL     1       0.787  12.576  20.583  0.00  0.00    +0.000 A 
ATOM     14  N   UNL     1       0.792  13.936  20.738  0.00  0.00    +0.000 N 
ATOM     15  C   UNL     1      -0.369  14.813  20.696  0.00  0.00    +0.000 C 
ATOM     16  C   UNL     1       1.986  14.375  20.201  0.00  0.00    +0.000 A 
ATOM     17  C   UNL     1       2.682  15.535  20.513  0.00  0.00    +0.000 A 
ATOM     18  C   UNL     1       3.759  15.873  19.696  0.00  0.00    +0.000 A 
ATOM     19  C   UNL     1       4.029  15.069  18.596  0.00  0.00    +0.000 A 
ATOM     20  C   UNL     1       3.264  13.898  18.285  0.00  0.00    +0.000 A 
ATOM     21  C   UNL     1       2.207  13.481  19.132  0.00  0.00    +0.000 A 
ENDBRANCH   1  12
BRANCH   1  25
ATOM     22  C   UNL     1       2.224   7.143  19.498  0.00  0.00    +0.000 A 
ATOM     23  C   UNL     1       2.418   7.728  18.250  0.00  0.00    +0.000 A 
ATOM     24  C   UNL     1       1.924   9.013  17.939  0.00  0.00    +0.000 A 
ATOM     25  C   UNL     1       1.207   9.805  18.853  0.00  0.00    +0.000 A 
ATOM     26  C   UNL     1       1.011   9.213  20.123  0.00  0.00    +0.000 A 
ATOM     27  C   UNL     1       1.514   7.904  20.440  0.00  0.00    +0.000 A 
BRANCH  22  28
ATOM     28  O   UNL     1       2.675   5.879  19.853  0.00  0.00    +0.000 OA
BRANCH  28  29
ATOM     29  C   UNL     1       1.925   5.243  20.910  0.00  0.00    +0.000 C 
BRANCH  29  30
ATOM     30  C   UNL     1       1.045   4.061  20.485  0.00  0.00    +0.000 C 
BRANCH  30  31
ATOM     31  C   UNL     1       1.570   2.702  20.943  0.00  0.00    +0.000 C 
BRANCH  31  32
ATOM     32  C   UNL     1       2.805   2.292  20.168  0.00  0.00    +0.000 C 
ATOM     33  O   UNL     1       3.952   2.318  20.590  0.00  0.00    +0.000 OA
BRANCH  32  34
ATOM     34  O   UNL     1       2.444   1.987  18.888  0.00  0.00    +0.000 OA
BRANCH  34  36
ATOM     35  C   UNL     1       2.784   3.587  17.144  0.00  0.00    +0.000 C 
ATOM     36  C   UNL     1       3.371   2.390  17.870  0.00  0.00    +0.000 C 
ENDBRANCH  34  36
ENDBRANCH  32  34
ENDBRANCH  31  32
ENDBRANCH  30  31
ENDBRANCH  29  30
ENDBRANCH  28  29
ENDBRANCH  22  28
ENDBRANCH   1  25
TORSDOF 10
ENDMDL
MODEL 3
REMARK VINA RESULT:      -7.9      1.816      2.595
REMARK  Name = 
REMARK  13 active torsions:
REMARK  status: ('A' for Active; 'I' for Inactive)
REMARK    1  A    between atoms: C_1  and  C_2
REMARK    2  A    between atoms: C_2  and  O_3
REMARK    3  A    between atoms: O_3  and  C_4
REMARK    4  A    between atoms: C_4  and  C_6
REMARK    5  A    between atoms: C_6  and  C_7
REMARK    6  A    between atoms: C_7  and  C_8
REMARK    7  A    between atoms: C_8  and  O_9
REMARK    8  A    between atoms: O_9  and  C_10
REMARK    9  A    between atoms: C_13  and  C_14
REMARK   10  A    between atoms: C_14  and  C_15
REMARK   11  A    between atoms: C_14  and  C_25
REMARK   12  A    between atoms: N_17  and  C_18
REMARK   13  A    between atoms: N_27  and  C_28
REMARK                            x       y       z     vdW  Elec       q    Type
REMARK                         _______ _______ _______ _____ _____    ______ ____
ROOT
ATOM      1  C   UNL     1       0.056  11.651  18.435  0.00  0.00    +0.000 C 
ENDROOT
BRANCH   1   2
ATOM      2  C   UNL     1      -1.478  11.249  18.212  0.00  0.00    +0.000 A 
ATOM      3  C   UNL     1      -1.853  10.079  17.533  0.00  0.00    +0.000 A 
ATOM      4  N   UNL     1      -3.042  10.428  16.940  0.00  0.00    +0.000 N 
ATOM      5  C   UNL     1      -3.120  11.074  15.634  0.00  0.00    +0.000 C 
ATOM      6  C   UNL     1      -3.793  10.919  17.988  0.00  0.00    +0.000 A 
ATOM      7  C   UNL     1      -5.195  10.884  18.164  0.00  0.00    +0.000 A 
ATOM      8  C   UNL     1      -5.730  11.644  19.198  0.00  0.00    +0.000 A 
ATOM      9  C   UNL     1      -4.886  12.460  19.931  0.00  0.00    +0.000 A 
ATOM     10  C   UNL     1      -3.459  12.504  19.704  0.00  0.00    +0.000 A 
ATOM     11  C   UNL     1      -2.846  11.659  18.739  0.00  0.00    +0.000 A 
ENDBRANCH   1   2
BRANCH   1  12
ATOM     12  C   UNL     1       0.343  12.783  19.524  0.00  0.00    +0.000 A 
ATOM     13  C   UNL     1       0.963  12.554  20.756  0.00  0.00    +0.000 A 
ATOM     14  N   UNL     1       0.356  13.421  21.624  0.00  0.00    +0.000 N 
ATOM     15  C   UNL     1      -0.679  13.088  22.592  0.00  0.00    +0.000 C 
ATOM     16  C   UNL     1       0.302  14.636  20.971  0.00  0.00    +0.000 A 
ATOM     17  C   UNL     1       0.235  15.902  21.537  0.00  0.00    +0.000 A 
ATOM     18  C   UNL     1      -0.020  16.971  20.680  0.00  0.00    +0.000 A 
ATOM     19  C   UNL     1      -0.248  16.700  19.338  0.00  0.00    +0.000 A 
ATOM     20  C   UNL     1      -0.208  15.374  18.797  0.00  0.00    +0.000 A 
ATOM     21  C   UNL     1       0.120  14.269  19.621  0.00  0.00    +0.000 A 
ENDBRANCH   1  12
BRANCH   1  25
ATOM     22  C   UNL     1       2.175   7.793  19.246  0.00  0.00    +0.000 A 
ATOM     23  C   UNL     1       2.283   8.514  18.061  0.00  0.00    +0.000 A 
ATOM     24  C   UNL     1       1.606   9.737  17.862  0.00  0.00    +0.000 A 
ATOM     25  C   UNL     1       0.778  10.325  18.834  0.00  0.00    +0.000 A 
ATOM     26  C   UNL     1       0.669   9.594  20.041  0.00  0.00    +0.000 A 
ATOM     27  C   UNL     1       1.358   8.350  20.243  0.00  0.00    +0.000 A 
BRANCH  22  28
ATOM     28  O   UNL     1       2.806   6.581  19.490  0.00  0.00    +0.000 OA
BRANCH  28  29
ATOM     29  C   UNL     1       2.701   5.617  18.422  0.00  0.00    +0.000 C 
BRANCH  29  30
ATOM     30  C   UNL     1       3.984   4.842  18.093  0.00  0.00    +0.000 C 
BRANCH  30  31
ATOM     31  C   UNL     1       4.902   4.627  19.294  0.00  0.00    +0.000 C 
BRANCH  31  32
ATOM     32  C   UNL     1       6.203   5.388  19.145  0.00  0.00    +0.000 C 
ATOM     33  O   UNL     1       7.144   5.347  19.923  0.00  0.00    +0.000 OA
BRANCH  32  34
ATOM     34  O   UNL     1       6.114   6.209  18.058  0.00  0.00    +0.000 OA
BRANCH  34  36
ATOM     35  C   UNL     1       7.687   7.934  17.545  0.00  0.00    +0.000 C 
ATOM     36  C   UNL     1       7.348   6.464  17.373  0.00  0.00    +0.000 C 
ENDBRANCH  34  36
ENDBRANCH  32  34
ENDBRANCH  31  32
ENDBRANCH  30  31
ENDBRANCH  29  30
ENDBRANCH  28  29
ENDBRANCH  22  28
ENDBRANCH   1  25
TORSDOF 10
ENDMDL
MODEL 4
REMARK VINA RESULT:      -7.9      0.892      1.228
REMARK  Name = 
REMARK  13 active torsions:
REMARK  status: ('A' for Active; 'I' for Inactive)
REMARK    1  A    between atoms: C_1  and  C_2
REMARK    2  A    between atoms: C_2  and  O_3
REMARK    3  A    between atoms: O_3  and  C_4
REMARK    4  A    between atoms: C_4  and  C_6
REMARK    5  A    between atoms: C_6  and  C_7
REMARK    6  A    between atoms: C_7  and  C_8
REMARK    7  A    between atoms: C_8  and  O_9
REMARK    8  A    between atoms: O_9  and  C_10
REMARK    9  A    between atoms: C_13  and  C_14
REMARK   10  A    between atoms: C_14  and  C_15
REMARK   11  A    between atoms: C_14  and  C_25
REMARK   12  A    between atoms: N_17  and  C_18
REMARK   13  A    between atoms: N_27  and  C_28
REMARK                            x       y       z     vdW  Elec       q    Type
REMARK                         _______ _______ _______ _____ _____    ______ ____
ROOT
ATOM      1  C   UNL     1       0.316  11.303  18.143  0.00  0.00    +0.000 C 
ENDROOT
BRANCH   1   2
ATOM      2  C   UNL     1      -1.254  11.018  18.005  0.00  0.00    +0.000 A 
ATOM      3  C   UNL     1      -1.754   9.884  17.346  0.00  0.00    +0.000 A 
ATOM      4  N   UNL     1      -2.944  10.324  16.820  0.00  0.00    +0.000 N 
ATOM      5  C   UNL     1      -3.045  10.981  15.521  0.00  0.00    +0.000 C 
ATOM      6  C   UNL     1      -3.597  10.865  17.908  0.00  0.00    +0.000 A 
ATOM      7  C   UNL     1      -4.986  10.934  18.161  0.00  0.00    +0.000 A 
ATOM      8  C   UNL     1      -5.404  11.727  19.225  0.00  0.00    +0.000 A 
ATOM      9  C   UNL     1      -4.462  12.473  19.910  0.00  0.00    +0.000 A 
ATOM     10  C   UNL     1      -3.051  12.411  19.605  0.00  0.00    +0.000 A 
ATOM     11  C   UNL     1      -2.557  11.527  18.607  0.00  0.00    +0.000 A 
ENDBRANCH   1   2
BRANCH   1  12
ATOM     12  C   UNL     1       0.733  12.573  19.016  0.00  0.00    +0.000 A 
ATOM     13  C   UNL     1       0.149  12.916  20.240  0.00  0.00    +0.000 A 
ATOM     14  N   UNL     1       0.145  14.285  20.258  0.00  0.00    +0.000 N 
ATOM     15  C   UNL     1      -0.995  15.147  19.984  0.00  0.00    +0.000 C 
ATOM     16  C   UNL     1       1.401  14.673  19.835  0.00  0.00    +0.000 A 
ATOM     17  C   UNL     1       2.060  15.862  20.116  0.00  0.00    +0.000 A 
ATOM     18  C   UNL     1       3.234  16.122  19.410  0.00  0.00    +0.000 A 
ATOM     19  C   UNL     1       3.633  15.215  18.439  0.00  0.00    +0.000 A 
ATOM     20  C   UNL     1       2.904  14.015  18.151  0.00  0.00    +0.000 A 
ATOM     21  C   UNL     1       1.747  13.679  18.896  0.00  0.00    +0.000 A 
ENDBRANCH   1  12
BRANCH   1  25
ATOM     22  C   UNL     1       2.068   7.452  19.602  0.00  0.00    +0.000 A 
ATOM     23  C   UNL     1       2.178   7.920  18.296  0.00  0.00    +0.000 A 
ATOM     24  C   UNL     1       1.620   9.152  17.891  0.00  0.00    +0.000 A 
ATOM     25  C   UNL     1       0.918  10.003  18.763  0.00  0.00    +0.000 A 
ATOM     26  C   UNL     1       0.808   9.530  20.092  0.00  0.00    +0.000 A 
ATOM     27  C   UNL     1       1.376   8.276  20.504  0.00  0.00    +0.000 A 
BRANCH  22  28
ATOM     28  O   UNL     1       2.584   6.243  20.051  0.00  0.00    +0.000 OA
BRANCH  28  29
ATOM     29  C   UNL     1       1.677   5.458  20.854  0.00  0.00    +0.000 C 
BRANCH  29  30
ATOM     30  C   UNL     1       1.848   3.937  20.757  0.00  0.00    +0.000 C 
BRANCH  30  31
ATOM     31  C   UNL     1       1.003   3.288  19.663  0.00  0.00    +0.000 C 
BRANCH  31  32
ATOM     32  C   UNL     1       1.648   3.433  18.301  0.00  0.00    +0.000 C 
ATOM     33  O   UNL     1       1.150   3.991  17.334  0.00  0.00    +0.000 OA
BRANCH  32  34
ATOM     34  O   UNL     1       2.829   2.749  18.295  0.00  0.00    +0.000 OA
BRANCH  34  36
ATOM     35  C   UNL     1       4.681   4.258  18.197  0.00  0.00    +0.000 C 
ATOM     36  C   UNL     1       3.839   3.265  17.416  0.00  0.00    +0.000 C 
ENDBRANCH  34  36
ENDBRANCH  32  34
ENDBRANCH  31  32
ENDBRANCH  30  31
ENDBRANCH  29  30
ENDBRANCH  28  29
ENDBRANCH  22  28
ENDBRANCH   1  25
TORSDOF 10
ENDMDL
MODEL 5
REMARK VINA RESULT:      -7.8      1.717      2.490
REMARK  Name = 
REMARK  13 active torsions:
REMARK  status: ('A' for Active; 'I' for Inactive)
REMARK    1  A    between atoms: C_1  and  C_2
REMARK    2  A    between atoms: C_2  and  O_3
REMARK    3  A    between atoms: O_3  and  C_4
REMARK    4  A    between atoms: C_4  and  C_6
REMARK    5  A    between atoms: C_6  and  C_7
REMARK    6  A    between atoms: C_7  and  C_8
REMARK    7  A    between atoms: C_8  and  O_9
REMARK    8  A    between atoms: O_9  and  C_10
REMARK    9  A    between atoms: C_13  and  C_14
REMARK   10  A    between atoms: C_14  and  C_15
REMARK   11  A    between atoms: C_14  and  C_25
REMARK   12  A    between atoms: N_17  and  C_18
REMARK   13  A    between atoms: N_27  and  C_28
REMARK                            x       y       z     vdW  Elec       q    Type
REMARK                         _______ _______ _______ _____ _____    ______ ____
ROOT
ATOM      1  C   UNL     1       0.177  11.469  18.393  0.00  0.00    +0.000 C 
ENDROOT
BRANCH   1   2
ATOM      2  C   UNL     1      -1.350  11.068  18.122  0.00  0.00    +0.000 A 
ATOM      3  C   UNL     1      -1.707   9.882  17.462  0.00  0.00    +0.000 A 
ATOM      4  N   UNL     1      -2.870  10.221  16.814  0.00  0.00    +0.000 N 
ATOM      5  C   UNL     1      -2.894  10.830  15.488  0.00  0.00    +0.000 C 
ATOM      6  C   UNL     1      -3.657  10.745  17.818  0.00  0.00    +0.000 A 
ATOM      7  C   UNL     1      -5.065  10.723  17.941  0.00  0.00    +0.000 A 
ATOM      8  C   UNL     1      -5.634  11.514  18.933  0.00  0.00    +0.000 A 
ATOM      9  C   UNL     1      -4.813  12.346  19.674  0.00  0.00    +0.000 A 
ATOM     10  C   UNL     1      -3.379  12.376  19.501  0.00  0.00    +0.000 A 
ATOM     11  C   UNL     1      -2.735  11.501  18.584  0.00  0.00    +0.000 A 
ENDBRANCH   1   2
BRANCH   1  12
ATOM     12  C   UNL     1       0.431  12.602  19.488  0.00  0.00    +0.000 A 
ATOM     13  C   UNL     1       1.015  12.375  20.738  0.00  0.00    +0.000 A 
ATOM     14  N   UNL     1       0.382  13.244  21.586  0.00  0.00    +0.000 N 
ATOM     15  C   UNL     1      -0.681  12.912  22.523  0.00  0.00    +0.000 C 
ATOM     16  C   UNL     1       0.348  14.458  20.930  0.00  0.00    +0.000 A 
ATOM     17  C   UNL     1       0.264  15.724  21.492  0.00  0.00    +0.000 A 
ATOM     18  C   UNL     1       0.034  16.792  20.626  0.00  0.00    +0.000 A 
ATOM     19  C   UNL     1      -0.154  16.519  19.278  0.00  0.00    +0.000 A 
ATOM     20  C   UNL     1      -0.098  15.192  18.740  0.00  0.00    +0.000 A 
ATOM     21  C   UNL     1       0.205  14.088  19.576  0.00  0.00    +0.000 A 
ENDBRANCH   1  12
BRANCH   1  25
ATOM     22  C   UNL     1       2.261   7.607  19.278  0.00  0.00    +0.000 A 
ATOM     23  C   UNL     1       2.402   8.323  18.092  0.00  0.00    +0.000 A 
ATOM     24  C   UNL     1       1.734   9.546  17.869  0.00  0.00    +0.000 A 
ATOM     25  C   UNL     1       0.883  10.143  18.817  0.00  0.00    +0.000 A 
ATOM     26  C   UNL     1       0.741   9.418  20.024  0.00  0.00    +0.000 A 
ATOM     27  C   UNL     1       1.420   8.173  20.250  0.00  0.00    +0.000 A 
BRANCH  22  28
ATOM     28  O   UNL     1       2.881   6.394  19.544  0.00  0.00    +0.000 OA
BRANCH  28  29
ATOM     29  C   UNL     1       2.712   5.390  18.522  0.00  0.00    +0.000 C 
BRANCH  29  30
ATOM     30  C   UNL     1       3.974   5.021  17.733  0.00  0.00    +0.000 C 
BRANCH  30  31
ATOM     31  C   UNL     1       5.229   5.761  18.193  0.00  0.00    +0.000 C 
BRANCH  31  32
ATOM     32  C   UNL     1       6.238   5.897  17.072  0.00  0.00    +0.000 C 
ATOM     33  O   UNL     1       6.682   6.950  16.638  0.00  0.00    +0.000 OA
BRANCH  32  34
ATOM     34  O   UNL     1       6.495   4.661  16.554  0.00  0.00    +0.000 OA
BRANCH  34  36
ATOM     35  C   UNL     1       5.798   4.189  14.316  0.00  0.00    +0.000 C 
ATOM     36  C   UNL     1       6.951   4.642  15.194  0.00  0.00    +0.000 C 
ENDBRANCH  34  36
ENDBRANCH  32  34
ENDBRANCH  31  32
ENDBRANCH  30  31
ENDBRANCH  29  30
ENDBRANCH  28  29
ENDBRANCH  22  28
ENDBRANCH   1  25
TORSDOF 10
ENDMDL
MODEL 6
REMARK VINA RESULT:      -7.8      1.122      1.521
REMARK  Name = 
REMARK  13 active torsions:
REMARK  status: ('A' for Active; 'I' for Inactive)
REMARK    1  A    between atoms: C_1  and  C_2
REMARK    2  A    between atoms: C_2  and  O_3
REMARK    3  A    between atoms: O_3  and  C_4
REMARK    4  A    between atoms: C_4  and  C_6
REMARK    5  A    between atoms: C_6  and  C_7
REMARK    6  A    between atoms: C_7  and  C_8
REMARK    7  A    between atoms: C_8  and  O_9
REMARK    8  A    between atoms: O_9  and  C_10
REMARK    9  A    between atoms: C_13  and  C_14
REMARK   10  A    between atoms: C_14  and  C_15
REMARK   11  A    between atoms: C_14  and  C_25
REMARK   12  A    between atoms: N_17  and  C_18
REMARK   13  A    between atoms: N_27  and  C_28
REMARK                            x       y       z     vdW  Elec       q    Type
REMARK                         _______ _______ _______ _____ _____    ______ ____
ROOT
ATOM      1  C   UNL     1       0.299  11.428  18.517  0.00  0.00    +0.000 C 
ENDROOT
BRANCH   1   2
ATOM      2  C   UNL     1      -1.244  11.096  18.250  0.00  0.00    +0.000 A 
ATOM      3  C   UNL     1      -1.654   9.937  17.572  0.00  0.00    +0.000 A 
ATOM      4  N   UNL     1      -2.806  10.334  16.938  0.00  0.00    +0.000 N 
ATOM      5  C   UNL     1      -2.812  10.966  15.622  0.00  0.00    +0.000 C 
ATOM      6  C   UNL     1      -3.565  10.873  17.955  0.00  0.00    +0.000 A 
ATOM      7  C   UNL     1      -4.972  10.908  18.087  0.00  0.00    +0.000 A 
ATOM      8  C   UNL     1      -5.502  11.705  19.095  0.00  0.00    +0.000 A 
ATOM      9  C   UNL     1      -4.643  12.489  19.845  0.00  0.00    +0.000 A 
ATOM     10  C   UNL     1      -3.209  12.463  19.664  0.00  0.00    +0.000 A 
ATOM     11  C   UNL     1      -2.608  11.577  18.728  0.00  0.00    +0.000 A 
ENDBRANCH   1   2
BRANCH   1  12
ATOM     12  C   UNL     1       0.605  12.560  19.601  0.00  0.00    +0.000 A 
ATOM     13  C   UNL     1       1.013  12.306  20.914  0.00  0.00    +0.000 A 
ATOM     14  N   UNL     1       0.433  13.296  21.661  0.00  0.00    +0.000 N 
ATOM     15  C   UNL     1      -0.761  13.168  22.483  0.00  0.00    +0.000 C 
ATOM     16  C   UNL     1       0.652  14.471  20.970  0.00  0.00    +0.000 A 
ATOM     17  C   UNL     1       0.703  15.760  21.482  0.00  0.00    +0.000 A 
ATOM     18  C   UNL     1       0.730  16.810  20.565  0.00  0.00    +0.000 A 
ATOM     19  C   UNL     1       0.646  16.506  19.214  0.00  0.00    +0.000 A 
ATOM     20  C   UNL     1       0.557  15.162  18.724  0.00  0.00    +0.000 A 
ATOM     21  C   UNL     1       0.599  14.065  19.619  0.00  0.00    +0.000 A 
ENDBRANCH   1  12
BRANCH   1  25
ATOM     22  C   UNL     1       2.197   7.481  19.445  0.00  0.00    +0.000 A 
ATOM     23  C   UNL     1       2.360   8.169  18.246  0.00  0.00    +0.000 A 
ATOM     24  C   UNL     1       1.752   9.421  18.010  0.00  0.00    +0.000 A 
ATOM     25  C   UNL     1       0.943  10.075  18.956  0.00  0.00    +0.000 A 
ATOM     26  C   UNL     1       0.778   9.378  20.177  0.00  0.00    +0.000 A 
ATOM     27  C   UNL     1       1.397   8.104  20.417  0.00  0.00    +0.000 A 
BRANCH  22  28
ATOM     28  O   UNL     1       2.759   6.243  19.725  0.00  0.00    +0.000 OA
BRANCH  28  29
ATOM     29  C   UNL     1       2.001   5.427  20.642  0.00  0.00    +0.000 C 
BRANCH  29  30
ATOM     30  C   UNL     1       1.091   4.371  20.000  0.00  0.00    +0.000 C 
BRANCH  30  31
ATOM     31  C   UNL     1       1.525   3.952  18.597  0.00  0.00    +0.000 C 
BRANCH  31  32
ATOM     32  C   UNL     1       2.621   2.908  18.641  0.00  0.00    +0.000 C 
ATOM     33  O   UNL     1       2.913   2.223  19.610  0.00  0.00    +0.000 OA
BRANCH  32  34
ATOM     34  O   UNL     1       3.300   2.929  17.457  0.00  0.00    +0.000 OA
BRANCH  34  36
ATOM     35  C   UNL     1       5.218   4.237  18.029  0.00  0.00    +0.000 C 
ATOM     36  C   UNL     1       3.979   4.156  17.155  0.00  0.00    +0.000 C 
ENDBRANCH  34  36
ENDBRANCH  32  34
ENDBRANCH  31  32
ENDBRANCH  30  31
ENDBRANCH  29  30
ENDBRANCH  28  29
ENDBRANCH  22  28
ENDBRANCH   1  25
TORSDOF 10
ENDMDL
MODEL 7
REMARK VINA RESULT:      -7.7      1.385      2.652
REMARK  Name = 
REMARK  13 active torsions:
REMARK  status: ('A' for Active; 'I' for Inactive)
REMARK    1  A    between atoms: C_1  and  C_2
REMARK    2  A    between atoms: C_2  and  O_3
REMARK    3  A    between atoms: O_3  and  C_4
REMARK    4  A    between atoms: C_4  and  C_6
REMARK    5  A    between atoms: C_6  and  C_7
REMARK    6  A    between atoms: C_7  and  C_8
REMARK    7  A    between atoms: C_8  and  O_9
REMARK    8  A    between atoms: O_9  and  C_10
REMARK    9  A    between atoms: C_13  and  C_14
REMARK   10  A    between atoms: C_14  and  C_15
REMARK   11  A    between atoms: C_14  and  C_25
REMARK   12  A    between atoms: N_17  and  C_18
REMARK   13  A    between atoms: N_27  and  C_28
REMARK                            x       y       z     vdW  Elec       q    Type
REMARK                         _______ _______ _______ _____ _____    ______ ____
ROOT
ATOM      1  C   UNL     1      -0.678  11.960  18.644  0.00  0.00    +0.000 C 
ENDROOT
BRANCH   1   2
ATOM      2  C   UNL     1      -2.161  11.429  18.358  0.00  0.00    +0.000 A 
ATOM      3  C   UNL     1      -2.407  10.212  17.703  0.00  0.00    +0.000 A 
ATOM      4  N   UNL     1      -3.585  10.445  17.037  0.00  0.00    +0.000 N 
ATOM      5  C   UNL     1      -3.643  11.039  15.706  0.00  0.00    +0.000 C 
ATOM      6  C   UNL     1      -4.428  10.907  18.026  0.00  0.00    +0.000 A 
ATOM      7  C   UNL     1      -5.831  10.766  18.131  0.00  0.00    +0.000 A 
ATOM      8  C   UNL     1      -6.478  11.513  19.108  0.00  0.00    +0.000 A 
ATOM      9  C   UNL     1      -5.742  12.418  19.853  0.00  0.00    +0.000 A 
ATOM     10  C   UNL     1      -4.313  12.569  19.699  0.00  0.00    +0.000 A 
ATOM     11  C   UNL     1      -3.584  11.745  18.798  0.00  0.00    +0.000 A 
ENDBRANCH   1   2
BRANCH   1  12
ATOM     12  C   UNL     1      -0.538  13.125  19.727  0.00  0.00    +0.000 A 
ATOM     13  C   UNL     1       0.056  14.366  19.478  0.00  0.00    +0.000 A 
ATOM     14  N   UNL     1       0.671  14.705  20.653  0.00  0.00    +0.000 N 
ATOM     15  C   UNL     1       2.092  14.588  20.948  0.00  0.00    +0.000 C 
ATOM     16  C   UNL     1      -0.247  14.445  21.651  0.00  0.00    +0.000 A 
ATOM     17  C   UNL     1      -0.321  15.027  22.909  0.00  0.00    +0.000 A 
ATOM     18  C   UNL     1      -1.206  14.459  23.824  0.00  0.00    +0.000 A 
ATOM     19  C   UNL     1      -1.905  13.321  23.444  0.00  0.00    +0.000 A 
ATOM     20  C   UNL     1      -1.773  12.726  22.147  0.00  0.00    +0.000 A 
ATOM     21  C   UNL     1      -0.940  13.316  21.165  0.00  0.00    +0.000 A 
ENDBRANCH   1  12
BRANCH   1  25
ATOM     22  C   UNL     1       1.691   8.288  19.613  0.00  0.00    +0.000 A 
ATOM     23  C   UNL     1       1.741   8.956  18.393  0.00  0.00    +0.000 A 
ATOM     24  C   UNL     1       0.985  10.122  18.144  0.00  0.00    +0.000 A 
ATOM     25  C   UNL     1       0.131  10.704  19.097  0.00  0.00    +0.000 A 
ATOM     26  C   UNL     1       0.081  10.028  20.339  0.00  0.00    +0.000 A 
ATOM     27  C   UNL     1       0.851   8.841  20.593  0.00  0.00    +0.000 A 
BRANCH  22  28
ATOM     28  O   UNL     1       2.401   7.132  19.907  0.00  0.00    +0.000 OA
BRANCH  28  29
ATOM     29  C   UNL     1       3.290   6.684  18.862  0.00  0.00    +0.000 C 
BRANCH  29  30
ATOM     30  C   UNL     1       3.821   5.253  19.006  0.00  0.00    +0.000 C 
BRANCH  30  31
ATOM     31  C   UNL     1       3.570   4.374  17.782  0.00  0.00    +0.000 C 
BRANCH  31  32
ATOM     32  C   UNL     1       2.489   3.346  18.046  0.00  0.00    +0.000 C 
ATOM     33  O   UNL     1       2.077   2.524  17.241  0.00  0.00    +0.000 OA
BRANCH  32  34
ATOM     34  O   UNL     1       1.976   3.554  19.294  0.00  0.00    +0.000 OA
BRANCH  34  36
ATOM     35  C   UNL     1       1.663   2.854  21.559  0.00  0.00    +0.000 C 
ATOM     36  C   UNL     1       1.895   2.391  20.131  0.00  0.00    +0.000 C 
ENDBRANCH  34  36
ENDBRANCH  32  34
ENDBRANCH  31  32
ENDBRANCH  30  31
ENDBRANCH  29  30
ENDBRANCH  28  29
ENDBRANCH  22  28
ENDBRANCH   1  25
TORSDOF 10
ENDMDL
MODEL 8
REMARK VINA RESULT:      -7.7      1.582      2.692
REMARK  Name = 
REMARK  13 active torsions:
REMARK  status: ('A' for Active; 'I' for Inactive)
REMARK    1  A    between atoms: C_1  and  C_2
REMARK    2  A    between atoms: C_2  and  O_3
REMARK    3  A    between atoms: O_3  and  C_4
REMARK    4  A    between atoms: C_4  and  C_6
REMARK    5  A    between atoms: C_6  and  C_7
REMARK    6  A    between atoms: C_7  and  C_8
REMARK    7  A    between atoms: C_8  and  O_9
REMARK    8  A    between atoms: O_9  and  C_10
REMARK    9  A    between atoms: C_13  and  C_14
REMARK   10  A    between atoms: C_14  and  C_15
REMARK   11  A    between atoms: C_14  and  C_25
REMARK   12  A    between atoms: N_17  and  C_18
REMARK   13  A    between atoms: N_27  and  C_28
REMARK                            x       y       z     vdW  Elec       q    Type
REMARK                         _______ _______ _______ _____ _____    ______ ____
ROOT
ATOM      1  C   UNL     1       0.004  11.497  18.267  0.00  0.00    +0.000 C 
ENDROOT
BRANCH   1   2
ATOM      2  C   UNL     1      -1.513  11.064  17.989  0.00  0.00    +0.000 A 
ATOM      3  C   UNL     1      -1.842   9.875  17.320  0.00  0.00    +0.000 A 
ATOM      4  N   UNL     1      -3.010  10.191  16.670  0.00  0.00    +0.000 N 
ATOM      5  C   UNL     1      -3.042  10.807  15.348  0.00  0.00    +0.000 C 
ATOM      6  C   UNL     1      -3.812  10.692  17.674  0.00  0.00    +0.000 A 
ATOM      7  C   UNL     1      -5.220  10.638  17.792  0.00  0.00    +0.000 A 
ATOM      8  C   UNL     1      -5.809  11.412  18.786  0.00  0.00    +0.000 A 
ATOM      9  C   UNL     1      -5.010  12.257  19.535  0.00  0.00    +0.000 A 
ATOM     10  C   UNL     1      -3.575  12.319  19.367  0.00  0.00    +0.000 A 
ATOM     11  C   UNL     1      -2.909  11.464  18.448  0.00  0.00    +0.000 A 
ENDBRANCH   1   2
BRANCH   1  12
ATOM     12  C   UNL     1       0.220  12.732  19.256  0.00  0.00    +0.000 A 
ATOM     13  C   UNL     1       0.950  13.880  18.935  0.00  0.00    +0.000 A 
ATOM     14  N   UNL     1       1.548  14.256  20.108  0.00  0.00    +0.000 N 
ATOM     15  C   UNL     1       2.936  14.023  20.481  0.00  0.00    +0.000 C 
ATOM     16  C   UNL     1       0.568  14.178  21.076  0.00  0.00    +0.000 A 
ATOM     17  C   UNL     1       0.503  14.872  22.277  0.00  0.00    +0.000 A 
ATOM     18  C   UNL     1      -0.472  14.477  23.190  0.00  0.00    +0.000 A 
ATOM     19  C   UNL     1      -1.270  13.387  22.871  0.00  0.00    +0.000 A 
ATOM     20  C   UNL     1      -1.148  12.671  21.636  0.00  0.00    +0.000 A 
ATOM     21  C   UNL     1      -0.218  13.086  20.651  0.00  0.00    +0.000 A 
ENDBRANCH   1  12
BRANCH   1  25
ATOM     22  C   UNL     1       2.051   7.741  19.583  0.00  0.00    +0.000 A 
ATOM     23  C   UNL     1       2.189   8.309  18.320  0.00  0.00    +0.000 A 
ATOM     24  C   UNL     1       1.533   9.506  17.960  0.00  0.00    +0.000 A 
ATOM     25  C   UNL     1       0.699  10.221  18.838  0.00  0.00    +0.000 A 
ATOM     26  C   UNL     1       0.560   9.646  20.123  0.00  0.00    +0.000 A 
ATOM     27  C   UNL     1       1.227   8.427  20.490  0.00  0.00    +0.000 A 
BRANCH  22  28
ATOM     28  O   UNL     1       2.661   6.560  19.985  0.00  0.00    +0.000 OA
BRANCH  28  29
ATOM     29  C   UNL     1       3.398   5.875  18.951  0.00  0.00    +0.000 C 
BRANCH  29  30
ATOM     30  C   UNL     1       4.733   5.256  19.382  0.00  0.00    +0.000 C 
BRANCH  30  31
ATOM     31  C   UNL     1       5.271   4.208  18.410  0.00  0.00    +0.000 C 
BRANCH  31  32
ATOM     32  C   UNL     1       6.108   4.839  17.317  0.00  0.00    +0.000 C 
ATOM     33  O   UNL     1       7.203   5.360  17.470  0.00  0.00    +0.000 OA
BRANCH  32  34
ATOM     34  O   UNL     1       5.397   4.826  16.152  0.00  0.00    +0.000 OA
BRANCH  34  36
ATOM     35  C   UNL     1       6.072   3.945  14.034  0.00  0.00    +0.000 C 
ATOM     36  C   UNL     1       6.144   5.140  14.967  0.00  0.00    +0.000 C 
ENDBRANCH  34  36
ENDBRANCH  32  34
ENDBRANCH  31  32
ENDBRANCH  30  31
ENDBRANCH  29  30
ENDBRANCH  28  29
ENDBRANCH  22  28
ENDBRANCH   1  25
TORSDOF 10
ENDMDL
MODEL 9
REMARK VINA RESULT:      -7.7      1.225      5.436
REMARK  Name = 
REMARK  13 active torsions:
REMARK  status: ('A' for Active; 'I' for Inactive)
REMARK    1  A    between atoms: C_1  and  C_2
REMARK    2  A    between atoms: C_2  and  O_3
REMARK    3  A    between atoms: O_3  and  C_4
REMARK    4  A    between atoms: C_4  and  C_6
REMARK    5  A    between atoms: C_6  and  C_7
REMARK    6  A    between atoms: C_7  and  C_8
REMARK    7  A    between atoms: C_8  and  O_9
REMARK    8  A    between atoms: O_9  and  C_10
REMARK    9  A    between atoms: C_13  and  C_14
REMARK   10  A    between atoms: C_14  and  C_15
REMARK   11  A    between atoms: C_14  and  C_25
REMARK   12  A    between atoms: N_17  and  C_18
REMARK   13  A    between atoms: N_27  and  C_28
REMARK                            x       y       z     vdW  Elec       q    Type
REMARK                         _______ _______ _______ _____ _____    ______ ____
ROOT
ATOM      1  C   UNL     1      -1.146  11.216  20.668  0.00  0.00    +0.000 C 
ENDROOT
BRANCH   1   2
ATOM      2  C   UNL     1      -0.269  12.447  21.198  0.00  0.00    +0.000 A 
ATOM      3  C   UNL     1      -0.460  13.010  22.470  0.00  0.00    +0.000 A 
ATOM      4  N   UNL     1      -0.129  14.330  22.282  0.00  0.00    +0.000 N 
ATOM      5  C   UNL     1      -1.084  15.332  21.822  0.00  0.00    +0.000 C 
ATOM      6  C   UNL     1       1.124  14.269  21.708  0.00  0.00    +0.000 A 
ATOM      7  C   UNL     1       2.191  15.191  21.813  0.00  0.00    +0.000 A 
ATOM      8  C   UNL     1       3.274  15.016  20.960  0.00  0.00    +0.000 A 
ATOM      9  C   UNL     1       3.213  14.021  20.000  0.00  0.00    +0.000 A 
ATOM     10  C   UNL     1       2.092  13.116  19.891  0.00  0.00    +0.000 A 
ATOM     11  C   UNL     1       1.012  13.176  20.814  0.00  0.00    +0.000 A 
ENDBRANCH   1   2
BRANCH   1  12
ATOM     12  C   UNL     1      -2.149  11.526  19.465  0.00  0.00    +0.000 A 
ATOM     13  C   UNL     1      -3.053  12.593  19.445  0.00  0.00    +0.000 A 
ATOM     14  N   UNL     1      -4.149  12.115  18.779  0.00  0.00    +0.000 N 
ATOM     15  C   UNL     1      -5.393  11.658  19.382  0.00  0.00    +0.000 C 
ATOM     16  C   UNL     1      -3.660  11.461  17.665  0.00  0.00    +0.000 A 
ATOM     17  C   UNL     1      -4.315  11.228  16.463  0.00  0.00    +0.000 A 
ATOM     18  C   UNL     1      -3.697  10.367  15.558  0.00  0.00    +0.000 A 
ATOM     19  C   UNL     1      -2.509   9.756  15.935  0.00  0.00    +0.000 A 
ATOM     20  C   UNL     1      -1.883   9.993  17.201  0.00  0.00    +0.000 A 
ATOM     21  C   UNL     1      -2.441  10.917  18.119  0.00  0.00    +0.000 A 
ENDBRANCH   1  12
BRANCH   1  25
ATOM     22  C   UNL     1       1.839   8.003  19.775  0.00  0.00    +0.000 A 
ATOM     23  C   UNL     1       1.077   8.067  20.938  0.00  0.00    +0.000 A 
ATOM     24  C   UNL     1       0.136   9.094  21.164  0.00  0.00    +0.000 A 
ATOM     25  C   UNL     1      -0.114  10.126  20.242  0.00  0.00    +0.000 A 
ATOM     26  C   UNL     1       0.658  10.061  19.057  0.00  0.00    +0.000 A 
ATOM     27  C   UNL     1       1.616   9.015  18.828  0.00  0.00    +0.000 A 
BRANCH  22  28
ATOM     28  O   UNL     1       2.787   7.025  19.508  0.00  0.00    +0.000 OA
BRANCH  28  29
ATOM     29  C   UNL     1       3.135   6.883  18.115  0.00  0.00    +0.000 C 
BRANCH  29  30
ATOM     30  C   UNL     1       3.825   5.569  17.730  0.00  0.00    +0.000 C 
BRANCH  30  31
ATOM     31  C   UNL     1       2.864   4.396  17.545  0.00  0.00    +0.000 C 
BRANCH  31  32
ATOM     32  C   UNL     1       3.285   3.195  18.365  0.00  0.00    +0.000 C 
ATOM     33  O   UNL     1       3.433   2.059  17.940  0.00  0.00    +0.000 OA
BRANCH  32  34
ATOM     34  O   UNL     1       3.370   3.563  19.677  0.00  0.00    +0.000 OA
BRANCH  34  36
ATOM     35  C   UNL     1       1.272   4.021  20.728  0.00  0.00    +0.000 C 
ATOM     36  C   UNL     1       2.378   2.997  20.545  0.00  0.00    +0.000 C 
ENDBRANCH  34  36
ENDBRANCH  32  34
ENDBRANCH  31  32
ENDBRANCH  30  31
ENDBRANCH  29  30
ENDBRANCH  28  29
ENDBRANCH  22  28
ENDBRANCH   1  25
TORSDOF 10
ENDMDL
