MODEL 1
REMARK VINA RESULT:      -8.7      0.000      0.000
REMARK  Name = 
REMARK  7 active torsions:
REMARK  status: ('A' for Active; 'I' for Inactive)
REMARK    1  A    between atoms: C_1  and  C_2
REMARK    2  A    between atoms: C_4  and  N_5
REMARK    3  A    between atoms: N_8  and  C_9
REMARK    4  A    between atoms: C_13  and  C_14
REMARK    5  A    between atoms: C_21  and  N_22
REMARK    6  A    between atoms: C_23  and  C_25
REMARK    7  A    between atoms: C_29  and  C_30
REMARK                            x       y       z     vdW  Elec       q    Type
REMARK                         _______ _______ _______ _____ _____    ______ ____
ROOT
ATOM      1  C   UNL     1      10.108  12.463  21.359  0.00  0.00    +0.000 C 
ATOM      2  C   UNL     1       9.618  11.866  20.067  0.00  0.00    +0.000 A 
ATOM      3  C   UNL     1       9.443  10.463  20.037  0.00  0.00    +0.000 A 
ATOM      4  C   UNL     1       8.967   9.799  18.905  0.00  0.00    +0.000 A 
ATOM      5  C   UNL     1       8.731  10.544  17.755  0.00  0.00    +0.000 A 
ATOM      6  C   UNL     1       8.898  11.936  17.771  0.00  0.00    +0.000 A 
ATOM      7  C   UNL     1       9.313  12.625  18.922  0.00  0.00    +0.000 A 
ENDROOT
BRANCH   4   8
ATOM      8  N   UNL     1       8.746   8.404  18.875  0.00  0.00    +0.000 N 
ATOM      9  C   UNL     1       7.846   7.771  18.031  0.00  0.00    +0.000 C 
ATOM     10  O   UNL     1       7.255   8.310  17.102  0.00  0.00    +0.000 OA
ATOM     11  N   UNL     1       7.659   6.444  18.396  0.00  0.00    +0.000 N 
ATOM     12  H   UNL     1       9.475   7.813  19.252  0.00  0.00    +0.000 HD
ATOM     13  H   UNL     1       7.703   6.293  19.393  0.00  0.00    +0.000 HD
BRANCH  11  14
ATOM     14  C   UNL     1       6.776   5.608  17.673  0.00  0.00    +0.000 A 
ATOM     15  C   UNL     1       7.245   4.980  16.518  0.00  0.00    +0.000 A 
ATOM     16  C   UNL     1       6.416   4.107  15.812  0.00  0.00    +0.000 A 
ATOM     17  C   UNL     1       5.098   3.905  16.222  0.00  0.00    +0.000 A 
ATOM     18  C   UNL     1       4.595   4.567  17.352  0.00  0.00    +0.000 A 
ATOM     19  C   UNL     1       5.455   5.402  18.086  0.00  0.00    +0.000 A 
BRANCH  18  20
ATOM     20  C   UNL     1       3.153   4.406  17.770  0.00  0.00    +0.000 C 
ATOM     21  F   UNL     1       3.009   3.875  19.019  0.00  0.00    +0.000 F 
ATOM     22  F   UNL     1       2.467   5.579  17.784  0.00  0.00    +0.000 F 
ATOM     23  F   UNL     1       2.462   3.574  16.939  0.00  0.00    +0.000 F 
ENDBRANCH  18  20
ENDBRANCH  11  14
ENDBRANCH   4   8
BRANCH   7  24
ATOM     24  N   UNL     1       9.444  14.045  18.946  0.00  0.00    +0.000 N 
ATOM     25  C   UNL     1      10.378  14.781  18.222  0.00  0.00    +0.000 C 
ATOM     26  O   UNL     1      11.134  14.298  17.386  0.00  0.00    +0.000 OA
ATOM     27  H   UNL     1       8.721  14.555  19.427  0.00  0.00    +0.000 HD
BRANCH  25  28
ATOM     28  C   UNL     1      10.423  16.219  18.441  0.00  0.00    +0.000 A 
ATOM     29  C   UNL     1      11.626  16.954  18.616  0.00  0.00    +0.000 A 
ATOM     30  N   UNL     1      11.411  18.250  18.830  0.00  0.00    +0.000 NA
ATOM     31  O   UNL     1      10.039  18.392  18.813  0.00  0.00    +0.000 OA
ATOM     32  C   UNL     1       9.448  17.183  18.591  0.00  0.00    +0.000 A 
ATOM     33  C   UNL     1       7.974  17.216  18.601  0.00  0.00    +0.000 C 
ENDBRANCH  25  28
ENDBRANCH   7  24
TORSDOF 5
ENDMDL
MODEL 2
REMARK VINA RESULT:      -8.7      8.219      9.658
REMARK  Name = 
REMARK  7 active torsions:
REMARK  status: ('A' for Active; 'I' for Inactive)
REMARK    1  A    between atoms: C_1  and  C_2
REMARK    2  A    between atoms: C_4  and  N_5
REMARK    3  A    between atoms: N_8  and  C_9
REMARK    4  A    between atoms: C_13  and  C_14
REMARK    5  A    between atoms: C_21  and  N_22
REMARK    6  A    between atoms: C_23  and  C_25
REMARK    7  A    between atoms: C_29  and  C_30
REMARK                            x       y       z     vdW  Elec       q    Type
REMARK                         _______ _______ _______ _____ _____    ______ ____
ROOT
ATOM      1  C   UNL     1      -0.372  11.930  19.600  0.00  0.00    +0.000 C 
ATOM      2  C   UNL     1      -0.191  10.891  20.675  0.00  0.00    +0.000 A 
ATOM      3  C   UNL     1       0.748   9.865  20.422  0.00  0.00    +0.000 A 
ATOM      4  C   UNL     1       1.024   8.864  21.355  0.00  0.00    +0.000 A 
ATOM      5  C   UNL     1       0.292   8.846  22.536  0.00  0.00    +0.000 A 
ATOM      6  C   UNL     1      -0.641   9.858  22.802  0.00  0.00    +0.000 A 
ATOM      7  C   UNL     1      -0.881  10.908  21.902  0.00  0.00    +0.000 A 
ENDROOT
BRANCH   4   8
ATOM      8  N   UNL     1       1.991   7.858  21.132  0.00  0.00    +0.000 N 
ATOM      9  C   UNL     1       2.267   7.298  19.894  0.00  0.00    +0.000 C 
ATOM     10  O   UNL     1       1.836   7.710  18.824  0.00  0.00    +0.000 OA
ATOM     11  N   UNL     1       3.070   6.171  20.018  0.00  0.00    +0.000 N 
ATOM     12  H   UNL     1       2.719   7.756  21.826  0.00  0.00    +0.000 HD
ATOM     13  H   UNL     1       2.883   5.636  20.853  0.00  0.00    +0.000 HD
BRANCH  11  14
ATOM     14  C   UNL     1       3.473   5.436  18.878  0.00  0.00    +0.000 A 
ATOM     15  C   UNL     1       2.682   4.366  18.459  0.00  0.00    +0.000 A 
ATOM     16  C   UNL     1       3.022   3.654  17.308  0.00  0.00    +0.000 A 
ATOM     17  C   UNL     1       4.185   3.970  16.606  0.00  0.00    +0.000 A 
ATOM     18  C   UNL     1       5.019   5.011  17.041  0.00  0.00    +0.000 A 
ATOM     19  C   UNL     1       4.638   5.755  18.172  0.00  0.00    +0.000 A 
BRANCH  18  20
ATOM     20  C   UNL     1       6.312   5.323  16.327  0.00  0.00    +0.000 C 
ATOM     21  F   UNL     1       7.204   4.290  16.349  0.00  0.00    +0.000 F 
ATOM     22  F   UNL     1       6.136   5.633  15.015  0.00  0.00    +0.000 F 
ATOM     23  F   UNL     1       6.967   6.382  16.882  0.00  0.00    +0.000 F 
ENDBRANCH  18  20
ENDBRANCH  11  14
ENDBRANCH   4   8
BRANCH   7  24
ATOM     24  N   UNL     1      -1.802  11.958  22.193  0.00  0.00    +0.000 N 
ATOM     25  C   UNL     1      -1.522  13.085  22.961  0.00  0.00    +0.000 C 
ATOM     26  O   UNL     1      -0.408  13.365  23.390  0.00  0.00    +0.000 OA
ATOM     27  H   UNL     1      -2.677  11.937  21.698  0.00  0.00    +0.000 HD
BRANCH  25  28
ATOM     28  C   UNL     1      -2.614  14.010  23.226  0.00  0.00    +0.000 A 
ATOM     29  C   UNL     1      -2.545  15.406  22.973  0.00  0.00    +0.000 A 
ATOM     30  N   UNL     1      -3.656  16.049  23.325  0.00  0.00    +0.000 NA
ATOM     31  O   UNL     1      -4.486  15.073  23.838  0.00  0.00    +0.000 OA
ATOM     32  C   UNL     1      -3.864  13.860  23.789  0.00  0.00    +0.000 A 
ATOM     33  C   UNL     1      -4.650  12.751  24.359  0.00  0.00    +0.000 C 
ENDBRANCH  25  28
ENDBRANCH   7  24
TORSDOF 5
ENDMDL
MODEL 3
REMARK VINA RESULT:      -8.7      1.201      1.473
REMARK  Name = 
REMARK  7 active torsions:
REMARK  status: ('A' for Active; 'I' for Inactive)
REMARK    1  A    between atoms: C_1  and  C_2
REMARK    2  A    between atoms: C_4  and  N_5
REMARK    3  A    between atoms: N_8  and  C_9
REMARK    4  A    between atoms: C_13  and  C_14
REMARK    5  A    between atoms: C_21  and  N_22
REMARK    6  A    between atoms: C_23  and  C_25
REMARK    7  A    between atoms: C_29  and  C_30
REMARK                            x       y       z     vdW  Elec       q    Type
REMARK                         _______ _______ _______ _____ _____    ______ ____
ROOT
ATOM      1  C   UNL     1      10.371  12.404  21.207  0.00  0.00    +0.000 C 
ATOM      2  C   UNL     1       9.754  11.814  19.967  0.00  0.00    +0.000 A 
ATOM      3  C   UNL     1       9.569  10.413  19.949  0.00  0.00    +0.000 A 
ATOM      4  C   UNL     1       8.980   9.755  18.867  0.00  0.00    +0.000 A 
ATOM      5  C   UNL     1       8.636  10.506  17.749  0.00  0.00    +0.000 A 
ATOM      6  C   UNL     1       8.811  11.898  17.753  0.00  0.00    +0.000 A 
ATOM      7  C   UNL     1       9.341  12.580  18.860  0.00  0.00    +0.000 A 
ENDROOT
BRANCH   4   8
ATOM      8  N   UNL     1       8.750   8.362  18.854  0.00  0.00    +0.000 N 
ATOM      9  C   UNL     1       7.826   7.728  18.037  0.00  0.00    +0.000 C 
ATOM     10  O   UNL     1       7.217   8.263  17.117  0.00  0.00    +0.000 OA
ATOM     11  N   UNL     1       7.640   6.405  18.417  0.00  0.00    +0.000 N 
ATOM     12  H   UNL     1       9.483   7.769  19.219  0.00  0.00    +0.000 HD
ATOM     13  H   UNL     1       7.706   6.262  19.414  0.00  0.00    +0.000 HD
BRANCH  11  14
ATOM     14  C   UNL     1       6.735   5.569  17.722  0.00  0.00    +0.000 A 
ATOM     15  C   UNL     1       7.156   4.972  16.533  0.00  0.00    +0.000 A 
ATOM     16  C   UNL     1       6.306   4.099  15.851  0.00  0.00    +0.000 A 
ATOM     17  C   UNL     1       5.013   3.867  16.321  0.00  0.00    +0.000 A 
ATOM     18  C   UNL     1       4.556   4.498  17.488  0.00  0.00    +0.000 A 
ATOM     19  C   UNL     1       5.439   5.334  18.195  0.00  0.00    +0.000 A 
BRANCH  18  20
ATOM     20  C   UNL     1       3.141   4.306  17.973  0.00  0.00    +0.000 C 
ATOM     21  F   UNL     1       3.035   4.278  19.333  0.00  0.00    +0.000 F 
ATOM     22  F   UNL     1       2.294   5.285  17.555  0.00  0.00    +0.000 F 
ATOM     23  F   UNL     1       2.600   3.130  17.542  0.00  0.00    +0.000 F 
ENDBRANCH  18  20
ENDBRANCH  11  14
ENDBRANCH   4   8
BRANCH   7  24
ATOM     24  N   UNL     1       9.481  13.999  18.877  0.00  0.00    +0.000 N 
ATOM     25  C   UNL     1       8.526  14.898  19.345  0.00  0.00    +0.000 C 
ATOM     26  O   UNL     1       7.487  14.566  19.904  0.00  0.00    +0.000 OA
ATOM     27  H   UNL     1      10.391  14.363  18.650  0.00  0.00    +0.000 HD
BRANCH  25  28
ATOM     28  C   UNL     1       8.807  16.319  19.202  0.00  0.00    +0.000 A 
ATOM     29  C   UNL     1       8.053  17.193  18.373  0.00  0.00    +0.000 A 
ATOM     30  N   UNL     1       8.519  18.440  18.383  0.00  0.00    +0.000 NA
ATOM     31  O   UNL     1       9.614  18.406  19.221  0.00  0.00    +0.000 OA
ATOM     32  C   UNL     1       9.793  17.142  19.703  0.00  0.00    +0.000 A 
ATOM     33  C   UNL     1      10.971  16.986  20.576  0.00  0.00    +0.000 C 
ENDBRANCH  25  28
ENDBRANCH   7  24
TORSDOF 5
ENDMDL
MODEL 4
REMARK VINA RESULT:      -8.7      1.169      1.476
REMARK  Name = 
REMARK  7 active torsions:
REMARK  status: ('A' for Active; 'I' for Inactive)
REMARK    1  A    between atoms: C_1  and  C_2
REMARK    2  A    between atoms: C_4  and  N_5
REMARK    3  A    between atoms: N_8  and  C_9
REMARK    4  A    between atoms: C_13  and  C_14
REMARK    5  A    between atoms: C_21  and  N_22
REMARK    6  A    between atoms: C_23  and  C_25
REMARK    7  A    between atoms: C_29  and  C_30
REMARK                            x       y       z     vdW  Elec       q    Type
REMARK                         _______ _______ _______ _____ _____    ______ ____
ROOT
ATOM      1  C   UNL     1      11.114  12.386  20.345  0.00  0.00    +0.000 C 
ATOM      2  C   UNL     1      10.102  11.799  19.398  0.00  0.00    +0.000 A 
ATOM      3  C   UNL     1       9.872  10.407  19.488  0.00  0.00    +0.000 A 
ATOM      4  C   UNL     1       8.936   9.755  18.683  0.00  0.00    +0.000 A 
ATOM      5  C   UNL     1       8.269  10.498  17.715  0.00  0.00    +0.000 A 
ATOM      6  C   UNL     1       8.485  11.879  17.615  0.00  0.00    +0.000 A 
ATOM      7  C   UNL     1       9.374  12.560  18.463  0.00  0.00    +0.000 A 
ENDROOT
BRANCH   4   8
ATOM      8  N   UNL     1       8.666   8.373  18.793  0.00  0.00    +0.000 N 
ATOM      9  C   UNL     1       7.788   7.679  17.975  0.00  0.00    +0.000 C 
ATOM     10  O   UNL     1       7.266   8.129  16.961  0.00  0.00    +0.000 OA
ATOM     11  N   UNL     1       7.533   6.407  18.471  0.00  0.00    +0.000 N 
ATOM     12  H   UNL     1       9.351   7.805  19.273  0.00  0.00    +0.000 HD
ATOM     13  H   UNL     1       7.520   6.366  19.479  0.00  0.00    +0.000 HD
BRANCH  11  14
ATOM     14  C   UNL     1       6.659   5.524  17.795  0.00  0.00    +0.000 A 
ATOM     15  C   UNL     1       7.100   4.917  16.618  0.00  0.00    +0.000 A 
ATOM     16  C   UNL     1       6.282   3.999  15.957  0.00  0.00    +0.000 A 
ATOM     17  C   UNL     1       4.999   3.731  16.434  0.00  0.00    +0.000 A 
ATOM     18  C   UNL     1       4.521   4.369  17.588  0.00  0.00    +0.000 A 
ATOM     19  C   UNL     1       5.373   5.251  18.276  0.00  0.00    +0.000 A 
BRANCH  18  20
ATOM     20  C   UNL     1       3.113   4.135  18.080  0.00  0.00    +0.000 C 
ATOM     21  F   UNL     1       3.014   3.097  18.960  0.00  0.00    +0.000 F 
ATOM     22  F   UNL     1       2.584   5.214  18.718  0.00  0.00    +0.000 F 
ATOM     23  F   UNL     1       2.252   3.837  17.066  0.00  0.00    +0.000 F 
ENDBRANCH  18  20
ENDBRANCH  11  14
ENDBRANCH   4   8
BRANCH   7  24
ATOM     24  N   UNL     1       9.562  13.971  18.385  0.00  0.00    +0.000 N 
ATOM     25  C   UNL     1       8.542  14.919  18.335  0.00  0.00    +0.000 C 
ATOM     26  O   UNL     1       7.353  14.654  18.465  0.00  0.00    +0.000 OA
ATOM     27  H   UNL     1      10.503  14.306  18.503  0.00  0.00    +0.000 HD
BRANCH  25  28
ATOM     28  C   UNL     1       8.923  16.313  18.167  0.00  0.00    +0.000 A 
ATOM     29  C   UNL     1       8.112  17.407  18.572  0.00  0.00    +0.000 A 
ATOM     30  N   UNL     1       8.659  18.587  18.287  0.00  0.00    +0.000 NA
ATOM     31  O   UNL     1       9.854  18.286  17.667  0.00  0.00    +0.000 OA
ATOM     32  C   UNL     1      10.009  16.933  17.586  0.00  0.00    +0.000 A 
ATOM     33  C   UNL     1      11.238  16.503  16.894  0.00  0.00    +0.000 C 
ENDBRANCH  25  28
ENDBRANCH   7  24
TORSDOF 5
ENDMDL
MODEL 5
REMARK VINA RESULT:      -8.6      0.909      1.038
REMARK  Name = 
REMARK  7 active torsions:
REMARK  status: ('A' for Active; 'I' for Inactive)
REMARK    1  A    between atoms: C_1  and  C_2
REMARK    2  A    between atoms: C_4  and  N_5
REMARK    3  A    between atoms: N_8  and  C_9
REMARK    4  A    between atoms: C_13  and  C_14
REMARK    5  A    between atoms: C_21  and  N_22
REMARK    6  A    between atoms: C_23  and  C_25
REMARK    7  A    between atoms: C_29  and  C_30
REMARK                            x       y       z     vdW  Elec       q    Type
REMARK                         _______ _______ _______ _____ _____    ______ ____
ROOT
ATOM      1  C   UNL     1       9.391  12.764  21.591  0.00  0.00    +0.000 C 
ATOM      2  C   UNL     1       9.445  12.081  20.250  0.00  0.00    +0.000 A 
ATOM      3  C   UNL     1       9.219  10.685  20.234  0.00  0.00    +0.000 A 
ATOM      4  C   UNL     1       9.215   9.947  19.049  0.00  0.00    +0.000 A 
ATOM      5  C   UNL     1       9.516  10.606  17.862  0.00  0.00    +0.000 A 
ATOM      6  C   UNL     1       9.739  11.990  17.862  0.00  0.00    +0.000 A 
ATOM      7  C   UNL     1       9.681  12.756  19.038  0.00  0.00    +0.000 A 
ENDROOT
BRANCH   4   8
ATOM      8  N   UNL     1       8.949   8.560  19.014  0.00  0.00    +0.000 N 
ATOM      9  C   UNL     1       8.003   7.964  18.193  0.00  0.00    +0.000 C 
ATOM     10  O   UNL     1       7.402   8.530  17.288  0.00  0.00    +0.000 OA
ATOM     11  N   UNL     1       7.785   6.641  18.553  0.00  0.00    +0.000 N 
ATOM     12  H   UNL     1       9.670   7.943  19.364  0.00  0.00    +0.000 HD
ATOM     13  H   UNL     1       7.855   6.479  19.547  0.00  0.00    +0.000 HD
BRANCH  11  14
ATOM     14  C   UNL     1       6.854   5.840  17.850  0.00  0.00    +0.000 A 
ATOM     15  C   UNL     1       7.291   5.139  16.725  0.00  0.00    +0.000 A 
ATOM     16  C   UNL     1       6.411   4.298  16.042  0.00  0.00    +0.000 A 
ATOM     17  C   UNL     1       5.078   4.202  16.442  0.00  0.00    +0.000 A 
ATOM     18  C   UNL     1       4.610   4.938  17.541  0.00  0.00    +0.000 A 
ATOM     19  C   UNL     1       5.518   5.741  18.254  0.00  0.00    +0.000 A 
BRANCH  18  20
ATOM     20  C   UNL     1       3.157   4.892  17.946  0.00  0.00    +0.000 C 
ATOM     21  F   UNL     1       2.970   4.503  19.241  0.00  0.00    +0.000 F 
ATOM     22  F   UNL     1       2.530   6.093  17.826  0.00  0.00    +0.000 F 
ATOM     23  F   UNL     1       2.437   4.012  17.194  0.00  0.00    +0.000 F 
ENDBRANCH  18  20
ENDBRANCH  11  14
ENDBRANCH   4   8
BRANCH   7  24
ATOM     24  N   UNL     1       9.869  14.170  19.029  0.00  0.00    +0.000 N 
ATOM     25  C   UNL     1      11.039  14.825  18.651  0.00  0.00    +0.000 C 
ATOM     26  O   UNL     1      12.017  14.262  18.172  0.00  0.00    +0.000 OA
ATOM     27  H   UNL     1       9.051  14.733  19.187  0.00  0.00    +0.000 HD
BRANCH  25  28
ATOM     28  C   UNL     1      11.078  16.273  18.791  0.00  0.00    +0.000 A 
ATOM     29  C   UNL     1      11.196  17.169  17.695  0.00  0.00    +0.000 A 
ATOM     30  N   UNL     1      11.241  18.444  18.075  0.00  0.00    +0.000 NA
ATOM     31  O   UNL     1      11.165  18.409  19.452  0.00  0.00    +0.000 OA
ATOM     32  C   UNL     1      11.077  17.117  19.881  0.00  0.00    +0.000 A 
ATOM     33  C   UNL     1      11.039  16.966  21.348  0.00  0.00    +0.000 C 
ENDBRANCH  25  28
ENDBRANCH   7  24
TORSDOF 5
ENDMDL
MODEL 6
REMARK VINA RESULT:      -8.6      8.086      9.504
REMARK  Name = 
REMARK  7 active torsions:
REMARK  status: ('A' for Active; 'I' for Inactive)
REMARK    1  A    between atoms: C_1  and  C_2
REMARK    2  A    between atoms: C_4  and  N_5
REMARK    3  A    between atoms: N_8  and  C_9
REMARK    4  A    between atoms: C_13  and  C_14
REMARK    5  A    between atoms: C_21  and  N_22
REMARK    6  A    between atoms: C_23  and  C_25
REMARK    7  A    between atoms: C_29  and  C_30
REMARK                            x       y       z     vdW  Elec       q    Type
REMARK                         _______ _______ _______ _____ _____    ______ ____
ROOT
ATOM      1  C   UNL     1      -0.896  11.221  19.057  0.00  0.00    +0.000 C 
ATOM      2  C   UNL     1      -0.464  10.534  20.325  0.00  0.00    +0.000 A 
ATOM      3  C   UNL     1       0.398   9.423  20.190  0.00  0.00    +0.000 A 
ATOM      4  C   UNL     1       0.888   8.724  21.296  0.00  0.00    +0.000 A 
ATOM      5  C   UNL     1       0.447   9.100  22.559  0.00  0.00    +0.000 A 
ATOM      6  C   UNL     1      -0.406  10.202  22.710  0.00  0.00    +0.000 A 
ATOM      7  C   UNL     1      -0.854  10.955  21.612  0.00  0.00    +0.000 A 
ENDROOT
BRANCH   4   8
ATOM      8  N   UNL     1       1.784   7.639  21.177  0.00  0.00    +0.000 N 
ATOM      9  C   UNL     1       2.361   7.226  19.985  0.00  0.00    +0.000 C 
ATOM     10  O   UNL     1       2.302   7.839  18.926  0.00  0.00    +0.000 OA
ATOM     11  N   UNL     1       2.989   5.995  20.128  0.00  0.00    +0.000 N 
ATOM     12  H   UNL     1       2.265   7.342  22.016  0.00  0.00    +0.000 HD
ATOM     13  H   UNL     1       2.518   5.378  20.772  0.00  0.00    +0.000 HD
BRANCH  11  14
ATOM     14  C   UNL     1       3.642   5.381  19.034  0.00  0.00    +0.000 A 
ATOM     15  C   UNL     1       2.900   4.548  18.194  0.00  0.00    +0.000 A 
ATOM     16  C   UNL     1       3.501   3.970  17.075  0.00  0.00    +0.000 A 
ATOM     17  C   UNL     1       4.859   4.172  16.825  0.00  0.00    +0.000 A 
ATOM     18  C   UNL     1       5.631   4.965  17.686  0.00  0.00    +0.000 A 
ATOM     19  C   UNL     1       5.003   5.586  18.780  0.00  0.00    +0.000 A 
BRANCH  18  20
ATOM     20  C   UNL     1       7.113   5.141  17.462  0.00  0.00    +0.000 C 
ATOM     21  F   UNL     1       7.634   4.252  16.567  0.00  0.00    +0.000 F 
ATOM     22  F   UNL     1       7.440   6.375  16.991  0.00  0.00    +0.000 F 
ATOM     23  F   UNL     1       7.834   4.972  18.607  0.00  0.00    +0.000 F 
ENDBRANCH  18  20
ENDBRANCH  11  14
ENDBRANCH   4   8
BRANCH   7  24
ATOM     24  N   UNL     1      -1.690  12.099  21.771  0.00  0.00    +0.000 N 
ATOM     25  C   UNL     1      -1.446  13.161  22.638  0.00  0.00    +0.000 C 
ATOM     26  O   UNL     1      -0.418  13.291  23.293  0.00  0.00    +0.000 OA
ATOM     27  H   UNL     1      -2.444  12.199  21.112  0.00  0.00    +0.000 HD
BRANCH  25  28
ATOM     28  C   UNL     1      -2.457  14.203  22.731  0.00  0.00    +0.000 A 
ATOM     29  C   UNL     1      -3.135  14.749  21.608  0.00  0.00    +0.000 A 
ATOM     30  N   UNL     1      -3.993  15.710  21.942  0.00  0.00    +0.000 NA
ATOM     31  O   UNL     1      -3.885  15.826  23.312  0.00  0.00    +0.000 OA
ATOM     32  C   UNL     1      -2.965  14.936  23.783  0.00  0.00    +0.000 A 
ATOM     33  C   UNL     1      -2.737  15.011  25.239  0.00  0.00    +0.000 C 
ENDBRANCH  25  28
ENDBRANCH   7  24
TORSDOF 5
ENDMDL
MODEL 7
REMARK VINA RESULT:      -8.5      7.893      9.227
REMARK  Name = 
REMARK  7 active torsions:
REMARK  status: ('A' for Active; 'I' for Inactive)
REMARK    1  A    between atoms: C_1  and  C_2
REMARK    2  A    between atoms: C_4  and  N_5
REMARK    3  A    between atoms: N_8  and  C_9
REMARK    4  A    between atoms: C_13  and  C_14
REMARK    5  A    between atoms: C_21  and  N_22
REMARK    6  A    between atoms: C_23  and  C_25
REMARK    7  A    between atoms: C_29  and  C_30
REMARK                            x       y       z     vdW  Elec       q    Type
REMARK                         _______ _______ _______ _____ _____    ______ ____
ROOT
ATOM      1  C   UNL     1      -0.039  11.769  19.029  0.00  0.00    +0.000 C 
ATOM      2  C   UNL     1       0.036  10.824  20.199  0.00  0.00    +0.000 A 
ATOM      3  C   UNL     1       0.871   9.693  20.056  0.00  0.00    +0.000 A 
ATOM      4  C   UNL     1       1.044   8.762  21.082  0.00  0.00    +0.000 A 
ATOM      5  C   UNL     1       0.306   8.926  22.250  0.00  0.00    +0.000 A 
ATOM      6  C   UNL     1      -0.525  10.044  22.407  0.00  0.00    +0.000 A 
ATOM      7  C   UNL     1      -0.657  11.023  21.409  0.00  0.00    +0.000 A 
ENDROOT
BRANCH   4   8
ATOM      8  N   UNL     1       1.909   7.652  20.969  0.00  0.00    +0.000 N 
ATOM      9  C   UNL     1       2.462   7.208  19.777  0.00  0.00    +0.000 C 
ATOM     10  O   UNL     1       2.408   7.809  18.710  0.00  0.00    +0.000 OA
ATOM     11  N   UNL     1       3.058   5.963  19.930  0.00  0.00    +0.000 N 
ATOM     12  H   UNL     1       2.390   7.354  21.807  0.00  0.00    +0.000 HD
ATOM     13  H   UNL     1       2.578   5.367  20.587  0.00  0.00    +0.000 HD
BRANCH  11  14
ATOM     14  C   UNL     1       3.683   5.317  18.837  0.00  0.00    +0.000 A 
ATOM     15  C   UNL     1       2.953   4.374  18.112  0.00  0.00    +0.000 A 
ATOM     16  C   UNL     1       3.522   3.759  16.996  0.00  0.00    +0.000 A 
ATOM     17  C   UNL     1       4.841   4.037  16.637  0.00  0.00    +0.000 A 
ATOM     18  C   UNL     1       5.605   4.945  17.384  0.00  0.00    +0.000 A 
ATOM     19  C   UNL     1       5.005   5.599  18.474  0.00  0.00    +0.000 A 
BRANCH  18  20
ATOM     20  C   UNL     1       7.052   5.209  17.044  0.00  0.00    +0.000 C 
ATOM     21  F   UNL     1       7.578   6.277  17.711  0.00  0.00    +0.000 F 
ATOM     22  F   UNL     1       7.868   4.158  17.327  0.00  0.00    +0.000 F 
ATOM     23  F   UNL     1       7.232   5.481  15.720  0.00  0.00    +0.000 F 
ENDBRANCH  18  20
ENDBRANCH  11  14
ENDBRANCH   4   8
BRANCH   7  24
ATOM     24  N   UNL     1      -1.472  12.180  21.587  0.00  0.00    +0.000 N 
ATOM     25  C   UNL     1      -1.081  13.350  22.232  0.00  0.00    +0.000 C 
ATOM     26  O   UNL     1       0.057  13.567  22.631  0.00  0.00    +0.000 OA
ATOM     27  H   UNL     1      -2.350  12.190  21.096  0.00  0.00    +0.000 HD
BRANCH  25  28
ATOM     28  C   UNL     1      -2.079  14.396  22.398  0.00  0.00    +0.000 A 
ATOM     29  C   UNL     1      -2.089  15.603  21.649  0.00  0.00    +0.000 A 
ATOM     30  N   UNL     1      -3.082  16.418  22.000  0.00  0.00    +0.000 NA
ATOM     31  O   UNL     1      -3.747  15.757  23.012  0.00  0.00    +0.000 OA
ATOM     32  C   UNL     1      -3.146  14.557  23.257  0.00  0.00    +0.000 A 
ATOM     33  C   UNL     1      -3.754  13.788  24.359  0.00  0.00    +0.000 C 
ENDBRANCH  25  28
ENDBRANCH   7  24
TORSDOF 5
ENDMDL
MODEL 8
REMARK VINA RESULT:      -8.5      8.074      9.468
REMARK  Name = 
REMARK  7 active torsions:
REMARK  status: ('A' for Active; 'I' for Inactive)
REMARK    1  A    between atoms: C_1  and  C_2
REMARK    2  A    between atoms: C_4  and  N_5
REMARK    3  A    between atoms: N_8  and  C_9
REMARK    4  A    between atoms: C_13  and  C_14
REMARK    5  A    between atoms: C_21  and  N_22
REMARK    6  A    between atoms: C_23  and  C_25
REMARK    7  A    between atoms: C_29  and  C_30
REMARK                            x       y       z     vdW  Elec       q    Type
REMARK                         _______ _______ _______ _____ _____    ______ ____
ROOT
ATOM      1  C   UNL     1      -0.532  11.682  19.355  0.00  0.00    +0.000 C 
ATOM      2  C   UNL     1      -0.269  10.770  20.523  0.00  0.00    +0.000 A 
ATOM      3  C   UNL     1       0.635   9.704  20.311  0.00  0.00    +0.000 A 
ATOM      4  C   UNL     1       0.980   8.809  21.327  0.00  0.00    +0.000 A 
ATOM      5  C   UNL     1       0.351   8.939  22.560  0.00  0.00    +0.000 A 
ATOM      6  C   UNL     1      -0.546   9.993  22.786  0.00  0.00    +0.000 A 
ATOM      7  C   UNL     1      -0.852  10.939  21.794  0.00  0.00    +0.000 A 
ENDROOT
BRANCH   4   8
ATOM      8  N   UNL     1       1.915   7.767  21.141  0.00  0.00    +0.000 N 
ATOM      9  C   UNL     1       2.298   7.270  19.904  0.00  0.00    +0.000 C 
ATOM     10  O   UNL     1       2.008   7.771  18.824  0.00  0.00    +0.000 OA
ATOM     11  N   UNL     1       3.026   6.094  20.036  0.00  0.00    +0.000 N 
ATOM     12  H   UNL     1       2.556   7.581  21.900  0.00  0.00    +0.000 HD
ATOM     13  H   UNL     1       2.721   5.519  20.808  0.00  0.00    +0.000 HD
BRANCH  11  14
ATOM     14  C   UNL     1       3.515   5.410  18.899  0.00  0.00    +0.000 A 
ATOM     15  C   UNL     1       2.713   4.430  18.312  0.00  0.00    +0.000 A 
ATOM     16  C   UNL     1       3.143   3.775  17.157  0.00  0.00    +0.000 A 
ATOM     17  C   UNL     1       4.401   4.052  16.620  0.00  0.00    +0.000 A 
ATOM     18  C   UNL     1       5.240   4.998  17.226  0.00  0.00    +0.000 A 
ATOM     19  C   UNL     1       4.775   5.690  18.358  0.00  0.00    +0.000 A 
BRANCH  18  20
ATOM     20  C   UNL     1       6.627   5.262  16.692  0.00  0.00    +0.000 C 
ATOM     21  F   UNL     1       7.504   4.246  16.938  0.00  0.00    +0.000 F 
ATOM     22  F   UNL     1       6.654   5.457  15.346  0.00  0.00    +0.000 F 
ATOM     23  F   UNL     1       7.192   6.373  17.245  0.00  0.00    +0.000 F 
ENDBRANCH  18  20
ENDBRANCH  11  14
ENDBRANCH   4   8
BRANCH   7  24
ATOM     24  N   UNL     1      -1.734  12.032  22.039  0.00  0.00    +0.000 N 
ATOM     25  C   UNL     1      -1.416  13.178  22.763  0.00  0.00    +0.000 C 
ATOM     26  O   UNL     1      -0.295  13.433  23.188  0.00  0.00    +0.000 OA
ATOM     27  H   UNL     1      -2.608  12.024  21.540  0.00  0.00    +0.000 HD
BRANCH  25  28
ATOM     28  C   UNL     1      -2.474  14.152  22.987  0.00  0.00    +0.000 A 
ATOM     29  C   UNL     1      -3.475  14.016  23.986  0.00  0.00    +0.000 A 
ATOM     30  N   UNL     1      -4.350  15.018  23.978  0.00  0.00    +0.000 NA
ATOM     31  O   UNL     1      -3.943  15.840  22.947  0.00  0.00    +0.000 OA
ATOM     32  C   UNL     1      -2.831  15.322  22.350  0.00  0.00    +0.000 A 
ATOM     33  C   UNL     1      -2.339  16.103  21.200  0.00  0.00    +0.000 C 
ENDBRANCH  25  28
ENDBRANCH   7  24
TORSDOF 5
ENDMDL
MODEL 9
REMARK VINA RESULT:      -8.5      8.416      9.740
REMARK  Name = 
REMARK  7 active torsions:
REMARK  status: ('A' for Active; 'I' for Inactive)
REMARK    1  A    between atoms: C_1  and  C_2
REMARK    2  A    between atoms: C_4  and  N_5
REMARK    3  A    between atoms: N_8  and  C_9
REMARK    4  A    between atoms: C_13  and  C_14
REMARK    5  A    between atoms: C_21  and  N_22
REMARK    6  A    between atoms: C_23  and  C_25
REMARK    7  A    between atoms: C_29  and  C_30
REMARK                            x       y       z     vdW  Elec       q    Type
REMARK                         _______ _______ _______ _____ _____    ______ ____
ROOT
ATOM      1  C   UNL     1      -0.823  12.038  19.785  0.00  0.00    +0.000 C 
ATOM      2  C   UNL     1      -0.493  11.078  20.897  0.00  0.00    +0.000 A 
ATOM      3  C   UNL     1       0.455  10.069  20.611  0.00  0.00    +0.000 A 
ATOM      4  C   UNL     1       0.863   9.140  21.570  0.00  0.00    +0.000 A 
ATOM      5  C   UNL     1       0.255   9.175  22.820  0.00  0.00    +0.000 A 
ATOM      6  C   UNL     1      -0.685  10.172  23.119  0.00  0.00    +0.000 A 
ATOM      7  C   UNL     1      -1.055  11.153  22.186  0.00  0.00    +0.000 A 
ENDROOT
BRANCH   4   8
ATOM      8  N   UNL     1       1.840   8.154  21.311  0.00  0.00    +0.000 N 
ATOM      9  C   UNL     1       2.016   7.529  20.085  0.00  0.00    +0.000 C 
ATOM     10  O   UNL     1       1.469   7.862  19.041  0.00  0.00    +0.000 OA
ATOM     11  N   UNL     1       2.869   6.437  20.193  0.00  0.00    +0.000 N 
ATOM     12  H   UNL     1       2.635   8.116  21.934  0.00  0.00    +0.000 HD
ATOM     13  H   UNL     1       2.783   5.948  21.071  0.00  0.00    +0.000 HD
BRANCH  11  14
ATOM     14  C   UNL     1       3.187   5.649  19.063  0.00  0.00    +0.000 A 
ATOM     15  C   UNL     1       2.615   4.381  18.950  0.00  0.00    +0.000 A 
ATOM     16  C   UNL     1       2.865   3.599  17.821  0.00  0.00    +0.000 A 
ATOM     17  C   UNL     1       3.736   4.056  16.831  0.00  0.00    +0.000 A 
ATOM     18  C   UNL     1       4.359   5.307  16.952  0.00  0.00    +0.000 A 
ATOM     19  C   UNL     1       4.057   6.108  18.067  0.00  0.00    +0.000 A 
BRANCH  18  20
ATOM     20  C   UNL     1       5.350   5.786  15.919  0.00  0.00    +0.000 C 
ATOM     21  F   UNL     1       6.582   6.057  16.438  0.00  0.00    +0.000 F 
ATOM     22  F   UNL     1       5.558   4.886  14.921  0.00  0.00    +0.000 F 
ATOM     23  F   UNL     1       4.948   6.938  15.311  0.00  0.00    +0.000 F 
ENDBRANCH  18  20
ENDBRANCH  11  14
ENDBRANCH   4   8
BRANCH   7  24
ATOM     24  N   UNL     1      -1.982  12.189  22.505  0.00  0.00    +0.000 N 
ATOM     25  C   UNL     1      -1.654  13.412  23.086  0.00  0.00    +0.000 C 
ATOM     26  O   UNL     1      -0.507  13.789  23.292  0.00  0.00    +0.000 OA
ATOM     27  H   UNL     1      -2.922  12.071  22.166  0.00  0.00    +0.000 HD
BRANCH  25  28
ATOM     28  C   UNL     1      -2.746  14.314  23.423  0.00  0.00    +0.000 A 
ATOM     29  C   UNL     1      -3.815  14.623  22.541  0.00  0.00    +0.000 A 
ATOM     30  N   UNL     1      -4.676  15.495  23.061  0.00  0.00    +0.000 NA
ATOM     31  O   UNL     1      -4.173  15.791  24.312  0.00  0.00    +0.000 OA
ATOM     32  C   UNL     1      -3.019  15.095  24.526  0.00  0.00    +0.000 A 
ATOM     33  C   UNL     1      -2.372  15.377  25.821  0.00  0.00    +0.000 C 
ENDBRANCH  25  28
ENDBRANCH   7  24
TORSDOF 5
ENDMDL
