MODEL 1
REMARK VINA RESULT:      -7.8      0.000      0.000
REMARK  Name = 
REMARK  2 active torsions:
REMARK  status: ('A' for Active; 'I' for Inactive)
REMARK    1  A    between atoms: N_3  and  S_4
REMARK    2  A    between atoms: S_4  and  C_7
REMARK                            x       y       z     vdW  Elec       q    Type
REMARK                         _______ _______ _______ _____ _____    ______ ____
ROOT
ATOM      1  O   UNL     1       4.781   6.714  16.080  0.00  0.00    +0.000 OA
ATOM      2  C   UNL     1       4.921   6.075  17.115  0.00  0.00    +0.000 C 
ATOM      3  N   UNL     1       6.083   5.366  17.419  0.00  0.00    +0.000 N 
ATOM      4  N   UNL     1       3.881   6.197  18.057  0.00  0.00    +0.000 N 
ATOM      5  C   UNL     1       3.119   7.345  18.220  0.00  0.00    +0.000 A 
ATOM      6  C   UNL     1       2.216   7.151  19.235  0.00  0.00    +0.000 A 
ATOM      7  C   UNL     1       2.363   5.813  19.674  0.00  0.00    +0.000 A 
ATOM      8  C   UNL     1       1.681   5.012  20.605  0.00  0.00    +0.000 A 
ATOM      9  C   UNL     1       2.078   3.684  20.720  0.00  0.00    +0.000 A 
ATOM     10 BR   UNL     1       1.172   2.531  21.905  0.00  0.00    +0.000 Br
ATOM     11  C   UNL     1       3.137   3.227  19.945  0.00  0.00    +0.000 A 
ATOM     12  N   UNL     1       3.865   3.971  19.065  0.00  0.00    +0.000 NA
ATOM     13  C   UNL     1       3.424   5.246  18.958  0.00  0.00    +0.000 A 
ATOM     14  H   UNL     1       6.198   4.923  18.328  0.00  0.00    +0.000 HD
ENDROOT
BRANCH   3  15
ATOM     15  S   UNL     1       7.414   5.261  16.427  0.00  0.00    +0.000 S 
ATOM     16  O   UNL     1       7.860   6.627  16.239  0.00  0.00    +0.000 OA
ATOM     17  O   UNL     1       8.313   4.263  16.963  0.00  0.00    +0.000 OA
BRANCH  15  18
ATOM     18  C   UNL     1       6.809   4.689  14.849  0.00  0.00    +0.000 A 
ATOM     19  C   UNL     1       7.487   5.022  13.672  0.00  0.00    +0.000 A 
ATOM     20  C   UNL     1       7.054   4.500  12.449  0.00  0.00    +0.000 A 
ATOM     21  C   UNL     1       5.953   3.643  12.400  0.00  0.00    +0.000 A 
ATOM     22  C   UNL     1       5.292   3.291  13.578  0.00  0.00    +0.000 A 
ATOM     23  C   UNL     1       5.728   3.797  14.804  0.00  0.00    +0.000 A 
ENDBRANCH  15  18
ENDBRANCH   3  15
TORSDOF 2
ENDMDL
MODEL 2
REMARK VINA RESULT:      -7.6      0.112      1.038
REMARK  Name = 
REMARK  2 active torsions:
REMARK  status: ('A' for Active; 'I' for Inactive)
REMARK    1  A    between atoms: N_3  and  S_4
REMARK    2  A    between atoms: S_4  and  C_7
REMARK                            x       y       z     vdW  Elec       q    Type
REMARK                         _______ _______ _______ _____ _____    ______ ____
ROOT
ATOM      1  O   UNL     1       4.782   6.733  16.180  0.00  0.00    +0.000 OA
ATOM      2  C   UNL     1       4.918   6.077  17.205  0.00  0.00    +0.000 C 
ATOM      3  N   UNL     1       6.075   5.355  17.496  0.00  0.00    +0.000 N 
ATOM      4  N   UNL     1       3.881   6.192  18.150  0.00  0.00    +0.000 N 
ATOM      5  C   UNL     1       3.127   7.343  18.332  0.00  0.00    +0.000 A 
ATOM      6  C   UNL     1       2.224   7.140  19.345  0.00  0.00    +0.000 A 
ATOM      7  C   UNL     1       2.362   5.794  19.763  0.00  0.00    +0.000 A 
ATOM      8  C   UNL     1       1.675   4.984  20.682  0.00  0.00    +0.000 A 
ATOM      9  C   UNL     1       2.063   3.652  20.776  0.00  0.00    +0.000 A 
ATOM     10 BR   UNL     1       1.149   2.487  21.945  0.00  0.00    +0.000 Br
ATOM     11  C   UNL     1       3.117   3.199  19.993  0.00  0.00    +0.000 A 
ATOM     12  N   UNL     1       3.849   3.950  19.123  0.00  0.00    +0.000 NA
ATOM     13  C   UNL     1       3.417   5.231  19.036  0.00  0.00    +0.000 A 
ATOM     14  H   UNL     1       6.188   4.897  18.398  0.00  0.00    +0.000 HD
ENDROOT
BRANCH   3  15
ATOM     15  S   UNL     1       7.405   5.256  16.501  0.00  0.00    +0.000 S 
ATOM     16  O   UNL     1       7.796   6.628  16.246  0.00  0.00    +0.000 OA
ATOM     17  O   UNL     1       8.344   4.319  17.076  0.00  0.00    +0.000 OA
BRANCH  15  18
ATOM     18  C   UNL     1       6.814   4.587  14.955  0.00  0.00    +0.000 A 
ATOM     19  C   UNL     1       5.645   3.818  14.922  0.00  0.00    +0.000 A 
ATOM     20  C   UNL     1       5.143   3.369  13.697  0.00  0.00    +0.000 A 
ATOM     21  C   UNL     1       5.800   3.691  12.507  0.00  0.00    +0.000 A 
ATOM     22  C   UNL     1       6.952   4.478  12.539  0.00  0.00    +0.000 A 
ATOM     23  C   UNL     1       7.450   4.943  13.758  0.00  0.00    +0.000 A 
ENDBRANCH  15  18
ENDBRANCH   3  15
TORSDOF 2
ENDMDL
MODEL 3
REMARK VINA RESULT:      -7.2      2.092      2.961
REMARK  Name = 
REMARK  2 active torsions:
REMARK  status: ('A' for Active; 'I' for Inactive)
REMARK    1  A    between atoms: N_3  and  S_4
REMARK    2  A    between atoms: S_4  and  C_7
REMARK                            x       y       z     vdW  Elec       q    Type
REMARK                         _______ _______ _______ _____ _____    ______ ____
ROOT
ATOM      1  O   UNL     1       6.348   4.854  19.140  0.00  0.00    +0.000 OA
ATOM      2  C   UNL     1       5.537   5.403  18.403  0.00  0.00    +0.000 C 
ATOM      3  N   UNL     1       5.785   5.651  17.053  0.00  0.00    +0.000 N 
ATOM      4  N   UNL     1       4.272   5.660  18.965  0.00  0.00    +0.000 N 
ATOM      5  C   UNL     1       3.680   4.860  19.931  0.00  0.00    +0.000 A 
ATOM      6  C   UNL     1       2.443   5.365  20.244  0.00  0.00    +0.000 A 
ATOM      7  C   UNL     1       2.282   6.563  19.506  0.00  0.00    +0.000 A 
ATOM      8  C   UNL     1       1.290   7.555  19.463  0.00  0.00    +0.000 A 
ATOM      9  C   UNL     1       1.517   8.654  18.641  0.00  0.00    +0.000 A 
ATOM     10 BR   UNL     1       0.257  10.056  18.575  0.00  0.00    +0.000 Br
ATOM     11  C   UNL     1       2.683   8.702  17.887  0.00  0.00    +0.000 A 
ATOM     12  N   UNL     1       3.654   7.747  17.852  0.00  0.00    +0.000 NA
ATOM     13  C   UNL     1       3.411   6.713  18.692  0.00  0.00    +0.000 A 
ATOM     14  H   UNL     1       5.054   6.024  16.451  0.00  0.00    +0.000 HD
ENDROOT
BRANCH   3  15
ATOM     15  S   UNL     1       7.201   5.272  16.266  0.00  0.00    +0.000 S 
ATOM     16  O   UNL     1       7.901   6.532  16.108  0.00  0.00    +0.000 OA
ATOM     17  O   UNL     1       7.829   4.164  16.950  0.00  0.00    +0.000 OA
BRANCH  15  18
ATOM     18  C   UNL     1       6.727   4.732  14.632  0.00  0.00    +0.000 A 
ATOM     19  C   UNL     1       7.596   4.912  13.551  0.00  0.00    +0.000 A 
ATOM     20  C   UNL     1       7.253   4.411  12.292  0.00  0.00    +0.000 A 
ATOM     21  C   UNL     1       6.049   3.726  12.112  0.00  0.00    +0.000 A 
ATOM     22  C   UNL     1       5.193   3.526  13.195  0.00  0.00    +0.000 A 
ATOM     23  C   UNL     1       5.538   4.011  14.459  0.00  0.00    +0.000 A 
ENDBRANCH  15  18
ENDBRANCH   3  15
TORSDOF 2
ENDMDL
MODEL 4
REMARK VINA RESULT:      -7.1      3.070      3.987
REMARK  Name = 
REMARK  2 active torsions:
REMARK  status: ('A' for Active; 'I' for Inactive)
REMARK    1  A    between atoms: N_3  and  S_4
REMARK    2  A    between atoms: S_4  and  C_7
REMARK                            x       y       z     vdW  Elec       q    Type
REMARK                         _______ _______ _______ _____ _____    ______ ____
ROOT
ATOM      1  O   UNL     1       3.043   5.963  17.290  0.00  0.00    +0.000 OA
ATOM      2  C   UNL     1       3.139   6.499  18.387  0.00  0.00    +0.000 C 
ATOM      3  N   UNL     1       4.011   6.049  19.378  0.00  0.00    +0.000 N 
ATOM      4  N   UNL     1       2.405   7.688  18.556  0.00  0.00    +0.000 N 
ATOM      5  C   UNL     1       2.141   8.584  17.529  0.00  0.00    +0.000 A 
ATOM      6  C   UNL     1       1.434   9.650  18.027  0.00  0.00    +0.000 A 
ATOM      7  C   UNL     1       1.180   9.381  19.393  0.00  0.00    +0.000 A 
ATOM      8  C   UNL     1       0.447  10.036  20.396  0.00  0.00    +0.000 A 
ATOM      9  C   UNL     1       0.364   9.417  21.638  0.00  0.00    +0.000 A 
ATOM     10 BR   UNL     1      -0.651  10.207  23.018  0.00  0.00    +0.000 Br
ATOM     11  C   UNL     1       1.030   8.213  21.838  0.00  0.00    +0.000 A 
ATOM     12  N   UNL     1       1.794   7.560  20.919  0.00  0.00    +0.000 NA
ATOM     13  C   UNL     1       1.819   8.178  19.714  0.00  0.00    +0.000 A 
ATOM     14  H   UNL     1       4.131   6.574  20.241  0.00  0.00    +0.000 HD
ENDROOT
BRANCH   3  15
ATOM     15  S   UNL     1       5.010   4.726  19.230  0.00  0.00    +0.000 S 
ATOM     16  O   UNL     1       6.136   4.996  20.102  0.00  0.00    +0.000 OA
ATOM     17  O   UNL     1       4.219   3.528  19.402  0.00  0.00    +0.000 OA
BRANCH  15  18
ATOM     18  C   UNL     1       5.628   4.761  17.556  0.00  0.00    +0.000 A 
ATOM     19  C   UNL     1       6.604   5.693  17.185  0.00  0.00    +0.000 A 
ATOM     20  C   UNL     1       7.143   5.659  15.896  0.00  0.00    +0.000 A 
ATOM     21  C   UNL     1       6.717   4.694  14.980  0.00  0.00    +0.000 A 
ATOM     22  C   UNL     1       5.761   3.750  15.358  0.00  0.00    +0.000 A 
ATOM     23  C   UNL     1       5.230   3.769  16.650  0.00  0.00    +0.000 A 
ENDBRANCH  15  18
ENDBRANCH   3  15
TORSDOF 2
ENDMDL
MODEL 5
REMARK VINA RESULT:      -7.1      2.080      3.116
REMARK  Name = 
REMARK  2 active torsions:
REMARK  status: ('A' for Active; 'I' for Inactive)
REMARK    1  A    between atoms: N_3  and  S_4
REMARK    2  A    between atoms: S_4  and  C_7
REMARK                            x       y       z     vdW  Elec       q    Type
REMARK                         _______ _______ _______ _____ _____    ______ ____
ROOT
ATOM      1  O   UNL     1       6.380   4.751  19.034  0.00  0.00    +0.000 OA
ATOM      2  C   UNL     1       5.570   5.319  18.313  0.00  0.00    +0.000 C 
ATOM      3  N   UNL     1       5.809   5.587  16.965  0.00  0.00    +0.000 N 
ATOM      4  N   UNL     1       4.312   5.581  18.889  0.00  0.00    +0.000 N 
ATOM      5  C   UNL     1       3.720   4.772  19.847  0.00  0.00    +0.000 A 
ATOM      6  C   UNL     1       2.490   5.285  20.178  0.00  0.00    +0.000 A 
ATOM      7  C   UNL     1       2.337   6.495  19.461  0.00  0.00    +0.000 A 
ATOM      8  C   UNL     1       1.354   7.499  19.442  0.00  0.00    +0.000 A 
ATOM      9  C   UNL     1       1.587   8.608  18.637  0.00  0.00    +0.000 A 
ATOM     10 BR   UNL     1       0.341  10.025  18.603  0.00  0.00    +0.000 Br
ATOM     11  C   UNL     1       2.747   8.657  17.874  0.00  0.00    +0.000 A 
ATOM     12  N   UNL     1       3.708   7.692  17.815  0.00  0.00    +0.000 NA
ATOM     13  C   UNL     1       3.460   6.647  18.640  0.00  0.00    +0.000 A 
ATOM     14  H   UNL     1       5.078   5.978  16.375  0.00  0.00    +0.000 HD
ENDROOT
BRANCH   3  15
ATOM     15  S   UNL     1       7.215   5.206  16.160  0.00  0.00    +0.000 S 
ATOM     16  O   UNL     1       7.866   6.476  15.904  0.00  0.00    +0.000 OA
ATOM     17  O   UNL     1       7.900   4.165  16.892  0.00  0.00    +0.000 OA
BRANCH  15  18
ATOM     18  C   UNL     1       6.714   4.549  14.578  0.00  0.00    +0.000 A 
ATOM     19  C   UNL     1       5.462   3.940  14.434  0.00  0.00    +0.000 A 
ATOM     20  C   UNL     1       5.043   3.504  13.173  0.00  0.00    +0.000 A 
ATOM     21  C   UNL     1       5.866   3.681  12.058  0.00  0.00    +0.000 A 
ATOM     22  C   UNL     1       7.103   4.310  12.199  0.00  0.00    +0.000 A 
ATOM     23  C   UNL     1       7.521   4.763  13.452  0.00  0.00    +0.000 A 
ENDBRANCH  15  18
ENDBRANCH   3  15
TORSDOF 2
ENDMDL
MODEL 6
REMARK VINA RESULT:      -7.1      3.060      4.087
REMARK  Name = 
REMARK  2 active torsions:
REMARK  status: ('A' for Active; 'I' for Inactive)
REMARK    1  A    between atoms: N_3  and  S_4
REMARK    2  A    between atoms: S_4  and  C_7
REMARK                            x       y       z     vdW  Elec       q    Type
REMARK                         _______ _______ _______ _____ _____    ______ ____
ROOT
ATOM      1  O   UNL     1       2.993   5.874  17.209  0.00  0.00    +0.000 OA
ATOM      2  C   UNL     1       3.084   6.360  18.330  0.00  0.00    +0.000 C 
ATOM      3  N   UNL     1       3.887   5.814  19.331  0.00  0.00    +0.000 N 
ATOM      4  N   UNL     1       2.426   7.590  18.521  0.00  0.00    +0.000 N 
ATOM      5  C   UNL     1       2.261   8.540  17.524  0.00  0.00    +0.000 A 
ATOM      6  C   UNL     1       1.610   9.633  18.040  0.00  0.00    +0.000 A 
ATOM      7  C   UNL     1       1.288   9.330  19.385  0.00  0.00    +0.000 A 
ATOM      8  C   UNL     1       0.563   9.995  20.387  0.00  0.00    +0.000 A 
ATOM      9  C   UNL     1       0.394   9.336  21.600  0.00  0.00    +0.000 A 
ATOM     10 BR   UNL     1      -0.617  10.141  22.975  0.00  0.00    +0.000 Br
ATOM     11  C   UNL     1       0.969   8.083  21.773  0.00  0.00    +0.000 A 
ATOM     12  N   UNL     1       1.721   7.414  20.855  0.00  0.00    +0.000 NA
ATOM     13  C   UNL     1       1.832   8.074  19.678  0.00  0.00    +0.000 A 
ATOM     14  H   UNL     1       4.010   6.296  20.219  0.00  0.00    +0.000 HD
ENDROOT
BRANCH   3  15
ATOM     15  S   UNL     1       4.799   4.433  19.164  0.00  0.00    +0.000 S 
ATOM     16  O   UNL     1       5.821   4.521  20.189  0.00  0.00    +0.000 OA
ATOM     17  O   UNL     1       3.910   3.294  19.111  0.00  0.00    +0.000 OA
BRANCH  15  18
ATOM     18  C   UNL     1       5.627   4.577  17.590  0.00  0.00    +0.000 A 
ATOM     19  C   UNL     1       5.250   3.760  16.518  0.00  0.00    +0.000 A 
ATOM     20  C   UNL     1       5.845   3.937  15.266  0.00  0.00    +0.000 A 
ATOM     21  C   UNL     1       6.809   4.931  15.080  0.00  0.00    +0.000 A 
ATOM     22  C   UNL     1       7.168   5.760  16.142  0.00  0.00    +0.000 A 
ATOM     23  C   UNL     1       6.566   5.599  17.392  0.00  0.00    +0.000 A 
ENDBRANCH  15  18
ENDBRANCH   3  15
TORSDOF 2
ENDMDL
MODEL 7
REMARK VINA RESULT:      -7.0      3.902      5.294
REMARK  Name = 
REMARK  2 active torsions:
REMARK  status: ('A' for Active; 'I' for Inactive)
REMARK    1  A    between atoms: N_3  and  S_4
REMARK    2  A    between atoms: S_4  and  C_7
REMARK                            x       y       z     vdW  Elec       q    Type
REMARK                         _______ _______ _______ _____ _____    ______ ____
ROOT
ATOM      1  O   UNL     1       2.227   6.757  17.472  0.00  0.00    +0.000 OA
ATOM      2  C   UNL     1       2.212   7.118  18.642  0.00  0.00    +0.000 C 
ATOM      3  N   UNL     1       2.653   6.312  19.692  0.00  0.00    +0.000 N 
ATOM      4  N   UNL     1       1.841   8.457  18.867  0.00  0.00    +0.000 N 
ATOM      5  C   UNL     1       2.103   9.490  17.978  0.00  0.00    +0.000 A 
ATOM      6  C   UNL     1       1.642  10.671  18.504  0.00  0.00    +0.000 A 
ATOM      7  C   UNL     1       1.003  10.360  19.729  0.00  0.00    +0.000 A 
ATOM      8  C   UNL     1       0.277  11.112  20.668  0.00  0.00    +0.000 A 
ATOM      9  C   UNL     1      -0.276  10.429  21.745  0.00  0.00    +0.000 A 
ATOM     10 BR   UNL     1      -1.314  11.361  23.016  0.00  0.00    +0.000 Br
ATOM     11  C   UNL     1      -0.060   9.062  21.861  0.00  0.00    +0.000 A 
ATOM     12  N   UNL     1       0.676   8.293  21.009  0.00  0.00    +0.000 NA
ATOM     13  C   UNL     1       1.166   8.989  19.956  0.00  0.00    +0.000 A 
ATOM     14  H   UNL     1       2.712   6.678  20.639  0.00  0.00    +0.000 HD
ENDROOT
BRANCH   3  15
ATOM     15  S   UNL     1       3.226   4.759  19.516  0.00  0.00    +0.000 S 
ATOM     16  O   UNL     1       3.534   4.310  20.859  0.00  0.00    +0.000 OA
ATOM     17  O   UNL     1       2.303   4.017  18.687  0.00  0.00    +0.000 OA
BRANCH  15  18
ATOM     18  C   UNL     1       4.777   4.903  18.646  0.00  0.00    +0.000 A 
ATOM     19  C   UNL     1       5.915   5.375  19.310  0.00  0.00    +0.000 A 
ATOM     20  C   UNL     1       7.145   5.405  18.645  0.00  0.00    +0.000 A 
ATOM     21  C   UNL     1       7.242   4.959  17.325  0.00  0.00    +0.000 A 
ATOM     22  C   UNL     1       6.112   4.467  16.672  0.00  0.00    +0.000 A 
ATOM     23  C   UNL     1       4.884   4.419  17.335  0.00  0.00    +0.000 A 
ENDBRANCH  15  18
ENDBRANCH   3  15
TORSDOF 2
ENDMDL
MODEL 8
REMARK VINA RESULT:      -7.0      4.279      5.619
REMARK  Name = 
REMARK  2 active torsions:
REMARK  status: ('A' for Active; 'I' for Inactive)
REMARK    1  A    between atoms: N_3  and  S_4
REMARK    2  A    between atoms: S_4  and  C_7
REMARK                            x       y       z     vdW  Elec       q    Type
REMARK                         _______ _______ _______ _____ _____    ______ ____
ROOT
ATOM      1  O   UNL     1       2.159   7.736  17.197  0.00  0.00    +0.000 OA
ATOM      2  C   UNL     1       2.111   7.936  18.404  0.00  0.00    +0.000 C 
ATOM      3  N   UNL     1       2.549   7.005  19.346  0.00  0.00    +0.000 N 
ATOM      4  N   UNL     1       1.701   9.224  18.798  0.00  0.00    +0.000 N 
ATOM      5  C   UNL     1       1.956  10.373  18.063  0.00  0.00    +0.000 A 
ATOM      6  C   UNL     1       1.454  11.461  18.731  0.00  0.00    +0.000 A 
ATOM      7  C   UNL     1       0.797  10.975  19.887  0.00  0.00    +0.000 A 
ATOM      8  C   UNL     1       0.033  11.577  20.900  0.00  0.00    +0.000 A 
ATOM      9  C   UNL     1      -0.526  10.743  21.862  0.00  0.00    +0.000 A 
ATOM     10 BR   UNL     1      -1.613  11.471  23.221  0.00  0.00    +0.000 Br
ATOM     11  C   UNL     1      -0.278   9.377  21.798  0.00  0.00    +0.000 A 
ATOM     12  N   UNL     1       0.495   8.747  20.869  0.00  0.00    +0.000 NA
ATOM     13  C   UNL     1       0.989   9.589  19.931  0.00  0.00    +0.000 A 
ATOM     14  H   UNL     1       2.579   7.242  20.336  0.00  0.00    +0.000 HD
ENDROOT
BRANCH   3  15
ATOM     15  S   UNL     1       3.164   5.504  18.978  0.00  0.00    +0.000 S 
ATOM     16  O   UNL     1       3.170   4.774  20.230  0.00  0.00    +0.000 OA
ATOM     17  O   UNL     1       2.457   4.984  17.829  0.00  0.00    +0.000 OA
BRANCH  15  18
ATOM     18  C   UNL     1       4.869   5.769  18.521  0.00  0.00    +0.000 A 
ATOM     19  C   UNL     1       5.183   6.490  17.363  0.00  0.00    +0.000 A 
ATOM     20  C   UNL     1       6.520   6.766  17.058  0.00  0.00    +0.000 A 
ATOM     21  C   UNL     1       7.539   6.330  17.907  0.00  0.00    +0.000 A 
ATOM     22  C   UNL     1       7.224   5.632  19.073  0.00  0.00    +0.000 A 
ATOM     23  C   UNL     1       5.890   5.367  19.392  0.00  0.00    +0.000 A 
ENDBRANCH  15  18
ENDBRANCH   3  15
TORSDOF 2
ENDMDL
MODEL 9
REMARK VINA RESULT:      -7.0      3.846      5.238
REMARK  Name = 
REMARK  2 active torsions:
REMARK  status: ('A' for Active; 'I' for Inactive)
REMARK    1  A    between atoms: N_3  and  S_4
REMARK    2  A    between atoms: S_4  and  C_7
REMARK                            x       y       z     vdW  Elec       q    Type
REMARK                         _______ _______ _______ _____ _____    ______ ____
ROOT
ATOM      1  O   UNL     1       2.269   6.506  17.498  0.00  0.00    +0.000 OA
ATOM      2  C   UNL     1       2.270   6.900  18.657  0.00  0.00    +0.000 C 
ATOM      3  N   UNL     1       2.719   6.120  19.724  0.00  0.00    +0.000 N 
ATOM      4  N   UNL     1       1.908   8.247  18.849  0.00  0.00    +0.000 N 
ATOM      5  C   UNL     1       2.165   9.252  17.929  0.00  0.00    +0.000 A 
ATOM      6  C   UNL     1       1.716  10.450  18.427  0.00  0.00    +0.000 A 
ATOM      7  C   UNL     1       1.090  10.178  19.666  0.00  0.00    +0.000 A 
ATOM      8  C   UNL     1       0.379  10.959  20.592  0.00  0.00    +0.000 A 
ATOM      9  C   UNL     1      -0.165  10.310  21.695  0.00  0.00    +0.000 A 
ATOM     10 BR   UNL     1      -1.183  11.282  22.951  0.00  0.00    +0.000 Br
ATOM     11  C   UNL     1       0.046   8.945  21.846  0.00  0.00    +0.000 A 
ATOM     12  N   UNL     1       0.767   8.148  21.008  0.00  0.00    +0.000 NA
ATOM     13  C   UNL     1       1.248   8.812  19.930  0.00  0.00    +0.000 A 
ATOM     14  H   UNL     1       2.791   6.513  20.660  0.00  0.00    +0.000 HD
ENDROOT
BRANCH   3  15
ATOM     15  S   UNL     1       3.281   4.560  19.585  0.00  0.00    +0.000 S 
ATOM     16  O   UNL     1       3.571   4.135  20.940  0.00  0.00    +0.000 OA
ATOM     17  O   UNL     1       2.362   3.809  18.760  0.00  0.00    +0.000 OA
BRANCH  15  18
ATOM     18  C   UNL     1       4.844   4.675  18.730  0.00  0.00    +0.000 A 
ATOM     19  C   UNL     1       4.958   4.230  17.409  0.00  0.00    +0.000 A 
ATOM     20  C   UNL     1       6.162   4.401  16.719  0.00  0.00    +0.000 A 
ATOM     21  C   UNL     1       7.248   5.020  17.343  0.00  0.00    +0.000 A 
ATOM     22  C   UNL     1       7.126   5.485  18.653  0.00  0.00    +0.000 A 
ATOM     23  C   UNL     1       5.921   5.332  19.342  0.00  0.00    +0.000 A 
ENDBRANCH  15  18
ENDBRANCH   3  15
TORSDOF 2
ENDMDL
