MODEL 1
REMARK VINA RESULT:      -7.3      0.000      0.000
REMARK  Name = 
REMARK  7 active torsions:
REMARK  status: ('A' for Active; 'I' for Inactive)
REMARK    1  A    between atoms: C_1  and  O_2
REMARK    2  A    between atoms: O_2  and  C_3
REMARK    3  A    between atoms: C_3  and  C_5
REMARK    4  A    between atoms: C_5  and  O_6
REMARK    5  A    between atoms: C_5  and  C_7
REMARK    6  A    between atoms: C_11  and  C_12
REMARK    7  A    between atoms: C_19  and  O_20
REMARK                            x       y       z     vdW  Elec       q    Type
REMARK                         _______ _______ _______ _____ _____    ______ ____
ROOT
ATOM      1  C   UNL     1       2.840   3.289  17.075  0.00  0.00    +0.000 C 
ATOM      2  O   UNL     1       2.142   4.353  17.743  0.00  0.00    +0.000 OA
ATOM      3  C   UNL     1       3.035   5.290  18.174  0.00  0.00    +0.000 C 
ATOM      4  O   UNL     1       2.737   6.293  18.797  0.00  0.00    +0.000 OA
ATOM      5  C   UNL     1       4.394   4.907  17.760  0.00  0.00    +0.000 C 
ATOM      6  C   UNL     1       4.257   3.738  17.127  0.00  0.00    +0.000 C 
ENDROOT
BRANCH   5   7
ATOM      7  C   UNL     1       5.597   5.693  17.970  0.00  0.00    +0.000 A 
ATOM      8  C   UNL     1       6.518   5.315  18.960  0.00  0.00    +0.000 A 
ATOM      9  C   UNL     1       7.669   6.077  19.180  0.00  0.00    +0.000 A 
ATOM     10  C   UNL     1       7.896   7.213  18.411  0.00  0.00    +0.000 A 
ATOM     11  F   UNL     1       8.997   7.943  18.626  0.00  0.00    +0.000 F 
ATOM     12  C   UNL     1       6.996   7.600  17.425  0.00  0.00    +0.000 A 
ATOM     13  C   UNL     1       5.844   6.841  17.203  0.00  0.00    +0.000 A 
ENDBRANCH   5   7
BRANCH   6  14
ATOM     14  O   UNL     1       5.237   2.989  16.536  0.00  0.00    +0.000 OA
ATOM     15  H   UNL     1       6.090   3.452  16.637  0.00  0.00    +0.000 HD
ENDBRANCH   6  14
BRANCH   1  16
ATOM     16  C   UNL     1       2.567   1.959  17.796  0.00  0.00    +0.000 C 
BRANCH  16  17
ATOM     17  C   UNL     1       1.520   2.178  18.892  0.00  0.00    +0.000 C 
ATOM     18  O   UNL     1       0.311   2.205  18.696  0.00  0.00    +0.000 OA
BRANCH  17  20
ATOM     19  C   UNL     1       1.345   3.100  21.050  0.00  0.00    +0.000 C 
ATOM     20  O   UNL     1       2.119   2.355  20.106  0.00  0.00    +0.000 OA
ENDBRANCH  17  20
ENDBRANCH  16  17
BRANCH  16  21
ATOM     21  O   UNL     1       3.781   1.408  18.328  0.00  0.00    +0.000 OA
ATOM     22  H   UNL     1       3.674   0.437  18.316  0.00  0.00    +0.000 HD
ENDBRANCH  16  21
ENDBRANCH   1  16
TORSDOF 6
ENDMDL
MODEL 2
REMARK VINA RESULT:      -7.2      3.543      6.101
REMARK  Name = 
REMARK  7 active torsions:
REMARK  status: ('A' for Active; 'I' for Inactive)
REMARK    1  A    between atoms: C_1  and  O_2
REMARK    2  A    between atoms: O_2  and  C_3
REMARK    3  A    between atoms: C_3  and  C_5
REMARK    4  A    between atoms: C_5  and  O_6
REMARK    5  A    between atoms: C_5  and  C_7
REMARK    6  A    between atoms: C_11  and  C_12
REMARK    7  A    between atoms: C_19  and  O_20
REMARK                            x       y       z     vdW  Elec       q    Type
REMARK                         _______ _______ _______ _____ _____    ______ ____
ROOT
ATOM      1  C   UNL     1       6.761   4.439  16.774  0.00  0.00    +0.000 C 
ATOM      2  O   UNL     1       7.470   4.874  17.946  0.00  0.00    +0.000 OA
ATOM      3  C   UNL     1       6.644   4.822  19.030  0.00  0.00    +0.000 C 
ATOM      4  O   UNL     1       6.961   5.157  20.157  0.00  0.00    +0.000 OA
ATOM      5  C   UNL     1       5.333   4.290  18.628  0.00  0.00    +0.000 C 
ATOM      6  C   UNL     1       5.422   4.080  17.311  0.00  0.00    +0.000 C 
ENDROOT
BRANCH   5   7
ATOM      7  C   UNL     1       4.219   4.018  19.519  0.00  0.00    +0.000 A 
ATOM      8  C   UNL     1       4.033   2.725  20.036  0.00  0.00    +0.000 A 
ATOM      9  C   UNL     1       2.953   2.451  20.880  0.00  0.00    +0.000 A 
ATOM     10  C   UNL     1       2.063   3.468  21.204  0.00  0.00    +0.000 A 
ATOM     11  F   UNL     1       1.027   3.203  22.010  0.00  0.00    +0.000 F 
ATOM     12  C   UNL     1       2.232   4.753  20.705  0.00  0.00    +0.000 A 
ATOM     13  C   UNL     1       3.311   5.030  19.860  0.00  0.00    +0.000 A 
ENDBRANCH   5   7
BRANCH   6  14
ATOM     14  O   UNL     1       4.464   3.566  16.481  0.00  0.00    +0.000 OA
ATOM     15  H   UNL     1       4.755   3.681  15.557  0.00  0.00    +0.000 HD
ENDBRANCH   6  14
BRANCH   1  16
ATOM     16  C   UNL     1       6.747   5.567  15.730  0.00  0.00    +0.000 C 
BRANCH  16  17
ATOM     17  C   UNL     1       7.128   5.000  14.360  0.00  0.00    +0.000 C 
ATOM     18  O   UNL     1       7.964   5.498  13.616  0.00  0.00    +0.000 OA
BRANCH  17  20
ATOM     19  C   UNL     1       6.278   3.583  12.685  0.00  0.00    +0.000 C 
ATOM     20  O   UNL     1       6.400   3.880  14.078  0.00  0.00    +0.000 OA
ENDBRANCH  17  20
ENDBRANCH  16  17
BRANCH  16  21
ATOM     21  O   UNL     1       7.622   6.636  16.121  0.00  0.00    +0.000 OA
ATOM     22  H   UNL     1       7.229   7.038  16.921  0.00  0.00    +0.000 HD
ENDBRANCH  16  21
ENDBRANCH   1  16
TORSDOF 6
ENDMDL
MODEL 3
REMARK VINA RESULT:      -7.2      0.182      1.097
REMARK  Name = 
REMARK  7 active torsions:
REMARK  status: ('A' for Active; 'I' for Inactive)
REMARK    1  A    between atoms: C_1  and  O_2
REMARK    2  A    between atoms: O_2  and  C_3
REMARK    3  A    between atoms: C_3  and  C_5
REMARK    4  A    between atoms: C_5  and  O_6
REMARK    5  A    between atoms: C_5  and  C_7
REMARK    6  A    between atoms: C_11  and  C_12
REMARK    7  A    between atoms: C_19  and  O_20
REMARK                            x       y       z     vdW  Elec       q    Type
REMARK                         _______ _______ _______ _____ _____    ______ ____
ROOT
ATOM      1  C   UNL     1       2.769   3.281  17.047  0.00  0.00    +0.000 C 
ATOM      2  O   UNL     1       2.057   4.389  17.622  0.00  0.00    +0.000 OA
ATOM      3  C   UNL     1       2.943   5.327  18.064  0.00  0.00    +0.000 C 
ATOM      4  O   UNL     1       2.631   6.364  18.621  0.00  0.00    +0.000 OA
ATOM      5  C   UNL     1       4.315   4.898  17.751  0.00  0.00    +0.000 C 
ATOM      6  C   UNL     1       4.190   3.704  17.165  0.00  0.00    +0.000 C 
ENDROOT
BRANCH   5   7
ATOM      7  C   UNL     1       5.522   5.669  17.998  0.00  0.00    +0.000 A 
ATOM      8  C   UNL     1       5.815   6.788  17.203  0.00  0.00    +0.000 A 
ATOM      9  C   UNL     1       6.982   7.523  17.424  0.00  0.00    +0.000 A 
ATOM     10  C   UNL     1       7.854   7.138  18.436  0.00  0.00    +0.000 A 
ATOM     11  F   UNL     1       8.974   7.842  18.644  0.00  0.00    +0.000 F 
ATOM     12  C   UNL     1       7.578   6.035  19.234  0.00  0.00    +0.000 A 
ATOM     13  C   UNL     1       6.412   5.297  19.016  0.00  0.00    +0.000 A 
ENDBRANCH   5   7
BRANCH   6  14
ATOM     14  O   UNL     1       5.187   2.909  16.669  0.00  0.00    +0.000 OA
ATOM     15  H   UNL     1       6.046   3.253  16.978  0.00  0.00    +0.000 HD
ENDBRANCH   6  14
BRANCH   1  16
ATOM     16  C   UNL     1       2.423   1.992  17.809  0.00  0.00    +0.000 C 
BRANCH  16  17
ATOM     17  C   UNL     1       1.504   2.327  18.988  0.00  0.00    +0.000 C 
ATOM     18  O   UNL     1       0.281   2.340  18.925  0.00  0.00    +0.000 OA
BRANCH  17  20
ATOM     19  C   UNL     1       1.466   2.735  21.304  0.00  0.00    +0.000 C 
ATOM     20  O   UNL     1       2.233   2.623  20.103  0.00  0.00    +0.000 OA
ENDBRANCH  17  20
ENDBRANCH  16  17
BRANCH  16  21
ATOM     21  O   UNL     1       3.615   1.320  18.244  0.00  0.00    +0.000 OA
ATOM     22  H   UNL     1       3.902   1.765  19.066  0.00  0.00    +0.000 HD
ENDBRANCH  16  21
ENDBRANCH   1  16
TORSDOF 6
ENDMDL
MODEL 4
REMARK VINA RESULT:      -7.2      3.546      6.176
REMARK  Name = 
REMARK  7 active torsions:
REMARK  status: ('A' for Active; 'I' for Inactive)
REMARK    1  A    between atoms: C_1  and  O_2
REMARK    2  A    between atoms: O_2  and  C_3
REMARK    3  A    between atoms: C_3  and  C_5
REMARK    4  A    between atoms: C_5  and  O_6
REMARK    5  A    between atoms: C_5  and  C_7
REMARK    6  A    between atoms: C_11  and  C_12
REMARK    7  A    between atoms: C_19  and  O_20
REMARK                            x       y       z     vdW  Elec       q    Type
REMARK                         _______ _______ _______ _____ _____    ______ ____
ROOT
ATOM      1  C   UNL     1       6.763   4.434  16.747  0.00  0.00    +0.000 C 
ATOM      2  O   UNL     1       7.476   4.860  17.920  0.00  0.00    +0.000 OA
ATOM      3  C   UNL     1       6.655   4.794  19.007  0.00  0.00    +0.000 C 
ATOM      4  O   UNL     1       6.977   5.119  20.136  0.00  0.00    +0.000 OA
ATOM      5  C   UNL     1       5.343   4.263  18.606  0.00  0.00    +0.000 C 
ATOM      6  C   UNL     1       5.427   4.066  17.287  0.00  0.00    +0.000 C 
ENDROOT
BRANCH   5   7
ATOM      7  C   UNL     1       4.234   3.978  19.500  0.00  0.00    +0.000 A 
ATOM      8  C   UNL     1       3.327   4.995  19.839  0.00  0.00    +0.000 A 
ATOM      9  C   UNL     1       2.269   4.732  20.713  0.00  0.00    +0.000 A 
ATOM     10  C   UNL     1       2.120   3.458  21.246  0.00  0.00    +0.000 A 
ATOM     11  F   UNL     1       1.107   3.209  22.086  0.00  0.00    +0.000 F 
ATOM     12  C   UNL     1       3.007   2.439  20.920  0.00  0.00    +0.000 A 
ATOM     13  C   UNL     1       4.067   2.698  20.046  0.00  0.00    +0.000 A 
ENDBRANCH   5   7
BRANCH   6  14
ATOM     14  O   UNL     1       4.466   3.558  16.456  0.00  0.00    +0.000 OA
ATOM     15  H   UNL     1       4.895   3.230  15.643  0.00  0.00    +0.000 HD
ENDBRANCH   6  14
BRANCH   1  16
ATOM     16  C   UNL     1       6.740   5.572  15.714  0.00  0.00    +0.000 C 
BRANCH  16  17
ATOM     17  C   UNL     1       7.120   5.021  14.337  0.00  0.00    +0.000 C 
ATOM     18  O   UNL     1       7.975   5.511  13.610  0.00  0.00    +0.000 OA
BRANCH  17  20
ATOM     19  C   UNL     1       6.336   3.595  12.638  0.00  0.00    +0.000 C 
ATOM     20  O   UNL     1       6.365   3.926  14.028  0.00  0.00    +0.000 OA
ENDBRANCH  17  20
ENDBRANCH  16  17
BRANCH  16  21
ATOM     21  O   UNL     1       7.612   6.641  16.114  0.00  0.00    +0.000 OA
ATOM     22  H   UNL     1       8.275   6.740  15.403  0.00  0.00    +0.000 HD
ENDBRANCH  16  21
ENDBRANCH   1  16
TORSDOF 6
ENDMDL
MODEL 5
REMARK VINA RESULT:      -7.0      2.543      3.265
REMARK  Name = 
REMARK  7 active torsions:
REMARK  status: ('A' for Active; 'I' for Inactive)
REMARK    1  A    between atoms: C_1  and  O_2
REMARK    2  A    between atoms: O_2  and  C_3
REMARK    3  A    between atoms: C_3  and  C_5
REMARK    4  A    between atoms: C_5  and  O_6
REMARK    5  A    between atoms: C_5  and  C_7
REMARK    6  A    between atoms: C_11  and  C_12
REMARK    7  A    between atoms: C_19  and  O_20
REMARK                            x       y       z     vdW  Elec       q    Type
REMARK                         _______ _______ _______ _____ _____    ______ ____
ROOT
ATOM      1  C   UNL     1       1.716   4.723  19.546  0.00  0.00    +0.000 C 
ATOM      2  O   UNL     1       2.843   5.212  20.292  0.00  0.00    +0.000 OA
ATOM      3  C   UNL     1       3.934   5.291  19.480  0.00  0.00    +0.000 C 
ATOM      4  O   UNL     1       5.042   5.647  19.842  0.00  0.00    +0.000 OA
ATOM      5  C   UNL     1       3.564   4.895  18.112  0.00  0.00    +0.000 C 
ATOM      6  C   UNL     1       2.271   4.565  18.175  0.00  0.00    +0.000 C 
ENDROOT
BRANCH   5   7
ATOM      7  C   UNL     1       4.440   4.925  16.954  0.00  0.00    +0.000 A 
ATOM      8  C   UNL     1       4.977   3.730  16.449  0.00  0.00    +0.000 A 
ATOM      9  C   UNL     1       5.835   3.753  15.346  0.00  0.00    +0.000 A 
ATOM     10  C   UNL     1       6.155   4.968  14.752  0.00  0.00    +0.000 A 
ATOM     11  F   UNL     1       6.981   4.989  13.698  0.00  0.00    +0.000 F 
ATOM     12  C   UNL     1       5.632   6.161  15.237  0.00  0.00    +0.000 A 
ATOM     13  C   UNL     1       4.773   6.141  16.340  0.00  0.00    +0.000 A 
ENDBRANCH   5   7
BRANCH   6  14
ATOM     14  O   UNL     1       1.463   4.154  17.150  0.00  0.00    +0.000 OA
ATOM     15  H   UNL     1       0.608   3.864  17.521  0.00  0.00    +0.000 HD
ENDBRANCH   6  14
BRANCH   1  16
ATOM     16  C   UNL     1       1.202   3.420  20.179  0.00  0.00    +0.000 C 
BRANCH  16  17
ATOM     17  C   UNL     1       2.355   2.710  20.894  0.00  0.00    +0.000 C 
ATOM     18  O   UNL     1       2.575   2.792  22.096  0.00  0.00    +0.000 OA
BRANCH  17  20
ATOM     19  C   UNL     1       4.506   1.967  20.299  0.00  0.00    +0.000 C 
ATOM     20  O   UNL     1       3.107   1.993  20.009  0.00  0.00    +0.000 OA
ENDBRANCH  17  20
ENDBRANCH  16  17
BRANCH  16  21
ATOM     21  O   UNL     1       0.595   2.576  19.189  0.00  0.00    +0.000 OA
ATOM     22  H   UNL     1       0.477   1.700  19.604  0.00  0.00    +0.000 HD
ENDBRANCH  16  21
ENDBRANCH   1  16
TORSDOF 6
ENDMDL
MODEL 6
REMARK VINA RESULT:      -6.9      3.357      6.006
REMARK  Name = 
REMARK  7 active torsions:
REMARK  status: ('A' for Active; 'I' for Inactive)
REMARK    1  A    between atoms: C_1  and  O_2
REMARK    2  A    between atoms: O_2  and  C_3
REMARK    3  A    between atoms: C_3  and  C_5
REMARK    4  A    between atoms: C_5  and  O_6
REMARK    5  A    between atoms: C_5  and  C_7
REMARK    6  A    between atoms: C_11  and  C_12
REMARK    7  A    between atoms: C_19  and  O_20
REMARK                            x       y       z     vdW  Elec       q    Type
REMARK                         _______ _______ _______ _____ _____    ______ ____
ROOT
ATOM      1  C   UNL     1       5.460   5.872  16.993  0.00  0.00    +0.000 C 
ATOM      2  O   UNL     1       4.576   6.981  17.228  0.00  0.00    +0.000 OA
ATOM      3  C   UNL     1       3.552   6.590  18.037  0.00  0.00    +0.000 C 
ATOM      4  O   UNL     1       2.633   7.311  18.386  0.00  0.00    +0.000 OA
ATOM      5  C   UNL     1       3.737   5.184  18.426  0.00  0.00    +0.000 C 
ATOM      6  C   UNL     1       4.849   4.785  17.803  0.00  0.00    +0.000 C 
ENDROOT
BRANCH   5   7
ATOM      7  C   UNL     1       2.890   4.439  19.343  0.00  0.00    +0.000 A 
ATOM      8  C   UNL     1       3.058   4.585  20.729  0.00  0.00    +0.000 A 
ATOM      9  C   UNL     1       2.259   3.858  21.616  0.00  0.00    +0.000 A 
ATOM     10  C   UNL     1       1.297   2.988  21.116  0.00  0.00    +0.000 A 
ATOM     11  F   UNL     1       0.535   2.290  21.968  0.00  0.00    +0.000 F 
ATOM     12  C   UNL     1       1.116   2.833  19.747  0.00  0.00    +0.000 A 
ATOM     13  C   UNL     1       1.913   3.558  18.858  0.00  0.00    +0.000 A 
ENDBRANCH   5   7
BRANCH   6  14
ATOM     14  O   UNL     1       5.450   3.558  17.871  0.00  0.00    +0.000 OA
ATOM     15  H   UNL     1       4.835   2.930  18.296  0.00  0.00    +0.000 HD
ENDBRANCH   6  14
BRANCH   1  16
ATOM     16  C   UNL     1       5.532   5.578  15.486  0.00  0.00    +0.000 C 
BRANCH  16  17
ATOM     17  C   UNL     1       6.888   4.951  15.151  0.00  0.00    +0.000 C 
ATOM     18  O   UNL     1       7.738   4.662  15.984  0.00  0.00    +0.000 OA
BRANCH  17  20
ATOM     19  C   UNL     1       6.215   3.730  13.256  0.00  0.00    +0.000 C 
ATOM     20  O   UNL     1       7.022   4.775  13.804  0.00  0.00    +0.000 OA
ENDBRANCH  17  20
ENDBRANCH  16  17
BRANCH  16  21
ATOM     21  O   UNL     1       5.299   6.771  14.722  0.00  0.00    +0.000 OA
ATOM     22  H   UNL     1       5.269   6.500  13.783  0.00  0.00    +0.000 HD
ENDBRANCH  16  21
ENDBRANCH   1  16
TORSDOF 6
ENDMDL
MODEL 7
REMARK VINA RESULT:      -6.8      3.497      5.538
REMARK  Name = 
REMARK  7 active torsions:
REMARK  status: ('A' for Active; 'I' for Inactive)
REMARK    1  A    between atoms: C_1  and  O_2
REMARK    2  A    between atoms: O_2  and  C_3
REMARK    3  A    between atoms: C_3  and  C_5
REMARK    4  A    between atoms: C_5  and  O_6
REMARK    5  A    between atoms: C_5  and  C_7
REMARK    6  A    between atoms: C_11  and  C_12
REMARK    7  A    between atoms: C_19  and  O_20
REMARK                            x       y       z     vdW  Elec       q    Type
REMARK                         _______ _______ _______ _____ _____    ______ ____
ROOT
ATOM      1  C   UNL     1       4.524   4.926  17.409  0.00  0.00    +0.000 C 
ATOM      2  O   UNL     1       3.449   4.152  17.967  0.00  0.00    +0.000 OA
ATOM      3  C   UNL     1       2.539   4.981  18.552  0.00  0.00    +0.000 C 
ATOM      4  O   UNL     1       1.534   4.607  19.130  0.00  0.00    +0.000 OA
ATOM      5  C   UNL     1       2.951   6.381  18.363  0.00  0.00    +0.000 C 
ATOM      6  C   UNL     1       4.110   6.324  17.701  0.00  0.00    +0.000 C 
ENDROOT
BRANCH   5   7
ATOM      7  C   UNL     1       2.197   7.550  18.779  0.00  0.00    +0.000 A 
ATOM      8  C   UNL     1       1.817   8.514  17.832  0.00  0.00    +0.000 A 
ATOM      9  C   UNL     1       1.107   9.651  18.228  0.00  0.00    +0.000 A 
ATOM     10  C   UNL     1       0.780   9.822  19.568  0.00  0.00    +0.000 A 
ATOM     11  F   UNL     1       0.103  10.913  19.947  0.00  0.00    +0.000 F 
ATOM     12  C   UNL     1       1.146   8.877  20.519  0.00  0.00    +0.000 A 
ATOM     13  C   UNL     1       1.857   7.740  20.126  0.00  0.00    +0.000 A 
ENDBRANCH   5   7
BRANCH   6  14
ATOM     14  O   UNL     1       4.878   7.372  17.270  0.00  0.00    +0.000 OA
ATOM     15  H   UNL     1       4.585   8.183  17.725  0.00  0.00    +0.000 HD
ENDBRANCH   6  14
BRANCH   1  16
ATOM     16  C   UNL     1       5.853   4.507  18.058  0.00  0.00    +0.000 C 
BRANCH  16  17
ATOM     17  C   UNL     1       6.913   4.312  16.970  0.00  0.00    +0.000 C 
ATOM     18  O   UNL     1       8.121   4.377  17.166  0.00  0.00    +0.000 OA
BRANCH  17  20
ATOM     19  C   UNL     1       6.897   4.807  14.670  0.00  0.00    +0.000 C 
ATOM     20  O   UNL     1       6.329   4.076  15.760  0.00  0.00    +0.000 OA
ENDBRANCH  17  20
ENDBRANCH  16  17
BRANCH  16  21
ATOM     21  O   UNL     1       5.683   3.320  18.848  0.00  0.00    +0.000 OA
ATOM     22  H   UNL     1       6.330   3.377  19.578  0.00  0.00    +0.000 HD
ENDBRANCH  16  21
ENDBRANCH   1  16
TORSDOF 6
ENDMDL
MODEL 8
REMARK VINA RESULT:      -6.8      3.253      5.954
REMARK  Name = 
REMARK  7 active torsions:
REMARK  status: ('A' for Active; 'I' for Inactive)
REMARK    1  A    between atoms: C_1  and  O_2
REMARK    2  A    between atoms: O_2  and  C_3
REMARK    3  A    between atoms: C_3  and  C_5
REMARK    4  A    between atoms: C_5  and  O_6
REMARK    5  A    between atoms: C_5  and  C_7
REMARK    6  A    between atoms: C_11  and  C_12
REMARK    7  A    between atoms: C_19  and  O_20
REMARK                            x       y       z     vdW  Elec       q    Type
REMARK                         _______ _______ _______ _____ _____    ______ ____
ROOT
ATOM      1  C   UNL     1       5.644   5.596  17.203  0.00  0.00    +0.000 C 
ATOM      2  O   UNL     1       4.677   5.021  16.308  0.00  0.00    +0.000 OA
ATOM      3  C   UNL     1       3.746   4.326  17.021  0.00  0.00    +0.000 C 
ATOM      4  O   UNL     1       2.817   3.709  16.529  0.00  0.00    +0.000 OA
ATOM      5  C   UNL     1       4.029   4.450  18.459  0.00  0.00    +0.000 C 
ATOM      6  C   UNL     1       5.140   5.188  18.541  0.00  0.00    +0.000 C 
ENDROOT
BRANCH   5   7
ATOM      7  C   UNL     1       3.213   3.910  19.533  0.00  0.00    +0.000 A 
ATOM      8  C   UNL     1       3.685   2.832  20.299  0.00  0.00    +0.000 A 
ATOM      9  C   UNL     1       2.898   2.296  21.322  0.00  0.00    +0.000 A 
ATOM     10  C   UNL     1       1.643   2.837  21.576  0.00  0.00    +0.000 A 
ATOM     11  F   UNL     1       0.889   2.320  22.555  0.00  0.00    +0.000 F 
ATOM     12  C   UNL     1       1.161   3.906  20.830  0.00  0.00    +0.000 A 
ATOM     13  C   UNL     1       1.946   4.444  19.806  0.00  0.00    +0.000 A 
ENDBRANCH   5   7
BRANCH   6  14
ATOM     14  O   UNL     1       5.787   5.598  19.674  0.00  0.00    +0.000 OA
ATOM     15  H   UNL     1       5.283   6.330  20.076  0.00  0.00    +0.000 HD
ENDBRANCH   6  14
BRANCH   1  16
ATOM     16  C   UNL     1       7.045   5.064  16.861  0.00  0.00    +0.000 C 
BRANCH  16  17
ATOM     17  C   UNL     1       7.161   4.865  15.347  0.00  0.00    +0.000 C 
ATOM     18  O   UNL     1       7.735   5.641  14.593  0.00  0.00    +0.000 OA
BRANCH  17  20
ATOM     19  C   UNL     1       6.197   3.667  13.567  0.00  0.00    +0.000 C 
ATOM     20  O   UNL     1       6.525   3.722  14.958  0.00  0.00    +0.000 OA
ENDBRANCH  17  20
ENDBRANCH  16  17
BRANCH  16  21
ATOM     21  O   UNL     1       7.317   3.848  17.576  0.00  0.00    +0.000 OA
ATOM     22  H   UNL     1       7.297   3.127  16.916  0.00  0.00    +0.000 HD
ENDBRANCH  16  21
ENDBRANCH   1  16
TORSDOF 6
ENDMDL
MODEL 9
REMARK VINA RESULT:      -6.8      3.359      5.820
REMARK  Name = 
REMARK  7 active torsions:
REMARK  status: ('A' for Active; 'I' for Inactive)
REMARK    1  A    between atoms: C_1  and  O_2
REMARK    2  A    between atoms: O_2  and  C_3
REMARK    3  A    between atoms: C_3  and  C_5
REMARK    4  A    between atoms: C_5  and  O_6
REMARK    5  A    between atoms: C_5  and  C_7
REMARK    6  A    between atoms: C_11  and  C_12
REMARK    7  A    between atoms: C_19  and  O_20
REMARK                            x       y       z     vdW  Elec       q    Type
REMARK                         _______ _______ _______ _____ _____    ______ ____
ROOT
ATOM      1  C   UNL     1       6.472   6.017  17.737  0.00  0.00    +0.000 C 
ATOM      2  O   UNL     1       5.591   7.118  17.457  0.00  0.00    +0.000 OA
ATOM      3  C   UNL     1       4.305   6.761  17.738  0.00  0.00    +0.000 C 
ATOM      4  O   UNL     1       3.337   7.481  17.573  0.00  0.00    +0.000 OA
ATOM      5  C   UNL     1       4.278   5.393  18.278  0.00  0.00    +0.000 C 
ATOM      6  C   UNL     1       5.548   4.978  18.263  0.00  0.00    +0.000 C 
ENDROOT
BRANCH   5   7
ATOM      7  C   UNL     1       3.099   4.696  18.763  0.00  0.00    +0.000 A 
ATOM      8  C   UNL     1       2.654   4.901  20.079  0.00  0.00    +0.000 A 
ATOM      9  C   UNL     1       1.532   4.221  20.558  0.00  0.00    +0.000 A 
ATOM     10  C   UNL     1       0.857   3.338  19.723  0.00  0.00    +0.000 A 
ATOM     11  F   UNL     1      -0.216   2.684  20.184  0.00  0.00    +0.000 F 
ATOM     12  C   UNL     1       1.281   3.125  18.417  0.00  0.00    +0.000 A 
ATOM     13  C   UNL     1       2.404   3.803  17.934  0.00  0.00    +0.000 A 
ENDBRANCH   5   7
BRANCH   6  14
ATOM     14  O   UNL     1       6.039   3.776  18.693  0.00  0.00    +0.000 OA
ATOM     15  H   UNL     1       5.437   3.415  19.371  0.00  0.00    +0.000 HD
ENDBRANCH   6  14
BRANCH   1  16
ATOM     16  C   UNL     1       7.220   5.615  16.456  0.00  0.00    +0.000 C 
BRANCH  16  17
ATOM     17  C   UNL     1       6.211   5.369  15.331  0.00  0.00    +0.000 C 
ATOM     18  O   UNL     1       5.539   6.247  14.804  0.00  0.00    +0.000 OA
BRANCH  17  20
ATOM     19  C   UNL     1       6.181   3.765  13.610  0.00  0.00    +0.000 C 
ATOM     20  O   UNL     1       6.153   4.043  15.012  0.00  0.00    +0.000 OA
ENDBRANCH  17  20
ENDBRANCH  16  17
BRANCH  16  21
ATOM     21  O   UNL     1       8.044   4.462  16.687  0.00  0.00    +0.000 OA
ATOM     22  H   UNL     1       8.948   4.705  16.407  0.00  0.00    +0.000 HD
ENDBRANCH  16  21
ENDBRANCH   1  16
TORSDOF 6
ENDMDL
