MODEL 1
REMARK VINA RESULT:      -8.5      0.000      0.000
REMARK  Name = 
REMARK  7 active torsions:
REMARK  status: ('A' for Active; 'I' for Inactive)
REMARK    1  A    between atoms: C_1  and  N_2
REMARK    2  A    between atoms: C_3  and  C_5
REMARK    3  A    between atoms: C_8  and  N_9
REMARK    4  A    between atoms: N_13  and  C_14
REMARK    5  A    between atoms: C_19  and  P_20
REMARK    6  A    between atoms: P_20  and  C_21
REMARK    7  A    between atoms: P_20  and  C_22
REMARK                            x       y       z     vdW  Elec       q    Type
REMARK                         _______ _______ _______ _____ _____    ______ ____
ROOT
ATOM      1  N   UNL     1       1.996   7.736  19.590  0.00  0.00    +0.000 N 
ATOM      2  C   UNL     1       2.251   6.376  19.784  0.00  0.00    +0.000 A 
ATOM      3  N   UNL     1       3.373   5.929  19.199  0.00  0.00    +0.000 NA
ATOM      4  C   UNL     1       3.782   4.638  19.354  0.00  0.00    +0.000 A 
ATOM      5  N   UNL     1       4.994   4.232  18.764  0.00  0.00    +0.000 N 
ATOM      6  C   UNL     1       2.962   3.786  20.108  0.00  0.00    +0.000 A 
ATOM      7  C   UNL     1       2.952   2.426  20.525  0.00  0.00    +0.000 A 
ATOM      8  C   UNL     1       1.830   2.233  21.313  0.00  0.00    +0.000 A 
ATOM      9  N   UNL     1       1.170   3.427  21.395  0.00  0.00    +0.000 N 
ATOM     10  C   UNL     1       1.837   4.364  20.662  0.00  0.00    +0.000 A 
ATOM     11  N   UNL     1       1.441   5.631  20.540  0.00  0.00    +0.000 NA
ATOM     12  H   UNL     1       2.771   8.124  19.071  0.00  0.00    +0.000 HD
ATOM     13  H   UNL     1       5.195   3.248  18.888  0.00  0.00    +0.000 HD
ATOM     14  H   UNL     1       0.324   3.619  21.913  0.00  0.00    +0.000 HD
ENDROOT
BRANCH   1  18
ATOM     15  C   UNL     1      -0.228  10.532  21.841  0.00  0.00    +0.000 A 
ATOM     16  C   UNL     1      -0.195  10.597  20.445  0.00  0.00    +0.000 A 
ATOM     17  C   UNL     1       0.523   9.644  19.717  0.00  0.00    +0.000 A 
ATOM     18  C   UNL     1       1.245   8.630  20.366  0.00  0.00    +0.000 A 
ATOM     19  C   UNL     1       1.161   8.561  21.760  0.00  0.00    +0.000 A 
ATOM     20  C   UNL     1       0.454   9.508  22.501  0.00  0.00    +0.000 A 
BRANCH  15  23
ATOM     21  C   UNL     1      -1.198  13.906  23.205  0.00  0.00    +0.000 C 
ATOM     22  N   UNL     1      -0.542  12.840  22.497  0.00  0.00    +0.000 N 
ATOM     23  C   UNL     1      -0.954  11.533  22.657  0.00  0.00    +0.000 C 
ATOM     24  O   UNL     1      -1.872  11.192  23.395  0.00  0.00    +0.000 OA
ATOM     25  H   UNL     1       0.078  13.075  21.739  0.00  0.00    +0.000 HD
ENDBRANCH  15  23
ENDBRANCH   1  18
BRANCH   5  26
ATOM     26  C   UNL     1       6.126   5.060  18.585  0.00  0.00    +0.000 A 
ATOM     27  C   UNL     1       6.891   5.476  19.693  0.00  0.00    +0.000 A 
ATOM     28  C   UNL     1       7.963   6.358  19.560  0.00  0.00    +0.000 A 
ATOM     29  C   UNL     1       8.287   6.856  18.308  0.00  0.00    +0.000 A 
ATOM     30  C   UNL     1       7.557   6.446  17.196  0.00  0.00    +0.000 A 
ATOM     31  C   UNL     1       6.490   5.521  17.308  0.00  0.00    +0.000 A 
BRANCH  31  32
ATOM     32  P   UNL     1       5.519   4.953  15.864  0.00  0.00    +0.000 P 
ATOM     33  C   UNL     1       4.930   6.763  15.558  0.00  0.00    +0.000 C 
ATOM     34  C   UNL     1       7.122   4.807  14.792  0.00  0.00    +0.000 C 
ATOM     35  O   UNL     1       4.698   4.472  14.643  0.00  0.00    +0.000 OA
ENDBRANCH  31  32
ENDBRANCH   5  26
TORSDOF 4
ENDMDL
MODEL 2
REMARK VINA RESULT:      -7.8      2.844      9.095
REMARK  Name = 
REMARK  7 active torsions:
REMARK  status: ('A' for Active; 'I' for Inactive)
REMARK    1  A    between atoms: C_1  and  N_2
REMARK    2  A    between atoms: C_3  and  C_5
REMARK    3  A    between atoms: C_8  and  N_9
REMARK    4  A    between atoms: N_13  and  C_14
REMARK    5  A    between atoms: C_19  and  P_20
REMARK    6  A    between atoms: P_20  and  C_21
REMARK    7  A    between atoms: P_20  and  C_22
REMARK                            x       y       z     vdW  Elec       q    Type
REMARK                         _______ _______ _______ _____ _____    ______ ____
ROOT
ATOM      1  N   UNL     1       4.941   6.082  17.142  0.00  0.00    +0.000 N 
ATOM      2  C   UNL     1       4.065   5.667  18.149  0.00  0.00    +0.000 A 
ATOM      3  N   UNL     1       3.455   6.667  18.804  0.00  0.00    +0.000 NA
ATOM      4  C   UNL     1       2.527   6.412  19.770  0.00  0.00    +0.000 A 
ATOM      5  N   UNL     1       1.875   7.496  20.390  0.00  0.00    +0.000 N 
ATOM      6  C   UNL     1       2.271   5.070  20.083  0.00  0.00    +0.000 A 
ATOM      7  C   UNL     1       1.444   4.332  20.976  0.00  0.00    +0.000 A 
ATOM      8  C   UNL     1       1.659   2.986  20.736  0.00  0.00    +0.000 A 
ATOM      9  N   UNL     1       2.575   2.884  19.727  0.00  0.00    +0.000 N 
ATOM     10  C   UNL     1       2.959   4.133  19.337  0.00  0.00    +0.000 A 
ATOM     11  N   UNL     1       3.848   4.370  18.373  0.00  0.00    +0.000 NA
ATOM     12  H   UNL     1       4.888   7.088  17.082  0.00  0.00    +0.000 HD
ATOM     13  H   UNL     1       1.240   7.217  21.127  0.00  0.00    +0.000 HD
ATOM     14  H   UNL     1       2.928   2.033  19.310  0.00  0.00    +0.000 HD
ENDROOT
BRANCH   1  18
ATOM     15  C   UNL     1       6.341   4.149  13.658  0.00  0.00    +0.000 A 
ATOM     16  C   UNL     1       7.200   4.923  14.445  0.00  0.00    +0.000 A 
ATOM     17  C   UNL     1       6.723   5.530  15.610  0.00  0.00    +0.000 A 
ATOM     18  C   UNL     1       5.380   5.404  15.996  0.00  0.00    +0.000 A 
ATOM     19  C   UNL     1       4.553   4.589  15.216  0.00  0.00    +0.000 A 
ATOM     20  C   UNL     1       5.011   3.982  14.047  0.00  0.00    +0.000 A 
BRANCH  15  23
ATOM     21  C   UNL     1       6.628   1.532  10.965  0.00  0.00    +0.000 C 
ATOM     22  N   UNL     1       6.295   2.241  12.171  0.00  0.00    +0.000 N 
ATOM     23  C   UNL     1       6.792   3.507  12.402  0.00  0.00    +0.000 C 
ATOM     24  O   UNL     1       7.536   4.100  11.628  0.00  0.00    +0.000 OA
ATOM     25  H   UNL     1       5.542   1.892  12.743  0.00  0.00    +0.000 HD
ENDBRANCH  15  23
ENDBRANCH   1  18
BRANCH   5  26
ATOM     26  C   UNL     1       1.568   8.724  19.762  0.00  0.00    +0.000 A 
ATOM     27  C   UNL     1       1.800   8.902  18.383  0.00  0.00    +0.000 A 
ATOM     28  C   UNL     1       1.584  10.126  17.751  0.00  0.00    +0.000 A 
ATOM     29  C   UNL     1       1.142  11.210  18.492  0.00  0.00    +0.000 A 
ATOM     30  C   UNL     1       0.888  11.054  19.853  0.00  0.00    +0.000 A 
ATOM     31  C   UNL     1       1.065   9.809  20.503  0.00  0.00    +0.000 A 
BRANCH  31  32
ATOM     32  P   UNL     1       0.730   9.568  22.286  0.00  0.00    +0.000 P 
ATOM     33  C   UNL     1      -0.230  11.239  22.323  0.00  0.00    +0.000 C 
ATOM     34  C   UNL     1      -0.642   8.261  21.894  0.00  0.00    +0.000 C 
ATOM     35  O   UNL     1       0.447   9.364  23.794  0.00  0.00    +0.000 OA
ENDBRANCH  31  32
ENDBRANCH   5  26
TORSDOF 4
ENDMDL
MODEL 3
REMARK VINA RESULT:      -7.8      3.882     10.162
REMARK  Name = 
REMARK  7 active torsions:
REMARK  status: ('A' for Active; 'I' for Inactive)
REMARK    1  A    between atoms: C_1  and  N_2
REMARK    2  A    between atoms: C_3  and  C_5
REMARK    3  A    between atoms: C_8  and  N_9
REMARK    4  A    between atoms: N_13  and  C_14
REMARK    5  A    between atoms: C_19  and  P_20
REMARK    6  A    between atoms: P_20  and  C_21
REMARK    7  A    between atoms: P_20  and  C_22
REMARK                            x       y       z     vdW  Elec       q    Type
REMARK                         _______ _______ _______ _____ _____    ______ ____
ROOT
ATOM      1  N   UNL     1       0.397   9.576  19.770  0.00  0.00    +0.000 N 
ATOM      2  C   UNL     1      -0.728  10.128  19.151  0.00  0.00    +0.000 A 
ATOM      3  N   UNL     1      -1.208  11.230  19.747  0.00  0.00    +0.000 NA
ATOM      4  C   UNL     1      -2.264  11.912  19.218  0.00  0.00    +0.000 A 
ATOM      5  N   UNL     1      -2.697  13.093  19.852  0.00  0.00    +0.000 N 
ATOM      6  C   UNL     1      -2.855  11.392  18.058  0.00  0.00    +0.000 A 
ATOM      7  C   UNL     1      -3.929  11.716  17.183  0.00  0.00    +0.000 A 
ATOM      8  C   UNL     1      -3.950  10.772  16.171  0.00  0.00    +0.000 A 
ATOM      9  N   UNL     1      -2.924   9.898  16.397  0.00  0.00    +0.000 N 
ATOM     10  C   UNL     1      -2.268  10.255  17.538  0.00  0.00    +0.000 A 
ATOM     11  N   UNL     1      -1.219   9.595  18.030  0.00  0.00    +0.000 NA
ATOM     12  H   UNL     1       0.653  10.179  20.539  0.00  0.00    +0.000 HD
ATOM     13  H   UNL     1      -3.514  13.506  19.422  0.00  0.00    +0.000 HD
ATOM     14  H   UNL     1      -2.663   9.106  15.825  0.00  0.00    +0.000 HD
ENDROOT
BRANCH   1  18
ATOM     15  C   UNL     1       3.398   7.159  18.042  0.00  0.00    +0.000 A 
ATOM     16  C   UNL     1       2.982   8.342  17.423  0.00  0.00    +0.000 A 
ATOM     17  C   UNL     1       2.009   9.143  18.026  0.00  0.00    +0.000 A 
ATOM     18  C   UNL     1       1.410   8.766  19.238  0.00  0.00    +0.000 A 
ATOM     19  C   UNL     1       1.874   7.602  19.859  0.00  0.00    +0.000 A 
ATOM     20  C   UNL     1       2.840   6.788  19.267  0.00  0.00    +0.000 A 
BRANCH  15  23
ATOM     21  C   UNL     1       4.914   3.983  16.700  0.00  0.00    +0.000 C 
ATOM     22  N   UNL     1       4.035   4.940  17.316  0.00  0.00    +0.000 N 
ATOM     23  C   UNL     1       4.407   6.265  17.430  0.00  0.00    +0.000 C 
ATOM     24  O   UNL     1       5.481   6.707  17.038  0.00  0.00    +0.000 OA
ATOM     25  H   UNL     1       3.075   4.680  17.476  0.00  0.00    +0.000 HD
ENDBRANCH  15  23
ENDBRANCH   1  18
BRANCH   5  26
ATOM     26  C   UNL     1      -1.858  13.997  20.542  0.00  0.00    +0.000 A 
ATOM     27  C   UNL     1      -0.944  14.808  19.838  0.00  0.00    +0.000 A 
ATOM     28  C   UNL     1      -0.047  15.649  20.495  0.00  0.00    +0.000 A 
ATOM     29  C   UNL     1      -0.034  15.689  21.879  0.00  0.00    +0.000 A 
ATOM     30  C   UNL     1      -0.939  14.910  22.597  0.00  0.00    +0.000 A 
ATOM     31  C   UNL     1      -1.883  14.080  21.946  0.00  0.00    +0.000 A 
BRANCH  31  32
ATOM     32  P   UNL     1      -3.093  13.054  22.859  0.00  0.00    +0.000 P 
ATOM     33  C   UNL     1      -1.723  11.736  23.178  0.00  0.00    +0.000 C 
ATOM     34  C   UNL     1      -2.976  14.216  24.401  0.00  0.00    +0.000 C 
ATOM     35  O   UNL     1      -4.116  12.187  23.632  0.00  0.00    +0.000 OA
ENDBRANCH  31  32
ENDBRANCH   5  26
TORSDOF 4
ENDMDL
MODEL 4
REMARK VINA RESULT:      -7.8      4.283      9.772
REMARK  Name = 
REMARK  7 active torsions:
REMARK  status: ('A' for Active; 'I' for Inactive)
REMARK    1  A    between atoms: C_1  and  N_2
REMARK    2  A    between atoms: C_3  and  C_5
REMARK    3  A    between atoms: C_8  and  N_9
REMARK    4  A    between atoms: N_13  and  C_14
REMARK    5  A    between atoms: C_19  and  P_20
REMARK    6  A    between atoms: P_20  and  C_21
REMARK    7  A    between atoms: P_20  and  C_22
REMARK                            x       y       z     vdW  Elec       q    Type
REMARK                         _______ _______ _______ _____ _____    ______ ____
ROOT
ATOM      1  N   UNL     1       1.504   8.993  18.469  0.00  0.00    +0.000 N 
ATOM      2  C   UNL     1       0.688   9.716  19.343  0.00  0.00    +0.000 A 
ATOM      3  N   UNL     1      -0.297  10.405  18.747  0.00  0.00    +0.000 NA
ATOM      4  C   UNL     1      -1.209  11.106  19.479  0.00  0.00    +0.000 A 
ATOM      5  N   UNL     1      -2.255  11.769  18.809  0.00  0.00    +0.000 N 
ATOM      6  C   UNL     1      -1.050  11.115  20.872  0.00  0.00    +0.000 A 
ATOM      7  C   UNL     1      -1.700  11.679  22.005  0.00  0.00    +0.000 A 
ATOM      8  C   UNL     1      -1.028  11.248  23.136  0.00  0.00    +0.000 A 
ATOM      9  N   UNL     1      -0.004  10.440  22.728  0.00  0.00    +0.000 N 
ATOM     10  C   UNL     1      -0.002  10.365  21.366  0.00  0.00    +0.000 A 
ATOM     11  N   UNL     1       0.880   9.654  20.663  0.00  0.00    +0.000 NA
ATOM     12  H   UNL     1       1.133   9.107  17.536  0.00  0.00    +0.000 HD
ATOM     13  H   UNL     1      -2.855  12.303  19.424  0.00  0.00    +0.000 HD
ATOM     14  H   UNL     1       0.660   9.955  23.317  0.00  0.00    +0.000 HD
ENDROOT
BRANCH   1  18
ATOM     15  C   UNL     1       3.860   5.535  19.038  0.00  0.00    +0.000 A 
ATOM     16  C   UNL     1       4.055   6.363  17.927  0.00  0.00    +0.000 A 
ATOM     17  C   UNL     1       3.284   7.519  17.773  0.00  0.00    +0.000 A 
ATOM     18  C   UNL     1       2.288   7.855  18.702  0.00  0.00    +0.000 A 
ATOM     19  C   UNL     1       2.142   7.035  19.826  0.00  0.00    +0.000 A 
ATOM     20  C   UNL     1       2.899   5.874  19.991  0.00  0.00    +0.000 A 
BRANCH  15  23
ATOM     21  C   UNL     1       4.523   1.897  19.749  0.00  0.00    +0.000 C 
ATOM     22  N   UNL     1       3.890   3.176  19.574  0.00  0.00    +0.000 N 
ATOM     23  C   UNL     1       4.633   4.288  19.232  0.00  0.00    +0.000 C 
ATOM     24  O   UNL     1       5.848   4.271  19.065  0.00  0.00    +0.000 OA
ATOM     25  H   UNL     1       2.886   3.211  19.504  0.00  0.00    +0.000 HD
ENDBRANCH  15  23
ENDBRANCH   1  18
BRANCH   5  26
ATOM     26  C   UNL     1      -2.862  11.324  17.612  0.00  0.00    +0.000 A 
ATOM     27  C   UNL     1      -2.084  10.766  16.578  0.00  0.00    +0.000 A 
ATOM     28  C   UNL     1      -2.640  10.394  15.355  0.00  0.00    +0.000 A 
ATOM     29  C   UNL     1      -3.994  10.585  15.133  0.00  0.00    +0.000 A 
ATOM     30  C   UNL     1      -4.787  11.119  16.146  0.00  0.00    +0.000 A 
ATOM     31  C   UNL     1      -4.246  11.466  17.407  0.00  0.00    +0.000 A 
BRANCH  31  32
ATOM     32  P   UNL     1      -5.263  12.158  18.763  0.00  0.00    +0.000 P 
ATOM     33  C   UNL     1      -6.262  13.189  17.476  0.00  0.00    +0.000 C 
ATOM     34  C   UNL     1      -6.265  10.511  18.907  0.00  0.00    +0.000 C 
ATOM     35  O   UNL     1      -6.122  12.743  19.910  0.00  0.00    +0.000 OA
ENDBRANCH  31  32
ENDBRANCH   5  26
TORSDOF 4
ENDMDL
MODEL 5
REMARK VINA RESULT:      -7.6      3.842      9.922
REMARK  Name = 
REMARK  7 active torsions:
REMARK  status: ('A' for Active; 'I' for Inactive)
REMARK    1  A    between atoms: C_1  and  N_2
REMARK    2  A    between atoms: C_3  and  C_5
REMARK    3  A    between atoms: C_8  and  N_9
REMARK    4  A    between atoms: N_13  and  C_14
REMARK    5  A    between atoms: C_19  and  P_20
REMARK    6  A    between atoms: P_20  and  C_21
REMARK    7  A    between atoms: P_20  and  C_22
REMARK                            x       y       z     vdW  Elec       q    Type
REMARK                         _______ _______ _______ _____ _____    ______ ____
ROOT
ATOM      1  N   UNL     1       0.807   9.396  19.512  0.00  0.00    +0.000 N 
ATOM      2  C   UNL     1      -0.308   9.974  18.897  0.00  0.00    +0.000 A 
ATOM      3  N   UNL     1      -0.700  11.140  19.434  0.00  0.00    +0.000 NA
ATOM      4  C   UNL     1      -1.734  11.849  18.898  0.00  0.00    +0.000 A 
ATOM      5  N   UNL     1      -2.072  13.092  19.465  0.00  0.00    +0.000 N 
ATOM      6  C   UNL     1      -2.398  11.291  17.797  0.00  0.00    +0.000 A 
ATOM      7  C   UNL     1      -3.485  11.622  16.940  0.00  0.00    +0.000 A 
ATOM      8  C   UNL     1      -3.600  10.617  15.995  0.00  0.00    +0.000 A 
ATOM      9  N   UNL     1      -2.618   9.699  16.243  0.00  0.00    +0.000 N 
ATOM     10  C   UNL     1      -1.899  10.089  17.334  0.00  0.00    +0.000 A 
ATOM     11  N   UNL     1      -0.873   9.400  17.833  0.00  0.00    +0.000 NA
ATOM     12  H   UNL     1       1.126  10.032  20.229  0.00  0.00    +0.000 HD
ATOM     13  H   UNL     1      -2.880  13.526  19.037  0.00  0.00    +0.000 HD
ATOM     14  H   UNL     1      -2.426   8.857  15.717  0.00  0.00    +0.000 HD
ENDROOT
BRANCH   1  18
ATOM     15  C   UNL     1       3.696   6.659  18.102  0.00  0.00    +0.000 A 
ATOM     16  C   UNL     1       3.019   6.434  19.305  0.00  0.00    +0.000 A 
ATOM     17  C   UNL     1       2.045   7.337  19.739  0.00  0.00    +0.000 A 
ATOM     18  C   UNL     1       1.749   8.494  19.002  0.00  0.00    +0.000 A 
ATOM     19  C   UNL     1       2.409   8.674  17.781  0.00  0.00    +0.000 A 
ATOM     20  C   UNL     1       3.388   7.785  17.337  0.00  0.00    +0.000 A 
BRANCH  15  23
ATOM     21  C   UNL     1       6.475   5.365  15.914  0.00  0.00    +0.000 C 
ATOM     22  N   UNL     1       5.401   6.149  16.463  0.00  0.00    +0.000 N 
ATOM     23  C   UNL     1       4.753   5.745  17.613  0.00  0.00    +0.000 C 
ATOM     24  O   UNL     1       5.028   4.719  18.226  0.00  0.00    +0.000 OA
ATOM     25  H   UNL     1       5.265   7.086  16.121  0.00  0.00    +0.000 HD
ENDBRANCH  15  23
ENDBRANCH   1  18
BRANCH   5  26
ATOM     26  C   UNL     1      -1.156  13.987  20.063  0.00  0.00    +0.000 A 
ATOM     27  C   UNL     1      -0.249  14.720  19.271  0.00  0.00    +0.000 A 
ATOM     28  C   UNL     1       0.721  15.548  19.836  0.00  0.00    +0.000 A 
ATOM     29  C   UNL     1       0.815  15.651  21.214  0.00  0.00    +0.000 A 
ATOM     30  C   UNL     1      -0.081  14.949  22.017  0.00  0.00    +0.000 A 
ATOM     31  C   UNL     1      -1.097  14.135  21.461  0.00  0.00    +0.000 A 
BRANCH  31  32
ATOM     32  P   UNL     1      -2.297  13.211  22.488  0.00  0.00    +0.000 P 
ATOM     33  C   UNL     1      -0.985  11.825  22.760  0.00  0.00    +0.000 C 
ATOM     34  C   UNL     1      -2.009  14.411  23.977  0.00  0.00    +0.000 C 
ATOM     35  O   UNL     1      -3.312  12.430  23.357  0.00  0.00    +0.000 OA
ENDBRANCH  31  32
ENDBRANCH   5  26
TORSDOF 4
ENDMDL
MODEL 6
REMARK VINA RESULT:      -7.5      4.037     10.156
REMARK  Name = 
REMARK  7 active torsions:
REMARK  status: ('A' for Active; 'I' for Inactive)
REMARK    1  A    between atoms: C_1  and  N_2
REMARK    2  A    between atoms: C_3  and  C_5
REMARK    3  A    between atoms: C_8  and  N_9
REMARK    4  A    between atoms: N_13  and  C_14
REMARK    5  A    between atoms: C_19  and  P_20
REMARK    6  A    between atoms: P_20  and  C_21
REMARK    7  A    between atoms: P_20  and  C_22
REMARK                            x       y       z     vdW  Elec       q    Type
REMARK                         _______ _______ _______ _____ _____    ______ ____
ROOT
ATOM      1  N   UNL     1       0.617   9.929  19.931  0.00  0.00    +0.000 N 
ATOM      2  C   UNL     1      -0.584  10.447  19.438  0.00  0.00    +0.000 A 
ATOM      3  N   UNL     1      -0.860  11.697  19.841  0.00  0.00    +0.000 NA
ATOM      4  C   UNL     1      -1.966  12.354  19.389  0.00  0.00    +0.000 A 
ATOM      5  N   UNL     1      -2.183  13.683  19.800  0.00  0.00    +0.000 N 
ATOM      6  C   UNL     1      -2.825  11.657  18.528  0.00  0.00    +0.000 A 
ATOM      7  C   UNL     1      -4.045  11.892  17.835  0.00  0.00    +0.000 A 
ATOM      8  C   UNL     1      -4.340  10.758  17.099  0.00  0.00    +0.000 A 
ATOM      9  N   UNL     1      -3.340   9.851  17.314  0.00  0.00    +0.000 N 
ATOM     10  C   UNL     1      -2.431  10.379  18.183  0.00  0.00    +0.000 A 
ATOM     11  N   UNL     1      -1.338   9.737  18.597  0.00  0.00    +0.000 NA
ATOM     12  H   UNL     1       1.068  10.655  20.468  0.00  0.00    +0.000 HD
ATOM     13  H   UNL     1      -3.050  14.076  19.457  0.00  0.00    +0.000 HD
ATOM     14  H   UNL     1      -3.255   8.931  16.906  0.00  0.00    +0.000 HD
ENDROOT
BRANCH   1  18
ATOM     15  C   UNL     1       3.046   6.913  18.248  0.00  0.00    +0.000 A 
ATOM     16  C   UNL     1       2.782   8.096  17.551  0.00  0.00    +0.000 A 
ATOM     17  C   UNL     1       2.000   9.095  18.138  0.00  0.00    +0.000 A 
ATOM     18  C   UNL     1       1.442   8.921  19.414  0.00  0.00    +0.000 A 
ATOM     19  C   UNL     1       1.756   7.748  20.108  0.00  0.00    +0.000 A 
ATOM     20  C   UNL     1       2.530   6.739  19.532  0.00  0.00    +0.000 A 
BRANCH  15  23
ATOM     21  C   UNL     1       4.081   3.393  17.398  0.00  0.00    +0.000 C 
ATOM     22  N   UNL     1       3.409   4.539  17.948  0.00  0.00    +0.000 N 
ATOM     23  C   UNL     1       3.847   5.816  17.658  0.00  0.00    +0.000 C 
ATOM     24  O   UNL     1       4.813   6.060  16.943  0.00  0.00    +0.000 OA
ATOM     25  H   UNL     1       2.506   4.411  18.373  0.00  0.00    +0.000 HD
ENDBRANCH  15  23
ENDBRANCH   1  18
BRANCH   5  26
ATOM     26  C   UNL     1      -1.164  14.623  20.074  0.00  0.00    +0.000 A 
ATOM     27  C   UNL     1      -0.243  14.996  19.073  0.00  0.00    +0.000 A 
ATOM     28  C   UNL     1       0.821  15.857  19.334  0.00  0.00    +0.000 A 
ATOM     29  C   UNL     1       0.999  16.358  20.614  0.00  0.00    +0.000 A 
ATOM     30  C   UNL     1       0.092  16.018  21.616  0.00  0.00    +0.000 A 
ATOM     31  C   UNL     1      -1.017  15.176  21.359  0.00  0.00    +0.000 A 
BRANCH  31  32
ATOM     32  P   UNL     1      -2.232  14.721  22.650  0.00  0.00    +0.000 P 
ATOM     33  C   UNL     1      -1.119  13.232  23.161  0.00  0.00    +0.000 C 
ATOM     34  C   UNL     1      -1.622  16.160  23.789  0.00  0.00    +0.000 C 
ATOM     35  O   UNL     1      -3.260  14.336  23.741  0.00  0.00    +0.000 OA
ENDBRANCH  31  32
ENDBRANCH   5  26
TORSDOF 4
ENDMDL
MODEL 7
REMARK VINA RESULT:      -7.5      2.047      3.043
REMARK  Name = 
REMARK  7 active torsions:
REMARK  status: ('A' for Active; 'I' for Inactive)
REMARK    1  A    between atoms: C_1  and  N_2
REMARK    2  A    between atoms: C_3  and  C_5
REMARK    3  A    between atoms: C_8  and  N_9
REMARK    4  A    between atoms: N_13  and  C_14
REMARK    5  A    between atoms: C_19  and  P_20
REMARK    6  A    between atoms: P_20  and  C_21
REMARK    7  A    between atoms: P_20  and  C_22
REMARK                            x       y       z     vdW  Elec       q    Type
REMARK                         _______ _______ _______ _____ _____    ______ ____
ROOT
ATOM      1  N   UNL     1       2.112   7.349  17.928  0.00  0.00    +0.000 N 
ATOM      2  C   UNL     1       2.476   6.103  18.447  0.00  0.00    +0.000 A 
ATOM      3  N   UNL     1       3.199   5.341  17.612  0.00  0.00    +0.000 NA
ATOM      4  C   UNL     1       3.678   4.126  18.005  0.00  0.00    +0.000 A 
ATOM      5  N   UNL     1       4.476   3.388  17.110  0.00  0.00    +0.000 N 
ATOM      6  C   UNL     1       3.348   3.687  19.294  0.00  0.00    +0.000 A 
ATOM      7  C   UNL     1       3.586   2.551  20.117  0.00  0.00    +0.000 A 
ATOM      8  C   UNL     1       2.984   2.780  21.342  0.00  0.00    +0.000 A 
ATOM      9  N   UNL     1       2.400   4.016  21.292  0.00  0.00    +0.000 N 
ATOM     10  C   UNL     1       2.603   4.563  20.060  0.00  0.00    +0.000 A 
ATOM     11  N   UNL     1       2.152   5.763  19.696  0.00  0.00    +0.000 NA
ATOM     12  H   UNL     1       2.531   7.436  17.014  0.00  0.00    +0.000 HD
ATOM     13  H   UNL     1       4.747   2.480  17.464  0.00  0.00    +0.000 HD
ATOM     14  H   UNL     1       1.897   4.480  22.035  0.00  0.00    +0.000 HD
ENDROOT
BRANCH   1  18
ATOM     15  C   UNL     1       1.038  10.872  19.993  0.00  0.00    +0.000 A 
ATOM     16  C   UNL     1       1.035   9.631  20.638  0.00  0.00    +0.000 A 
ATOM     17  C   UNL     1       1.422   8.481  19.945  0.00  0.00    +0.000 A 
ATOM     18  C   UNL     1       1.789   8.540  18.592  0.00  0.00    +0.000 A 
ATOM     19  C   UNL     1       1.826   9.799  17.981  0.00  0.00    +0.000 A 
ATOM     20  C   UNL     1       1.436  10.955  18.658  0.00  0.00    +0.000 A 
BRANCH  15  23
ATOM     21  C   UNL     1       0.122  14.499  20.425  0.00  0.00    +0.000 C 
ATOM     22  N   UNL     1       0.561  13.242  19.883  0.00  0.00    +0.000 N 
ATOM     23  C   UNL     1       0.613  12.114  20.678  0.00  0.00    +0.000 C 
ATOM     24  O   UNL     1       0.307  12.102  21.865  0.00  0.00    +0.000 OA
ATOM     25  H   UNL     1       0.634  13.147  18.883  0.00  0.00    +0.000 HD
ENDBRANCH  15  23
ENDBRANCH   1  18
BRANCH   5  26
ATOM     26  C   UNL     1       5.356   3.948  16.156  0.00  0.00    +0.000 A 
ATOM     27  C   UNL     1       5.189   3.679  14.781  0.00  0.00    +0.000 A 
ATOM     28  C   UNL     1       6.087   4.149  13.824  0.00  0.00    +0.000 A 
ATOM     29  C   UNL     1       7.186   4.891  14.222  0.00  0.00    +0.000 A 
ATOM     30  C   UNL     1       7.363   5.185  15.573  0.00  0.00    +0.000 A 
ATOM     31  C   UNL     1       6.440   4.750  16.554  0.00  0.00    +0.000 A 
BRANCH  31  32
ATOM     32  P   UNL     1       6.638   5.129  18.334  0.00  0.00    +0.000 P 
ATOM     33  C   UNL     1       8.404   4.359  18.294  0.00  0.00    +0.000 C 
ATOM     34  C   UNL     1       6.944   6.998  17.943  0.00  0.00    +0.000 C 
ATOM     35  O   UNL     1       6.804   5.450  19.839  0.00  0.00    +0.000 OA
ENDBRANCH  31  32
ENDBRANCH   5  26
TORSDOF 4
ENDMDL
MODEL 8
REMARK VINA RESULT:      -7.4      4.022     10.332
REMARK  Name = 
REMARK  7 active torsions:
REMARK  status: ('A' for Active; 'I' for Inactive)
REMARK    1  A    between atoms: C_1  and  N_2
REMARK    2  A    between atoms: C_3  and  C_5
REMARK    3  A    between atoms: C_8  and  N_9
REMARK    4  A    between atoms: N_13  and  C_14
REMARK    5  A    between atoms: C_19  and  P_20
REMARK    6  A    between atoms: P_20  and  C_21
REMARK    7  A    between atoms: P_20  and  C_22
REMARK                            x       y       z     vdW  Elec       q    Type
REMARK                         _______ _______ _______ _____ _____    ______ ____
ROOT
ATOM      1  N   UNL     1       0.510   9.914  19.891  0.00  0.00    +0.000 N 
ATOM      2  C   UNL     1      -0.691  10.448  19.416  0.00  0.00    +0.000 A 
ATOM      3  N   UNL     1      -1.002  11.655  19.915  0.00  0.00    +0.000 NA
ATOM      4  C   UNL     1      -2.112  12.326  19.495  0.00  0.00    +0.000 A 
ATOM      5  N   UNL     1      -2.366  13.611  20.009  0.00  0.00    +0.000 N 
ATOM      6  C   UNL     1      -2.938  11.687  18.559  0.00  0.00    +0.000 A 
ATOM      7  C   UNL     1      -4.148  11.956  17.861  0.00  0.00    +0.000 A 
ATOM      8  C   UNL     1      -4.404  10.881  17.026  0.00  0.00    +0.000 A 
ATOM      9  N   UNL     1      -3.389   9.979  17.189  0.00  0.00    +0.000 N 
ATOM     10  C   UNL     1      -2.509  10.450  18.119  0.00  0.00    +0.000 A 
ATOM     11  N   UNL     1      -1.413   9.797  18.502  0.00  0.00    +0.000 NA
ATOM     12  H   UNL     1       0.934  10.602  20.497  0.00  0.00    +0.000 HD
ATOM     13  H   UNL     1      -3.234  14.015  19.681  0.00  0.00    +0.000 HD
ATOM     14  H   UNL     1      -3.276   9.098  16.706  0.00  0.00    +0.000 HD
ENDROOT
BRANCH   1  18
ATOM     15  C   UNL     1       3.149   7.047  18.266  0.00  0.00    +0.000 A 
ATOM     16  C   UNL     1       2.557   6.851  19.518  0.00  0.00    +0.000 A 
ATOM     17  C   UNL     1       1.663   7.799  20.025  0.00  0.00    +0.000 A 
ATOM     18  C   UNL     1       1.367   8.969  19.311  0.00  0.00    +0.000 A 
ATOM     19  C   UNL     1       1.937   9.121  18.042  0.00  0.00    +0.000 A 
ATOM     20  C   UNL     1       2.836   8.188  17.526  0.00  0.00    +0.000 A 
BRANCH  15  23
ATOM     21  C   UNL     1       4.526   3.758  17.053  0.00  0.00    +0.000 C 
ATOM     22  N   UNL     1       3.687   4.776  17.624  0.00  0.00    +0.000 N 
ATOM     23  C   UNL     1       4.121   6.085  17.698  0.00  0.00    +0.000 C 
ATOM     24  O   UNL     1       5.218   6.462  17.304  0.00  0.00    +0.000 OA
ATOM     25  H   UNL     1       2.714   4.568  17.781  0.00  0.00    +0.000 HD
ENDBRANCH  15  23
ENDBRANCH   1  18
BRANCH   5  26
ATOM     26  C   UNL     1      -1.373  14.545  20.384  0.00  0.00    +0.000 A 
ATOM     27  C   UNL     1      -0.486  15.074  19.423  0.00  0.00    +0.000 A 
ATOM     28  C   UNL     1       0.555  15.932  19.774  0.00  0.00    +0.000 A 
ATOM     29  C   UNL     1       0.742  16.273  21.104  0.00  0.00    +0.000 A 
ATOM     30  C   UNL     1      -0.131  15.777  22.069  0.00  0.00    +0.000 A 
ATOM     31  C   UNL     1      -1.217  14.936  21.726  0.00  0.00    +0.000 A 
BRANCH  31  32
ATOM     32  P   UNL     1      -2.388  14.277  22.969  0.00  0.00    +0.000 P 
ATOM     33  C   UNL     1      -1.248  14.932  24.379  0.00  0.00    +0.000 C 
ATOM     34  C   UNL     1      -3.611  15.742  22.652  0.00  0.00    +0.000 C 
ATOM     35  O   UNL     1      -3.379  13.720  24.019  0.00  0.00    +0.000 OA
ENDBRANCH  31  32
ENDBRANCH   5  26
TORSDOF 4
ENDMDL
MODEL 9
REMARK VINA RESULT:      -7.4      2.057      2.941
REMARK  Name = 
REMARK  7 active torsions:
REMARK  status: ('A' for Active; 'I' for Inactive)
REMARK    1  A    between atoms: C_1  and  N_2
REMARK    2  A    between atoms: C_3  and  C_5
REMARK    3  A    between atoms: C_8  and  N_9
REMARK    4  A    between atoms: N_13  and  C_14
REMARK    5  A    between atoms: C_19  and  P_20
REMARK    6  A    between atoms: P_20  and  C_21
REMARK    7  A    between atoms: P_20  and  C_22
REMARK                            x       y       z     vdW  Elec       q    Type
REMARK                         _______ _______ _______ _____ _____    ______ ____
ROOT
ATOM      1  N   UNL     1       2.044   7.333  18.000  0.00  0.00    +0.000 N 
ATOM      2  C   UNL     1       2.420   6.087  18.508  0.00  0.00    +0.000 A 
ATOM      3  N   UNL     1       3.138   5.333  17.660  0.00  0.00    +0.000 NA
ATOM      4  C   UNL     1       3.628   4.119  18.041  0.00  0.00    +0.000 A 
ATOM      5  N   UNL     1       4.419   3.389  17.134  0.00  0.00    +0.000 N 
ATOM      6  C   UNL     1       3.313   3.671  19.332  0.00  0.00    +0.000 A 
ATOM      7  C   UNL     1       3.566   2.531  20.146  0.00  0.00    +0.000 A 
ATOM      8  C   UNL     1       2.976   2.751  21.378  0.00  0.00    +0.000 A 
ATOM      9  N   UNL     1       2.386   3.984  21.342  0.00  0.00    +0.000 N 
ATOM     10  C   UNL     1       2.573   4.539  20.110  0.00  0.00    +0.000 A 
ATOM     11  N   UNL     1       2.111   5.739  19.758  0.00  0.00    +0.000 NA
ATOM     12  H   UNL     1       2.453   7.428  17.081  0.00  0.00    +0.000 HD
ATOM     13  H   UNL     1       4.699   2.481  17.480  0.00  0.00    +0.000 HD
ATOM     14  H   UNL     1       1.888   4.441  22.093  0.00  0.00    +0.000 HD
ENDROOT
BRANCH   1  18
ATOM     15  C   UNL     1       1.180  10.971  19.963  0.00  0.00    +0.000 A 
ATOM     16  C   UNL     1       1.546  10.951  18.614  0.00  0.00    +0.000 A 
ATOM     17  C   UNL     1       1.799   9.734  17.975  0.00  0.00    +0.000 A 
ATOM     18  C   UNL     1       1.723   8.520  18.673  0.00  0.00    +0.000 A 
ATOM     19  C   UNL     1       1.312   8.562  20.010  0.00  0.00    +0.000 A 
ATOM     20  C   UNL     1       1.063   9.769  20.664  0.00  0.00    +0.000 A 
BRANCH  15  23
ATOM     21  C   UNL     1      -0.773  13.796  21.508  0.00  0.00    +0.000 C 
ATOM     22  N   UNL     1      -0.398  12.608  20.789  0.00  0.00    +0.000 N 
ATOM     23  C   UNL     1       0.927  12.235  20.691  0.00  0.00    +0.000 C 
ATOM     24  O   UNL     1       1.853  12.871  21.183  0.00  0.00    +0.000 OA
ATOM     25  H   UNL     1      -1.118  11.950  20.537  0.00  0.00    +0.000 HD
ENDBRANCH  15  23
ENDBRANCH   1  18
BRANCH   5  26
ATOM     26  C   UNL     1       5.286   3.959  16.173  0.00  0.00    +0.000 A 
ATOM     27  C   UNL     1       5.102   3.701  14.799  0.00  0.00    +0.000 A 
ATOM     28  C   UNL     1       5.987   4.180  13.835  0.00  0.00    +0.000 A 
ATOM     29  C   UNL     1       7.090   4.922  14.225  0.00  0.00    +0.000 A 
ATOM     30  C   UNL     1       7.283   5.206  15.576  0.00  0.00    +0.000 A 
ATOM     31  C   UNL     1       6.373   4.760  16.565  0.00  0.00    +0.000 A 
BRANCH  31  32
ATOM     32  P   UNL     1       6.592   5.125  18.345  0.00  0.00    +0.000 P 
ATOM     33  C   UNL     1       8.366   4.373  18.273  0.00  0.00    +0.000 C 
ATOM     34  C   UNL     1       6.875   7.001  17.967  0.00  0.00    +0.000 C 
ATOM     35  O   UNL     1       6.776   5.434  19.851  0.00  0.00    +0.000 OA
ENDBRANCH  31  32
ENDBRANCH   5  26
TORSDOF 4
ENDMDL
