MODEL 1
REMARK VINA RESULT:      -6.7      0.000      0.000
REMARK  Name = 
REMARK  11 active torsions:
REMARK  status: ('A' for Active; 'I' for Inactive)
REMARK    1  A    between atoms: C_1  and  C_2
REMARK    2  A    between atoms: C_2  and  C_3
REMARK    3  A    between atoms: C_19  and  C_20
REMARK    4  A    between atoms: C_19  and  C_24
REMARK    5  A    between atoms: C_20  and  O_22
REMARK    6  A    between atoms: O_22  and  C_23
REMARK    7  A    between atoms: C_25  and  O_26
REMARK    8  A    between atoms: O_26  and  C_27
REMARK    9  A    between atoms: C_29  and  N_30
REMARK   10  A    between atoms: C_32  and  O_33
REMARK   11  A    between atoms: O_33  and  C_34
REMARK                            x       y       z     vdW  Elec       q    Type
REMARK                         _______ _______ _______ _____ _____    ______ ____
ROOT
ATOM      1  C   UNL     1       0.999   8.982  20.937  0.00  0.00    +0.000 C 
ATOM      2  C   UNL     1       0.527   9.669  22.015  0.00  0.00    +0.000 C 
ATOM      3  C   UNL     1      -0.091  11.042  21.778  0.00  0.00    +0.000 C 
ATOM      4  C   UNL     1      -0.664  11.043  20.384  0.00  0.00    +0.000 C 
ATOM      5  N   UNL     1       0.347  10.858  19.378  0.00  0.00    +0.000 NA
ATOM      6  C   UNL     1       1.400  11.904  19.400  0.00  0.00    +0.000 C 
ATOM      7  C   UNL     1       1.415  13.204  20.304  0.00  0.00    +0.000 C 
ATOM      8  C   UNL     1       0.215  14.129  20.324  0.00  0.00    +0.000 A 
ATOM      9  C   UNL     1      -0.993  14.103  21.055  0.00  0.00    +0.000 A 
ATOM     10  N   UNL     1      -1.732  15.185  20.579  0.00  0.00    +0.000 N 
ATOM     11  C   UNL     1      -1.051  15.931  19.666  0.00  0.00    +0.000 A 
ATOM     12  C   UNL     1      -1.453  17.072  18.961  0.00  0.00    +0.000 A 
ATOM     13  C   UNL     1      -0.524  17.658  18.102  0.00  0.00    +0.000 A 
ATOM     14  C   UNL     1       0.765  17.144  17.994  0.00  0.00    +0.000 A 
ATOM     15  C   UNL     1       1.138  15.997  18.705  0.00  0.00    +0.000 A 
ATOM     16  C   UNL     1       0.199  15.348  19.536  0.00  0.00    +0.000 A 
ATOM     17  C   UNL     1      -1.737  13.230  22.148  0.00  0.00    +0.000 C 
ATOM     18  C   UNL     1      -1.010  11.859  22.699  0.00  0.00    +0.000 C 
ATOM     19  C   UNL     1       0.794   9.474  19.500  0.00  0.00    +0.000 C 
ATOM     20  H   UNL     1      -2.656  15.421  20.916  0.00  0.00    +0.000 HD
ENDROOT
BRANCH  17  21
ATOM     21  C   UNL     1      -3.237  12.864  21.654  0.00  0.00    +0.000 A 
ATOM     22  C   UNL     1      -4.330  12.644  22.553  0.00  0.00    +0.000 A 
ATOM     23  C   UNL     1      -5.655  12.867  22.157  0.00  0.00    +0.000 A 
ATOM     24  C   UNL     1      -5.978  13.025  20.826  0.00  0.00    +0.000 A 
ATOM     25  C   UNL     1      -4.945  12.996  19.895  0.00  0.00    +0.000 A 
ATOM     26  C   UNL     1      -3.593  12.905  20.290  0.00  0.00    +0.000 A 
BRANCH  24  27
ATOM     27  N   UNL     1      -7.282  13.361  20.457  0.00  0.00    +0.000 N 
ATOM     28  H   UNL     1      -7.979  12.651  20.657  0.00  0.00    +0.000 HD
ATOM     29  H   UNL     1      -7.368  13.748  19.525  0.00  0.00    +0.000 HD
ENDBRANCH  24  27
BRANCH  22  30
ATOM     30  O   UNL     1      -4.089  12.074  23.782  0.00  0.00    +0.000 OA
ATOM     31  C   UNL     1      -4.907  12.442  24.892  0.00  0.00    +0.000 C 
ENDBRANCH  22  30
BRANCH  26  32
ATOM     32  O   UNL     1      -2.584  12.740  19.385  0.00  0.00    +0.000 OA
ATOM     33  C   UNL     1      -2.854  11.967  18.225  0.00  0.00    +0.000 C 
ENDBRANCH  26  32
ENDBRANCH  17  21
BRANCH   1  35
ATOM     34  C   UNL     1       2.321   7.172  19.624  0.00  0.00    +0.000 C 
ATOM     35  C   UNL     1       1.775   7.675  20.946  0.00  0.00    +0.000 C 
ENDBRANCH   1  35
BRANCH  17  36
ATOM     36  C   UNL     1      -1.683  14.126  23.474  0.00  0.00    +0.000 C 
ATOM     37  O   UNL     1      -0.815  14.065  24.337  0.00  0.00    +0.000 OA
BRANCH  36  38
ATOM     38  O   UNL     1      -2.696  15.061  23.542  0.00  0.00    +0.000 OA
ATOM     39  C   UNL     1      -2.874  15.634  24.839  0.00  0.00    +0.000 C 
ENDBRANCH  36  38
ENDBRANCH  17  36
TORSDOF 7
ENDMDL
MODEL 2
REMARK VINA RESULT:      -6.7      2.109      5.984
REMARK  Name = 
REMARK  11 active torsions:
REMARK  status: ('A' for Active; 'I' for Inactive)
REMARK    1  A    between atoms: C_1  and  C_2
REMARK    2  A    between atoms: C_2  and  C_3
REMARK    3  A    between atoms: C_19  and  C_20
REMARK    4  A    between atoms: C_19  and  C_24
REMARK    5  A    between atoms: C_20  and  O_22
REMARK    6  A    between atoms: O_22  and  C_23
REMARK    7  A    between atoms: C_25  and  O_26
REMARK    8  A    between atoms: O_26  and  C_27
REMARK    9  A    between atoms: C_29  and  N_30
REMARK   10  A    between atoms: C_32  and  O_33
REMARK   11  A    between atoms: O_33  and  C_34
REMARK                            x       y       z     vdW  Elec       q    Type
REMARK                         _______ _______ _______ _____ _____    ______ ____
ROOT
ATOM      1  C   UNL     1       0.963  16.675  18.222  0.00  0.00    +0.000 C 
ATOM      2  C   UNL     1       1.529  15.474  18.536  0.00  0.00    +0.000 C 
ATOM      3  C   UNL     1       0.729  14.508  19.403  0.00  0.00    +0.000 C 
ATOM      4  C   UNL     1      -0.731  14.782  19.152  0.00  0.00    +0.000 C 
ATOM      5  N   UNL     1      -1.113  16.111  19.543  0.00  0.00    +0.000 NA
ATOM      6  C   UNL     1      -0.873  16.396  20.981  0.00  0.00    +0.000 C 
ATOM      7  C   UNL     1      -0.387  15.360  22.076  0.00  0.00    +0.000 C 
ATOM      8  C   UNL     1      -1.115  14.044  22.251  0.00  0.00    +0.000 A 
ATOM      9  C   UNL     1      -1.010  12.803  21.587  0.00  0.00    +0.000 A 
ATOM     10  N   UNL     1      -2.001  12.000  22.149  0.00  0.00    +0.000 N 
ATOM     11  C   UNL     1      -2.666  12.614  23.167  0.00  0.00    +0.000 A 
ATOM     12  C   UNL     1      -3.720  12.146  23.960  0.00  0.00    +0.000 A 
ATOM     13  C   UNL     1      -4.191  12.990  24.966  0.00  0.00    +0.000 A 
ATOM     14  C   UNL     1      -3.596  14.227  25.191  0.00  0.00    +0.000 A 
ATOM     15  C   UNL     1      -2.547  14.673  24.377  0.00  0.00    +0.000 A 
ATOM     16  C   UNL     1      -2.090  13.866  23.313  0.00  0.00    +0.000 A 
ATOM     17  C   UNL     1      -0.188  12.109  20.423  0.00  0.00    +0.000 C 
ATOM     18  C   UNL     1       0.931  12.998  19.603  0.00  0.00    +0.000 C 
ATOM     19  C   UNL     1      -0.486  17.014  18.583  0.00  0.00    +0.000 C 
ATOM     20  H   UNL     1      -2.173  11.044  21.867  0.00  0.00    +0.000 HD
ENDROOT
BRANCH  17  21
ATOM     21  C   UNL     1      -1.192  11.421  19.354  0.00  0.00    +0.000 A 
ATOM     22  C   UNL     1      -2.503  11.924  19.067  0.00  0.00    +0.000 A 
ATOM     23  C   UNL     1      -3.118  11.691  17.831  0.00  0.00    +0.000 A 
ATOM     24  C   UNL     1      -2.622  10.743  16.961  0.00  0.00    +0.000 A 
ATOM     25  C   UNL     1      -1.471  10.056  17.332  0.00  0.00    +0.000 A 
ATOM     26  C   UNL     1      -0.766  10.372  18.513  0.00  0.00    +0.000 A 
BRANCH  24  27
ATOM     27  N   UNL     1      -3.176  10.604  15.688  0.00  0.00    +0.000 N 
ATOM     28  H   UNL     1      -2.782  11.217  14.981  0.00  0.00    +0.000 HD
ATOM     29  H   UNL     1      -4.189  10.581  15.670  0.00  0.00    +0.000 HD
ENDBRANCH  24  27
BRANCH  22  30
ATOM     30  O   UNL     1      -3.226  12.529  20.069  0.00  0.00    +0.000 OA
ATOM     31  C   UNL     1      -4.613  12.796  19.861  0.00  0.00    +0.000 C 
ENDBRANCH  22  30
BRANCH  26  32
ATOM     32  O   UNL     1       0.284   9.617  18.954  0.00  0.00    +0.000 OA
ATOM     33  C   UNL     1       1.325   9.327  18.033  0.00  0.00    +0.000 C 
ENDBRANCH  26  32
ENDBRANCH  17  21
BRANCH   1  35
ATOM     34  C   UNL     1       0.770  18.631  16.525  0.00  0.00    +0.000 C 
ATOM     35  C   UNL     1       1.619  17.840  17.500  0.00  0.00    +0.000 C 
ENDBRANCH   1  35
BRANCH  17  36
ATOM     36  C   UNL     1       0.776  11.078  21.177  0.00  0.00    +0.000 C 
ATOM     37  O   UNL     1       2.000  11.112  21.165  0.00  0.00    +0.000 OA
BRANCH  36  38
ATOM     38  O   UNL     1       0.092  10.146  21.933  0.00  0.00    +0.000 OA
ATOM     39  C   UNL     1       0.937   9.214  22.612  0.00  0.00    +0.000 C 
ENDBRANCH  36  38
ENDBRANCH  17  36
TORSDOF 7
ENDMDL
MODEL 3
REMARK VINA RESULT:      -6.4      2.268      5.642
REMARK  Name = 
REMARK  11 active torsions:
REMARK  status: ('A' for Active; 'I' for Inactive)
REMARK    1  A    between atoms: C_1  and  C_2
REMARK    2  A    between atoms: C_2  and  C_3
REMARK    3  A    between atoms: C_19  and  C_20
REMARK    4  A    between atoms: C_19  and  C_24
REMARK    5  A    between atoms: C_20  and  O_22
REMARK    6  A    between atoms: O_22  and  C_23
REMARK    7  A    between atoms: C_25  and  O_26
REMARK    8  A    between atoms: O_26  and  C_27
REMARK    9  A    between atoms: C_29  and  N_30
REMARK   10  A    between atoms: C_32  and  O_33
REMARK   11  A    between atoms: O_33  and  C_34
REMARK                            x       y       z     vdW  Elec       q    Type
REMARK                         _______ _______ _______ _____ _____    ______ ____
ROOT
ATOM      1  C   UNL     1       2.442  15.792  18.592  0.00  0.00    +0.000 C 
ATOM      2  C   UNL     1       2.671  14.494  18.941  0.00  0.00    +0.000 C 
ATOM      3  C   UNL     1       1.587  13.757  19.720  0.00  0.00    +0.000 C 
ATOM      4  C   UNL     1       0.265  14.371  19.343  0.00  0.00    +0.000 C 
ATOM      5  N   UNL     1       0.180  15.757  19.714  0.00  0.00    +0.000 NA
ATOM      6  C   UNL     1       0.350  15.990  21.171  0.00  0.00    +0.000 C 
ATOM      7  C   UNL     1       0.472  14.878  22.292  0.00  0.00    +0.000 C 
ATOM      8  C   UNL     1      -0.565  13.777  22.385  0.00  0.00    +0.000 A 
ATOM      9  C   UNL     1      -0.701  12.541  21.717  0.00  0.00    +0.000 A 
ATOM     10  N   UNL     1      -1.903  12.006  22.178  0.00  0.00    +0.000 N 
ATOM     11  C   UNL     1      -2.490  12.771  23.139  0.00  0.00    +0.000 A 
ATOM     12  C   UNL     1      -3.693  12.579  23.828  0.00  0.00    +0.000 A 
ATOM     13  C   UNL     1      -4.036  13.520  24.798  0.00  0.00    +0.000 A 
ATOM     14  C   UNL     1      -3.184  14.580  25.091  0.00  0.00    +0.000 A 
ATOM     15  C   UNL     1      -1.989  14.753  24.381  0.00  0.00    +0.000 A 
ATOM     16  C   UNL     1      -1.645  13.849  23.352  0.00  0.00    +0.000 A 
ATOM     17  C   UNL     1       0.032  11.659  20.623  0.00  0.00    +0.000 C 
ATOM     18  C   UNL     1       1.402  12.245  19.919  0.00  0.00    +0.000 C 
ATOM     19  C   UNL     1       1.090  16.473  18.826  0.00  0.00    +0.000 C 
ATOM     20  H   UNL     1      -2.273  11.117  21.869  0.00  0.00    +0.000 HD
ENDROOT
BRANCH  17  21
ATOM     21  C   UNL     1      -1.007  11.222  19.459  0.00  0.00    +0.000 A 
ATOM     22  C   UNL     1      -2.221  11.930  19.181  0.00  0.00    +0.000 A 
ATOM     23  C   UNL     1      -2.805  11.902  17.909  0.00  0.00    +0.000 A 
ATOM     24  C   UNL     1      -2.405  10.978  16.967  0.00  0.00    +0.000 A 
ATOM     25  C   UNL     1      -1.378  10.104  17.305  0.00  0.00    +0.000 A 
ATOM     26  C   UNL     1      -0.691  10.206  18.534  0.00  0.00    +0.000 A 
BRANCH  24  27
ATOM     27  N   UNL     1      -2.913  11.038  15.668  0.00  0.00    +0.000 N 
ATOM     28  H   UNL     1      -2.212  11.061  14.935  0.00  0.00    +0.000 HD
ATOM     29  H   UNL     1      -3.646  11.726  15.535  0.00  0.00    +0.000 HD
ENDBRANCH  24  27
BRANCH  22  30
ATOM     30  O   UNL     1      -2.900  12.536  20.214  0.00  0.00    +0.000 OA
ATOM     31  C   UNL     1      -4.284  12.843  20.050  0.00  0.00    +0.000 C 
ENDBRANCH  22  30
BRANCH  26  32
ATOM     32  O   UNL     1       0.222   9.272  18.932  0.00  0.00    +0.000 OA
ATOM     33  C   UNL     1       1.351   9.051  18.099  0.00  0.00    +0.000 C 
ENDBRANCH  26  32
ENDBRANCH  17  21
BRANCH   1  35
ATOM     34  C   UNL     1       4.846  16.763  18.461  0.00  0.00    +0.000 C 
ATOM     35  C   UNL     1       3.421  16.758  17.947  0.00  0.00    +0.000 C 
ENDBRANCH   1  35
BRANCH  17  36
ATOM     36  C   UNL     1       0.647  10.433  21.449  0.00  0.00    +0.000 C 
ATOM     37  O   UNL     1       1.842  10.207  21.600  0.00  0.00    +0.000 OA
BRANCH  36  38
ATOM     38  O   UNL     1      -0.312   9.653  22.063  0.00  0.00    +0.000 OA
ATOM     39  C   UNL     1      -0.039   9.367  23.436  0.00  0.00    +0.000 C 
ENDBRANCH  36  38
ENDBRANCH  17  36
TORSDOF 7
ENDMDL
MODEL 4
REMARK VINA RESULT:      -6.3      2.552      7.000
REMARK  Name = 
REMARK  11 active torsions:
REMARK  status: ('A' for Active; 'I' for Inactive)
REMARK    1  A    between atoms: C_1  and  C_2
REMARK    2  A    between atoms: C_2  and  C_3
REMARK    3  A    between atoms: C_19  and  C_20
REMARK    4  A    between atoms: C_19  and  C_24
REMARK    5  A    between atoms: C_20  and  O_22
REMARK    6  A    between atoms: O_22  and  C_23
REMARK    7  A    between atoms: C_25  and  O_26
REMARK    8  A    between atoms: O_26  and  C_27
REMARK    9  A    between atoms: C_29  and  N_30
REMARK   10  A    between atoms: C_32  and  O_33
REMARK   11  A    between atoms: O_33  and  C_34
REMARK                            x       y       z     vdW  Elec       q    Type
REMARK                         _______ _______ _______ _____ _____    ______ ____
ROOT
ATOM      1  C   UNL     1      -1.980  16.809  23.073  0.00  0.00    +0.000 C 
ATOM      2  C   UNL     1      -1.404  15.636  23.462  0.00  0.00    +0.000 C 
ATOM      3  C   UNL     1      -1.293  14.514  22.435  0.00  0.00    +0.000 C 
ATOM      4  C   UNL     1      -1.205  15.156  21.076  0.00  0.00    +0.000 C 
ATOM      5  N   UNL     1      -2.386  15.908  20.749  0.00  0.00    +0.000 NA
ATOM      6  C   UNL     1      -3.626  15.091  20.748  0.00  0.00    +0.000 C 
ATOM      7  C   UNL     1      -3.716  13.521  20.934  0.00  0.00    +0.000 C 
ATOM      8  C   UNL     1      -2.873  12.605  20.071  0.00  0.00    +0.000 A 
ATOM      9  C   UNL     1      -1.540  12.154  20.184  0.00  0.00    +0.000 A 
ATOM     10  N   UNL     1      -1.313  11.391  19.039  0.00  0.00    +0.000 N 
ATOM     11  C   UNL     1      -2.421  11.264  18.259  0.00  0.00    +0.000 A 
ATOM     12  C   UNL     1      -2.588  10.595  17.040  0.00  0.00    +0.000 A 
ATOM     13  C   UNL     1      -3.861  10.602  16.472  0.00  0.00    +0.000 A 
ATOM     14  C   UNL     1      -4.926  11.215  17.125  0.00  0.00    +0.000 A 
ATOM     15  C   UNL     1      -4.730  11.884  18.339  0.00  0.00    +0.000 A 
ATOM     16  C   UNL     1      -3.439  11.944  18.908  0.00  0.00    +0.000 A 
ATOM     17  C   UNL     1      -0.282  12.294  21.138  0.00  0.00    +0.000 C 
ATOM     18  C   UNL     1      -0.396  13.267  22.462  0.00  0.00    +0.000 C 
ATOM     19  C   UNL     1      -2.375  17.081  21.618  0.00  0.00    +0.000 C 
ATOM     20  H   UNL     1      -0.433  10.936  18.837  0.00  0.00    +0.000 HD
ENDROOT
BRANCH  17  21
ATOM     21  C   UNL     1       1.029  12.720  20.287  0.00  0.00    +0.000 A 
ATOM     22  C   UNL     1       1.364  12.146  19.018  0.00  0.00    +0.000 A 
ATOM     23  C   UNL     1       2.127  12.852  18.078  0.00  0.00    +0.000 A 
ATOM     24  C   UNL     1       2.818  13.989  18.439  0.00  0.00    +0.000 A 
ATOM     25  C   UNL     1       2.702  14.436  19.751  0.00  0.00    +0.000 A 
ATOM     26  C   UNL     1       1.834  13.812  20.672  0.00  0.00    +0.000 A 
BRANCH  24  27
ATOM     27  N   UNL     1       3.477  14.744  17.467  0.00  0.00    +0.000 N 
ATOM     28  H   UNL     1       3.462  15.747  17.622  0.00  0.00    +0.000 HD
ATOM     29  H   UNL     1       3.253  14.489  16.513  0.00  0.00    +0.000 HD
ENDBRANCH  24  27
BRANCH  22  30
ATOM     30  O   UNL     1       1.051  10.830  18.769  0.00  0.00    +0.000 OA
ATOM     31  C   UNL     1       1.957  10.031  18.008  0.00  0.00    +0.000 C 
ENDBRANCH  22  30
BRANCH  26  32
ATOM     32  O   UNL     1       1.814  14.155  21.994  0.00  0.00    +0.000 OA
ATOM     33  C   UNL     1       2.438  15.373  22.372  0.00  0.00    +0.000 C 
ENDBRANCH  26  32
ENDBRANCH  17  21
BRANCH   1  35
ATOM     34  C   UNL     1      -2.872  17.721  25.334  0.00  0.00    +0.000 C 
ATOM     35  C   UNL     1      -2.324  18.001  23.950  0.00  0.00    +0.000 C 
ENDBRANCH   1  35
BRANCH  17  36
ATOM     36  C   UNL     1      -0.166  10.866  21.853  0.00  0.00    +0.000 C 
ATOM     37  O   UNL     1       0.097  10.684  23.036  0.00  0.00    +0.000 OA
BRANCH  36  38
ATOM     38  O   UNL     1      -0.465   9.811  21.015  0.00  0.00    +0.000 OA
ATOM     39  C   UNL     1      -0.065   8.535  21.519  0.00  0.00    +0.000 C 
ENDBRANCH  36  38
ENDBRANCH  17  36
TORSDOF 7
ENDMDL
MODEL 5
REMARK VINA RESULT:      -6.3      1.171      2.495
REMARK  Name = 
REMARK  11 active torsions:
REMARK  status: ('A' for Active; 'I' for Inactive)
REMARK    1  A    between atoms: C_1  and  C_2
REMARK    2  A    between atoms: C_2  and  C_3
REMARK    3  A    between atoms: C_19  and  C_20
REMARK    4  A    between atoms: C_19  and  C_24
REMARK    5  A    between atoms: C_20  and  O_22
REMARK    6  A    between atoms: O_22  and  C_23
REMARK    7  A    between atoms: C_25  and  O_26
REMARK    8  A    between atoms: O_26  and  C_27
REMARK    9  A    between atoms: C_29  and  N_30
REMARK   10  A    between atoms: C_32  and  O_33
REMARK   11  A    between atoms: O_33  and  C_34
REMARK                            x       y       z     vdW  Elec       q    Type
REMARK                         _______ _______ _______ _____ _____    ______ ____
ROOT
ATOM      1  C   UNL     1       0.742   8.841  20.922  0.00  0.00    +0.000 C 
ATOM      2  C   UNL     1      -0.032   9.534  21.805  0.00  0.00    +0.000 C 
ATOM      3  C   UNL     1      -0.515  10.922  21.399  0.00  0.00    +0.000 C 
ATOM      4  C   UNL     1      -0.618  10.942  19.897  0.00  0.00    +0.000 C 
ATOM      5  N   UNL     1       0.654  10.738  19.259  0.00  0.00    +0.000 NA
ATOM      6  C   UNL     1       1.668  11.759  19.624  0.00  0.00    +0.000 C 
ATOM      7  C   UNL     1       1.424  13.055  20.501  0.00  0.00    +0.000 C 
ATOM      8  C   UNL     1       0.298  14.007  20.152  0.00  0.00    +0.000 A 
ATOM      9  C   UNL     1      -1.078  14.006  20.463  0.00  0.00    +0.000 A 
ATOM     10  N   UNL     1      -1.607  15.107  19.791  0.00  0.00    +0.000 N 
ATOM     11  C   UNL     1      -0.657  15.841  19.148  0.00  0.00    +0.000 A 
ATOM     12  C   UNL     1      -0.793  16.994  18.365  0.00  0.00    +0.000 A 
ATOM     13  C   UNL     1       0.372  17.562  17.850  0.00  0.00    +0.000 A 
ATOM     14  C   UNL     1       1.618  17.019  18.149  0.00  0.00    +0.000 A 
ATOM     15  C   UNL     1       1.724  15.860  18.928  0.00  0.00    +0.000 A 
ATOM     16  C   UNL     1       0.557  15.230  19.413  0.00  0.00    +0.000 A 
ATOM     17  C   UNL     1      -2.149  13.147  21.256  0.00  0.00    +0.000 C 
ATOM     18  C   UNL     1      -1.661  11.756  21.993  0.00  0.00    +0.000 C 
ATOM     19  C   UNL     1       1.012   9.344  19.500  0.00  0.00    +0.000 C 
ATOM     20  H   UNL     1      -2.585  15.363  19.821  0.00  0.00    +0.000 HD
ENDROOT
BRANCH  17  21
ATOM     21  C   UNL     1      -3.422  12.817  20.310  0.00  0.00    +0.000 A 
ATOM     22  C   UNL     1      -3.314  12.139  19.052  0.00  0.00    +0.000 A 
ATOM     23  C   UNL     1      -4.384  11.402  18.529  0.00  0.00    +0.000 A 
ATOM     24  C   UNL     1      -5.654  11.532  19.048  0.00  0.00    +0.000 A 
ATOM     25  C   UNL     1      -5.833  12.386  20.131  0.00  0.00    +0.000 A 
ATOM     26  C   UNL     1      -4.743  13.033  20.753  0.00  0.00    +0.000 A 
BRANCH  24  27
ATOM     27  N   UNL     1      -6.684  10.706  18.593  0.00  0.00    +0.000 N 
ATOM     28  H   UNL     1      -7.306  10.361  19.317  0.00  0.00    +0.000 HD
ATOM     29  H   UNL     1      -6.389   9.983  17.948  0.00  0.00    +0.000 HD
ENDBRANCH  24  27
BRANCH  22  30
ATOM     30  O   UNL     1      -2.192  12.327  18.279  0.00  0.00    +0.000 OA
ATOM     31  C   UNL     1      -2.092  11.655  17.024  0.00  0.00    +0.000 C 
ENDBRANCH  22  30
BRANCH  26  32
ATOM     32  O   UNL     1      -4.921  13.975  21.726  0.00  0.00    +0.000 OA
ATOM     33  C   UNL     1      -6.209  14.088  22.313  0.00  0.00    +0.000 C 
ENDBRANCH  26  32
ENDBRANCH  17  21
BRANCH   1  35
ATOM     34  C   UNL     1       2.192   6.896  19.995  0.00  0.00    +0.000 C 
ATOM     35  C   UNL     1       1.448   7.516  21.161  0.00  0.00    +0.000 C 
ENDBRANCH   1  35
BRANCH  17  36
ATOM     36  C   UNL     1      -2.498  14.035  22.541  0.00  0.00    +0.000 C 
ATOM     37  O   UNL     1      -2.555  15.258  22.564  0.00  0.00    +0.000 OA
BRANCH  36  38
ATOM     38  O   UNL     1      -2.811  13.282  23.655  0.00  0.00    +0.000 OA
ATOM     39  C   UNL     1      -3.293  14.050  24.760  0.00  0.00    +0.000 C 
ENDBRANCH  36  38
ENDBRANCH  17  36
TORSDOF 7
ENDMDL
MODEL 6
REMARK VINA RESULT:      -6.2      1.434      2.403
REMARK  Name = 
REMARK  11 active torsions:
REMARK  status: ('A' for Active; 'I' for Inactive)
REMARK    1  A    between atoms: C_1  and  C_2
REMARK    2  A    between atoms: C_2  and  C_3
REMARK    3  A    between atoms: C_19  and  C_20
REMARK    4  A    between atoms: C_19  and  C_24
REMARK    5  A    between atoms: C_20  and  O_22
REMARK    6  A    between atoms: O_22  and  C_23
REMARK    7  A    between atoms: C_25  and  O_26
REMARK    8  A    between atoms: O_26  and  C_27
REMARK    9  A    between atoms: C_29  and  N_30
REMARK   10  A    between atoms: C_32  and  O_33
REMARK   11  A    between atoms: O_33  and  C_34
REMARK                            x       y       z     vdW  Elec       q    Type
REMARK                         _______ _______ _______ _____ _____    ______ ____
ROOT
ATOM      1  C   UNL     1      -0.214   9.974  21.565  0.00  0.00    +0.000 C 
ATOM      2  C   UNL     1      -0.479  10.824  22.597  0.00  0.00    +0.000 C 
ATOM      3  C   UNL     1      -0.988  12.222  22.263  0.00  0.00    +0.000 C 
ATOM      4  C   UNL     1      -1.727  12.131  20.954  0.00  0.00    +0.000 C 
ATOM      5  N   UNL     1      -0.873  11.725  19.870  0.00  0.00    +0.000 NA
ATOM      6  C   UNL     1       0.270  12.645  19.644  0.00  0.00    +0.000 C 
ATOM      7  C   UNL     1       0.523  14.028  20.373  0.00  0.00    +0.000 C 
ATOM      8  C   UNL     1      -0.571  15.075  20.414  0.00  0.00    +0.000 A 
ATOM      9  C   UNL     1      -1.674  15.264  21.273  0.00  0.00    +0.000 A 
ATOM     10  N   UNL     1      -2.360  16.361  20.754  0.00  0.00    +0.000 N 
ATOM     11  C   UNL     1      -1.730  16.922  19.685  0.00  0.00    +0.000 A 
ATOM     12  C   UNL     1      -2.106  18.014  18.895  0.00  0.00    +0.000 A 
ATOM     13  C   UNL     1      -1.240  18.396  17.871  0.00  0.00    +0.000 A 
ATOM     14  C   UNL     1      -0.030  17.735  17.682  0.00  0.00    +0.000 A 
ATOM     15  C   UNL     1       0.318  16.639  18.483  0.00  0.00    +0.000 A 
ATOM     16  C   UNL     1      -0.568  16.194  19.488  0.00  0.00    +0.000 A 
ATOM     17  C   UNL     1      -2.357  14.606  22.543  0.00  0.00    +0.000 C 
ATOM     18  C   UNL     1      -1.701  13.233  23.174  0.00  0.00    +0.000 C 
ATOM     19  C   UNL     1      -0.548  10.323  20.111  0.00  0.00    +0.000 C 
ATOM     20  H   UNL     1      -3.208  16.733  21.161  0.00  0.00    +0.000 HD
ENDROOT
BRANCH  17  21
ATOM     21  C   UNL     1      -3.935  14.354  22.271  0.00  0.00    +0.000 A 
ATOM     22  C   UNL     1      -4.772  15.286  21.576  0.00  0.00    +0.000 A 
ATOM     23  C   UNL     1      -5.917  14.865  20.890  0.00  0.00    +0.000 A 
ATOM     24  C   UNL     1      -6.438  13.604  21.090  0.00  0.00    +0.000 A 
ATOM     25  C   UNL     1      -5.769  12.752  21.962  0.00  0.00    +0.000 A 
ATOM     26  C   UNL     1      -4.543  13.115  22.558  0.00  0.00    +0.000 A 
BRANCH  24  27
ATOM     27  N   UNL     1      -7.509  13.158  20.313  0.00  0.00    +0.000 N 
ATOM     28  H   UNL     1      -8.242  13.844  20.162  0.00  0.00    +0.000 HD
ATOM     29  H   UNL     1      -7.869  12.248  20.577  0.00  0.00    +0.000 HD
ENDBRANCH  24  27
BRANCH  22  30
ATOM     30  O   UNL     1      -4.526  16.634  21.698  0.00  0.00    +0.000 OA
ATOM     31  C   UNL     1      -5.211  17.378  22.706  0.00  0.00    +0.000 C 
ENDBRANCH  22  30
BRANCH  26  32
ATOM     32  O   UNL     1      -3.948  12.345  23.517  0.00  0.00    +0.000 OA
ATOM     33  C   UNL     1      -4.561  12.290  24.797  0.00  0.00    +0.000 C 
ENDBRANCH  26  32
ENDBRANCH  17  21
BRANCH   1  35
ATOM     34  C   UNL     1       1.450   8.235  20.590  0.00  0.00    +0.000 C 
ATOM     35  C   UNL     1       0.428   8.599  21.648  0.00  0.00    +0.000 C 
ENDBRANCH   1  35
BRANCH  17  36
ATOM     36  C   UNL     1      -2.052  15.632  23.734  0.00  0.00    +0.000 C 
ATOM     37  O   UNL     1      -1.612  16.767  23.597  0.00  0.00    +0.000 OA
BRANCH  36  38
ATOM     38  O   UNL     1      -2.402  15.144  24.977  0.00  0.00    +0.000 OA
ATOM     39  C   UNL     1      -1.542  15.572  26.035  0.00  0.00    +0.000 C 
ENDBRANCH  36  38
ENDBRANCH  17  36
TORSDOF 7
ENDMDL
MODEL 7
REMARK VINA RESULT:      -6.1      1.683      3.001
REMARK  Name = 
REMARK  11 active torsions:
REMARK  status: ('A' for Active; 'I' for Inactive)
REMARK    1  A    between atoms: C_1  and  C_2
REMARK    2  A    between atoms: C_2  and  C_3
REMARK    3  A    between atoms: C_19  and  C_20
REMARK    4  A    between atoms: C_19  and  C_24
REMARK    5  A    between atoms: C_20  and  O_22
REMARK    6  A    between atoms: O_22  and  C_23
REMARK    7  A    between atoms: C_25  and  O_26
REMARK    8  A    between atoms: O_26  and  C_27
REMARK    9  A    between atoms: C_29  and  N_30
REMARK   10  A    between atoms: C_32  and  O_33
REMARK   11  A    between atoms: O_33  and  C_34
REMARK                            x       y       z     vdW  Elec       q    Type
REMARK                         _______ _______ _______ _____ _____    ______ ____
ROOT
ATOM      1  C   UNL     1      -0.135  10.022  22.042  0.00  0.00    +0.000 C 
ATOM      2  C   UNL     1      -0.882  10.618  23.015  0.00  0.00    +0.000 C 
ATOM      3  C   UNL     1      -1.669  11.871  22.650  0.00  0.00    +0.000 C 
ATOM      4  C   UNL     1      -2.000  11.783  21.183  0.00  0.00    +0.000 C 
ATOM      5  N   UNL     1      -0.824  11.771  20.356  0.00  0.00    +0.000 NA
ATOM      6  C   UNL     1       0.027  12.977  20.524  0.00  0.00    +0.000 C 
ATOM      7  C   UNL     1      -0.317  14.258  21.389  0.00  0.00    +0.000 C 
ATOM      8  C   UNL     1      -1.639  14.972  21.195  0.00  0.00    +0.000 A 
ATOM      9  C   UNL     1      -2.929  14.744  21.722  0.00  0.00    +0.000 A 
ATOM     10  N   UNL     1      -3.748  15.692  21.109  0.00  0.00    +0.000 N 
ATOM     11  C   UNL     1      -3.059  16.544  20.301  0.00  0.00    +0.000 A 
ATOM     12  C   UNL     1      -3.522  17.605  19.515  0.00  0.00    +0.000 A 
ATOM     13  C   UNL     1      -2.574  18.340  18.804  0.00  0.00    +0.000 A 
ATOM     14  C   UNL     1      -1.219  18.047  18.916  0.00  0.00    +0.000 A 
ATOM     15  C   UNL     1      -0.783  16.974  19.703  0.00  0.00    +0.000 A 
ATOM     16  C   UNL     1      -1.726  16.176  20.387  0.00  0.00    +0.000 A 
ATOM     17  C   UNL     1      -3.688  13.756  22.701  0.00  0.00    +0.000 C 
ATOM     18  C   UNL     1      -2.846  12.522  23.393  0.00  0.00    +0.000 C 
ATOM     19  C   UNL     1      -0.182  10.480  20.581  0.00  0.00    +0.000 C 
ATOM     20  H   UNL     1      -4.740  15.771  21.288  0.00  0.00    +0.000 HD
ENDROOT
BRANCH  17  21
ATOM     21  C   UNL     1      -5.008  13.150  21.981  0.00  0.00    +0.000 A 
ATOM     22  C   UNL     1      -5.000  12.601  20.658  0.00  0.00    +0.000 A 
ATOM     23  C   UNL     1      -5.934  11.634  20.266  0.00  0.00    +0.000 A 
ATOM     24  C   UNL     1      -7.056  11.384  21.027  0.00  0.00    +0.000 A 
ATOM     25  C   UNL     1      -7.212  12.093  22.213  0.00  0.00    +0.000 A 
ATOM     26  C   UNL     1      -6.216  12.974  22.686  0.00  0.00    +0.000 A 
BRANCH  24  27
ATOM     27  N   UNL     1      -7.915  10.339  20.684  0.00  0.00    +0.000 N 
ATOM     28  H   UNL     1      -7.972   9.591  21.368  0.00  0.00    +0.000 HD
ATOM     29  H   UNL     1      -7.807   9.999  19.736  0.00  0.00    +0.000 HD
ENDBRANCH  24  27
BRANCH  22  30
ATOM     30  O   UNL     1      -4.151  13.130  19.713  0.00  0.00    +0.000 OA
ATOM     31  C   UNL     1      -3.913  12.404  18.508  0.00  0.00    +0.000 C 
ENDBRANCH  22  30
BRANCH  26  32
ATOM     32  O   UNL     1      -6.416  13.775  23.775  0.00  0.00    +0.000 OA
ATOM     33  C   UNL     1      -7.729  13.851  24.310  0.00  0.00    +0.000 C 
ENDBRANCH  26  32
ENDBRANCH  17  21
BRANCH   1  35
ATOM     34  C   UNL     1       1.356   8.200  20.946  0.00  0.00    +0.000 C 
ATOM     35  C   UNL     1       0.832   8.861  22.205  0.00  0.00    +0.000 C 
ENDBRANCH   1  35
BRANCH  17  36
ATOM     36  C   UNL     1      -3.997  14.643  23.998  0.00  0.00    +0.000 C 
ATOM     37  O   UNL     1      -3.691  14.349  25.148  0.00  0.00    +0.000 OA
BRANCH  36  38
ATOM     38  O   UNL     1      -4.600  15.849  23.703  0.00  0.00    +0.000 OA
ATOM     39  C   UNL     1      -4.677  16.748  24.812  0.00  0.00    +0.000 C 
ENDBRANCH  36  38
ENDBRANCH  17  36
TORSDOF 7
ENDMDL
MODEL 8
REMARK VINA RESULT:      -6.1      1.426      2.690
REMARK  Name = 
REMARK  11 active torsions:
REMARK  status: ('A' for Active; 'I' for Inactive)
REMARK    1  A    between atoms: C_1  and  C_2
REMARK    2  A    between atoms: C_2  and  C_3
REMARK    3  A    between atoms: C_19  and  C_20
REMARK    4  A    between atoms: C_19  and  C_24
REMARK    5  A    between atoms: C_20  and  O_22
REMARK    6  A    between atoms: O_22  and  C_23
REMARK    7  A    between atoms: C_25  and  O_26
REMARK    8  A    between atoms: O_26  and  C_27
REMARK    9  A    between atoms: C_29  and  N_30
REMARK   10  A    between atoms: C_32  and  O_33
REMARK   11  A    between atoms: O_33  and  C_34
REMARK                            x       y       z     vdW  Elec       q    Type
REMARK                         _______ _______ _______ _____ _____    ______ ____
ROOT
ATOM      1  C   UNL     1      -0.108   9.868  21.633  0.00  0.00    +0.000 C 
ATOM      2  C   UNL     1      -0.318  10.713  22.682  0.00  0.00    +0.000 C 
ATOM      3  C   UNL     1      -0.887  12.096  22.388  0.00  0.00    +0.000 C 
ATOM      4  C   UNL     1      -1.719  11.984  21.137  0.00  0.00    +0.000 C 
ATOM      5  N   UNL     1      -0.938  11.600  19.993  0.00  0.00    +0.000 NA
ATOM      6  C   UNL     1       0.161  12.550  19.683  0.00  0.00    +0.000 C 
ATOM      7  C   UNL     1       0.430  13.940  20.393  0.00  0.00    +0.000 C 
ATOM      8  C   UNL     1      -0.685  14.958  20.516  0.00  0.00    +0.000 A 
ATOM      9  C   UNL     1      -1.726  15.118  21.455  0.00  0.00    +0.000 A 
ATOM     10  N   UNL     1      -2.478  16.196  20.990  0.00  0.00    +0.000 N 
ATOM     11  C   UNL     1      -1.944  16.772  19.877  0.00  0.00    +0.000 A 
ATOM     12  C   UNL     1      -2.407  17.853  19.118  0.00  0.00    +0.000 A 
ATOM     13  C   UNL     1      -1.629  18.256  18.033  0.00  0.00    +0.000 A 
ATOM     14  C   UNL     1      -0.419  17.627  17.754  0.00  0.00    +0.000 A 
ATOM     15  C   UNL     1       0.015  16.543  18.525  0.00  0.00    +0.000 A 
ATOM     16  C   UNL     1      -0.781  16.075  19.594  0.00  0.00    +0.000 A 
ATOM     17  C   UNL     1      -2.295  14.443  22.772  0.00  0.00    +0.000 C 
ATOM     18  C   UNL     1      -1.558  13.088  23.351  0.00  0.00    +0.000 C 
ATOM     19  C   UNL     1      -0.559  10.207  20.208  0.00  0.00    +0.000 C 
ATOM     20  H   UNL     1      -3.302  16.546  21.459  0.00  0.00    +0.000 HD
ENDROOT
BRANCH  17  21
ATOM     21  C   UNL     1      -3.881  14.149  22.617  0.00  0.00    +0.000 A 
ATOM     22  C   UNL     1      -4.435  13.352  21.563  0.00  0.00    +0.000 A 
ATOM     23  C   UNL     1      -5.649  12.674  21.725  0.00  0.00    +0.000 A 
ATOM     24  C   UNL     1      -6.490  12.969  22.777  0.00  0.00    +0.000 A 
ATOM     25  C   UNL     1      -6.077  13.930  23.693  0.00  0.00    +0.000 A 
ATOM     26  C   UNL     1      -4.800  14.527  23.617  0.00  0.00    +0.000 A 
BRANCH  24  27
ATOM     27  N   UNL     1      -7.639  12.205  22.990  0.00  0.00    +0.000 N 
ATOM     28  H   UNL     1      -7.634  11.293  22.546  0.00  0.00    +0.000 HD
ATOM     29  H   UNL     1      -8.508  12.706  22.852  0.00  0.00    +0.000 HD
ENDBRANCH  24  27
BRANCH  22  30
ATOM     30  O   UNL     1      -3.836  13.363  20.325  0.00  0.00    +0.000 OA
ATOM     31  C   UNL     1      -4.434  12.628  19.257  0.00  0.00    +0.000 C 
ENDBRANCH  22  30
BRANCH  26  32
ATOM     32  O   UNL     1      -4.438  15.567  24.426  0.00  0.00    +0.000 OA
ATOM     33  C   UNL     1      -5.348  16.648  24.564  0.00  0.00    +0.000 C 
ENDBRANCH  26  32
ENDBRANCH  17  21
BRANCH   1  35
ATOM     34  C   UNL     1       1.459   8.139  20.493  0.00  0.00    +0.000 C 
ATOM     35  C   UNL     1       0.575   8.511  21.666  0.00  0.00    +0.000 C 
ENDBRANCH   1  35
BRANCH  17  36
ATOM     36  C   UNL     1      -1.929  15.478  23.938  0.00  0.00    +0.000 C 
ATOM     37  O   UNL     1      -1.908  16.697  23.823  0.00  0.00    +0.000 OA
BRANCH  36  38
ATOM     38  O   UNL     1      -1.698  14.869  25.154  0.00  0.00    +0.000 OA
ATOM     39  C   UNL     1      -1.157  15.741  26.149  0.00  0.00    +0.000 C 
ENDBRANCH  36  38
ENDBRANCH  17  36
TORSDOF 7
ENDMDL
MODEL 9
REMARK VINA RESULT:      -6.1      2.153      6.926
REMARK  Name = 
REMARK  11 active torsions:
REMARK  status: ('A' for Active; 'I' for Inactive)
REMARK    1  A    between atoms: C_1  and  C_2
REMARK    2  A    between atoms: C_2  and  C_3
REMARK    3  A    between atoms: C_19  and  C_20
REMARK    4  A    between atoms: C_19  and  C_24
REMARK    5  A    between atoms: C_20  and  O_22
REMARK    6  A    between atoms: O_22  and  C_23
REMARK    7  A    between atoms: C_25  and  O_26
REMARK    8  A    between atoms: O_26  and  C_27
REMARK    9  A    between atoms: C_29  and  N_30
REMARK   10  A    between atoms: C_32  and  O_33
REMARK   11  A    between atoms: O_33  and  C_34
REMARK                            x       y       z     vdW  Elec       q    Type
REMARK                         _______ _______ _______ _____ _____    ______ ____
ROOT
ATOM      1  C   UNL     1      -4.495  15.945  23.650  0.00  0.00    +0.000 C 
ATOM      2  C   UNL     1      -3.618  14.955  23.982  0.00  0.00    +0.000 C 
ATOM      3  C   UNL     1      -2.977  14.155  22.853  0.00  0.00    +0.000 C 
ATOM      4  C   UNL     1      -2.911  15.053  21.646  0.00  0.00    +0.000 C 
ATOM      5  N   UNL     1      -4.215  15.452  21.190  0.00  0.00    +0.000 NA
ATOM      6  C   UNL     1      -5.085  14.308  20.815  0.00  0.00    +0.000 C 
ATOM      7  C   UNL     1      -4.659  12.784  20.755  0.00  0.00    +0.000 C 
ATOM      8  C   UNL     1      -3.433  12.369  19.966  0.00  0.00    +0.000 A 
ATOM      9  C   UNL     1      -2.060  12.341  20.290  0.00  0.00    +0.000 A 
ATOM     10  N   UNL     1      -1.416  11.934  19.123  0.00  0.00    +0.000 N 
ATOM     11  C   UNL     1      -2.284  11.630  18.118  0.00  0.00    +0.000 A 
ATOM     12  C   UNL     1      -2.026  11.203  16.810  0.00  0.00    +0.000 A 
ATOM     13  C   UNL     1      -3.125  10.929  15.995  0.00  0.00    +0.000 A 
ATOM     14  C   UNL     1      -4.420  11.037  16.491  0.00  0.00    +0.000 A 
ATOM     15  C   UNL     1      -4.649  11.474  17.802  0.00  0.00    +0.000 A 
ATOM     16  C   UNL     1      -3.558  11.815  18.630  0.00  0.00    +0.000 A 
ATOM     17  C   UNL     1      -1.084  12.668  21.496  0.00  0.00    +0.000 C 
ATOM     18  C   UNL     1      -1.721  13.270  22.891  0.00  0.00    +0.000 C 
ATOM     19  C   UNL     1      -4.736  16.369  22.198  0.00  0.00    +0.000 C 
ATOM     20  H   UNL     1      -0.414  11.825  19.046  0.00  0.00    +0.000 HD
ENDROOT
BRANCH  17  21
ATOM     21  C   UNL     1       0.114  13.643  21.005  0.00  0.00    +0.000 A 
ATOM     22  C   UNL     1       0.837  13.448  19.784  0.00  0.00    +0.000 A 
ATOM     23  C   UNL     1       1.446  14.521  19.120  0.00  0.00    +0.000 A 
ATOM     24  C   UNL     1       1.620  15.735  19.748  0.00  0.00    +0.000 A 
ATOM     25  C   UNL     1       1.136  15.875  21.045  0.00  0.00    +0.000 A 
ATOM     26  C   UNL     1       0.405  14.847  21.678  0.00  0.00    +0.000 A 
BRANCH  24  27
ATOM     27  N   UNL     1       2.121  16.826  19.036  0.00  0.00    +0.000 N 
ATOM     28  H   UNL     1       3.014  17.179  19.367  0.00  0.00    +0.000 HD
ATOM     29  H   UNL     1       1.446  17.562  18.863  0.00  0.00    +0.000 HD
ENDBRANCH  24  27
BRANCH  22  30
ATOM     30  O   UNL     1       1.055  12.170  19.326  0.00  0.00    +0.000 OA
ATOM     31  C   UNL     1       2.135  11.929  18.424  0.00  0.00    +0.000 C 
ENDBRANCH  22  30
BRANCH  26  32
ATOM     32  O   UNL     1       0.045  14.920  22.994  0.00  0.00    +0.000 OA
ATOM     33  C   UNL     1       0.057  16.197  23.615  0.00  0.00    +0.000 C 
ENDBRANCH  26  32
ENDBRANCH  17  21
BRANCH   1  35
ATOM     34  C   UNL     1      -4.685  17.906  25.342  0.00  0.00    +0.000 C 
ATOM     35  C   UNL     1      -5.353  16.769  24.595  0.00  0.00    +0.000 C 
ENDBRANCH   1  35
BRANCH  17  36
ATOM     36  C   UNL     1      -0.595  11.234  22.011  0.00  0.00    +0.000 C 
ATOM     37  O   UNL     1      -0.255  10.969  23.158  0.00  0.00    +0.000 OA
BRANCH  36  38
ATOM     38  O   UNL     1      -0.652  10.256  21.038  0.00  0.00    +0.000 OA
ATOM     39  C   UNL     1      -0.333   8.945  21.509  0.00  0.00    +0.000 C 
ENDBRANCH  36  38
ENDBRANCH  17  36
TORSDOF 7
ENDMDL
