MODEL 1
REMARK VINA RESULT:      -8.1      0.000      0.000
REMARK  Name = 
REMARK  3 active torsions:
REMARK  status: ('A' for Active; 'I' for Inactive)
REMARK    1  A    between atoms: C_1  and  C_2
REMARK    2  A    between atoms: C_10  and  C_11
REMARK    3  A    between atoms: C_11  and  N_12
REMARK                            x       y       z     vdW  Elec       q    Type
REMARK                         _______ _______ _______ _____ _____    ______ ____
ROOT
ATOM      1  C   UNL     1       5.286   2.756  11.707  0.00  0.00    +0.000 C 
ATOM      2  C   UNL     1       5.880   3.587  12.803  0.00  0.00    +0.000 A 
ATOM      3  C   UNL     1       7.054   4.316  12.566  0.00  0.00    +0.000 A 
ATOM      4  C   UNL     1       7.614   5.081  13.578  0.00  0.00    +0.000 A 
ATOM      5  C   UNL     1       6.992   5.115  14.824  0.00  0.00    +0.000 A 
ATOM      6  O   UNL     1       7.632   5.917  15.790  0.00  0.00    +0.000 OA
ATOM      7  C   UNL     1       7.116   6.031  17.062  0.00  0.00    +0.000 A 
ATOM      8  O   UNL     1       7.646   6.722  17.928  0.00  0.00    +0.000 OA
ATOM      9  C   UNL     1       5.870   5.307  17.342  0.00  0.00    +0.000 A 
ATOM     10  C   UNL     1       5.226   4.529  16.455  0.00  0.00    +0.000 A 
ATOM     11  C   UNL     1       5.821   4.407  15.108  0.00  0.00    +0.000 A 
ATOM     12  C   UNL     1       5.268   3.643  14.071  0.00  0.00    +0.000 A 
ENDROOT
BRANCH  10  13
ATOM     13  C   UNL     1       3.878   3.941  16.823  0.00  0.00    +0.000 C 
BRANCH  13  14
ATOM     14  N   UNL     1       3.475   3.915  18.250  0.00  0.00    +0.000 NA
ATOM     15  C   UNL     1       2.524   5.000  18.545  0.00  0.00    +0.000 C 
ATOM     16  C   UNL     1       1.780   4.875  19.878  0.00  0.00    +0.000 C 
ATOM     17  C   UNL     1       1.153   3.506  20.075  0.00  0.00    +0.000 C 
ATOM     18  C   UNL     1       2.179   2.411  19.854  0.00  0.00    +0.000 C 
ATOM     19  C   UNL     1       2.924   2.573  18.530  0.00  0.00    +0.000 C 
ENDBRANCH  13  14
ENDBRANCH  10  13
TORSDOF 2
ENDMDL
MODEL 2
REMARK VINA RESULT:      -7.5      1.274      2.046
REMARK  Name = 
REMARK  3 active torsions:
REMARK  status: ('A' for Active; 'I' for Inactive)
REMARK    1  A    between atoms: C_1  and  C_2
REMARK    2  A    between atoms: C_10  and  C_11
REMARK    3  A    between atoms: C_11  and  N_12
REMARK                            x       y       z     vdW  Elec       q    Type
REMARK                         _______ _______ _______ _____ _____    ______ ____
ROOT
ATOM      1  C   UNL     1       5.008   3.976  12.948  0.00  0.00    +0.000 C 
ATOM      2  C   UNL     1       5.602   4.266  14.293  0.00  0.00    +0.000 A 
ATOM      3  C   UNL     1       6.993   4.220  14.464  0.00  0.00    +0.000 A 
ATOM      4  C   UNL     1       7.550   4.480  15.707  0.00  0.00    +0.000 A 
ATOM      5  C   UNL     1       6.709   4.787  16.775  0.00  0.00    +0.000 A 
ATOM      6  O   UNL     1       7.363   5.034  17.998  0.00  0.00    +0.000 OA
ATOM      7  C   UNL     1       6.641   5.348  19.130  0.00  0.00    +0.000 A 
ATOM      8  O   UNL     1       7.177   5.571  20.211  0.00  0.00    +0.000 OA
ATOM      9  C   UNL     1       5.183   5.436  18.986  0.00  0.00    +0.000 A 
ATOM     10  C   UNL     1       4.516   5.206  17.841  0.00  0.00    +0.000 A 
ATOM     11  C   UNL     1       5.318   4.846  16.653  0.00  0.00    +0.000 A 
ATOM     12  C   UNL     1       4.774   4.586  15.388  0.00  0.00    +0.000 A 
ENDROOT
BRANCH  10  13
ATOM     13  C   UNL     1       3.022   5.458  17.788  0.00  0.00    +0.000 C 
BRANCH  13  14
ATOM     14  N   UNL     1       2.104   4.438  18.351  0.00  0.00    +0.000 NA
ATOM     15  C   UNL     1       2.676   3.088  18.216  0.00  0.00    +0.000 C 
ATOM     16  C   UNL     1       1.992   2.002  19.053  0.00  0.00    +0.000 C 
ATOM     17  C   UNL     1       1.823   2.400  20.509  0.00  0.00    +0.000 C 
ATOM     18  C   UNL     1       1.149   3.755  20.617  0.00  0.00    +0.000 C 
ATOM     19  C   UNL     1       1.833   4.814  19.755  0.00  0.00    +0.000 C 
ENDBRANCH  13  14
ENDBRANCH  10  13
TORSDOF 2
ENDMDL
MODEL 3
REMARK VINA RESULT:      -7.4      3.385      6.591
REMARK  Name = 
REMARK  3 active torsions:
REMARK  status: ('A' for Active; 'I' for Inactive)
REMARK    1  A    between atoms: C_1  and  C_2
REMARK    2  A    between atoms: C_10  and  C_11
REMARK    3  A    between atoms: C_11  and  N_12
REMARK                            x       y       z     vdW  Elec       q    Type
REMARK                         _______ _______ _______ _____ _____    ______ ____
ROOT
ATOM      1  C   UNL     1       2.298   9.035  17.794  0.00  0.00    +0.000 C 
ATOM      2  C   UNL     1       2.243   7.865  18.728  0.00  0.00    +0.000 A 
ATOM      3  C   UNL     1       1.534   7.968  19.934  0.00  0.00    +0.000 A 
ATOM      4  C   UNL     1       1.485   6.893  20.807  0.00  0.00    +0.000 A 
ATOM      5  C   UNL     1       2.145   5.714  20.467  0.00  0.00    +0.000 A 
ATOM      6  O   UNL     1       2.042   4.676  21.414  0.00  0.00    +0.000 OA
ATOM      7  C   UNL     1       2.653   3.460  21.194  0.00  0.00    +0.000 A 
ATOM      8  O   UNL     1       2.582   2.534  21.996  0.00  0.00    +0.000 OA
ATOM      9  C   UNL     1       3.381   3.301  19.930  0.00  0.00    +0.000 A 
ATOM     10  C   UNL     1       3.509   4.262  18.998  0.00  0.00    +0.000 A 
ATOM     11  C   UNL     1       2.864   5.562  19.278  0.00  0.00    +0.000 A 
ATOM     12  C   UNL     1       2.898   6.659  18.406  0.00  0.00    +0.000 A 
ENDROOT
BRANCH  10  13
ATOM     13  C   UNL     1       4.172   3.932  17.676  0.00  0.00    +0.000 C 
BRANCH  13  14
ATOM     14  N   UNL     1       5.580   4.346  17.458  0.00  0.00    +0.000 NA
ATOM     15  C   UNL     1       5.666   5.378  16.411  0.00  0.00    +0.000 C 
ATOM     16  C   UNL     1       7.003   6.122  16.335  0.00  0.00    +0.000 C 
ATOM     17  C   UNL     1       7.461   6.648  17.683  0.00  0.00    +0.000 C 
ATOM     18  C   UNL     1       7.448   5.541  18.721  0.00  0.00    +0.000 C 
ATOM     19  C   UNL     1       6.114   4.798  18.760  0.00  0.00    +0.000 C 
ENDBRANCH  13  14
ENDBRANCH  10  13
TORSDOF 2
ENDMDL
MODEL 4
REMARK VINA RESULT:      -7.4      2.553      4.924
REMARK  Name = 
REMARK  3 active torsions:
REMARK  status: ('A' for Active; 'I' for Inactive)
REMARK    1  A    between atoms: C_1  and  C_2
REMARK    2  A    between atoms: C_10  and  C_11
REMARK    3  A    between atoms: C_11  and  N_12
REMARK                            x       y       z     vdW  Elec       q    Type
REMARK                         _______ _______ _______ _____ _____    ______ ____
ROOT
ATOM      1  C   UNL     1       1.303   7.569  20.875  0.00  0.00    +0.000 C 
ATOM      2  C   UNL     1       2.183   7.370  19.679  0.00  0.00    +0.000 A 
ATOM      3  C   UNL     1       2.256   8.366  18.694  0.00  0.00    +0.000 A 
ATOM      4  C   UNL     1       3.062   8.186  17.581  0.00  0.00    +0.000 A 
ATOM      5  C   UNL     1       3.796   7.007  17.460  0.00  0.00    +0.000 A 
ATOM      6  O   UNL     1       4.585   6.911  16.297  0.00  0.00    +0.000 OA
ATOM      7  C   UNL     1       5.356   5.793  16.061  0.00  0.00    +0.000 A 
ATOM      8  O   UNL     1       6.056   5.676  15.060  0.00  0.00    +0.000 OA
ATOM      9  C   UNL     1       5.330   4.740  17.083  0.00  0.00    +0.000 A 
ATOM     10  C   UNL     1       4.592   4.785  18.206  0.00  0.00    +0.000 A 
ATOM     11  C   UNL     1       3.757   5.987  18.415  0.00  0.00    +0.000 A 
ATOM     12  C   UNL     1       2.940   6.190  19.535  0.00  0.00    +0.000 A 
ENDROOT
BRANCH  10  13
ATOM     13  C   UNL     1       4.753   3.696  19.247  0.00  0.00    +0.000 C 
BRANCH  13  14
ATOM     14  N   UNL     1       3.594   2.822  19.554  0.00  0.00    +0.000 NA
ATOM     15  C   UNL     1       2.955   3.226  20.818  0.00  0.00    +0.000 C 
ATOM     16  C   UNL     1       1.565   2.631  21.067  0.00  0.00    +0.000 C 
ATOM     17  C   UNL     1       0.631   2.803  19.883  0.00  0.00    +0.000 C 
ATOM     18  C   UNL     1       1.282   2.295  18.610  0.00  0.00    +0.000 C 
ATOM     19  C   UNL     1       2.676   2.883  18.397  0.00  0.00    +0.000 C 
ENDBRANCH  13  14
ENDBRANCH  10  13
TORSDOF 2
ENDMDL
MODEL 5
REMARK VINA RESULT:      -7.4      3.101      5.166
REMARK  Name = 
REMARK  3 active torsions:
REMARK  status: ('A' for Active; 'I' for Inactive)
REMARK    1  A    between atoms: C_1  and  C_2
REMARK    2  A    between atoms: C_10  and  C_11
REMARK    3  A    between atoms: C_11  and  N_12
REMARK                            x       y       z     vdW  Elec       q    Type
REMARK                         _______ _______ _______ _____ _____    ______ ____
ROOT
ATOM      1  C   UNL     1       0.627   2.424  18.807  0.00  0.00    +0.000 C 
ATOM      2  C   UNL     1       1.854   3.145  18.339  0.00  0.00    +0.000 A 
ATOM      3  C   UNL     1       2.986   2.415  17.949  0.00  0.00    +0.000 A 
ATOM      4  C   UNL     1       4.127   3.075  17.522  0.00  0.00    +0.000 A 
ATOM      5  C   UNL     1       4.130   4.468  17.484  0.00  0.00    +0.000 A 
ATOM      6  O   UNL     1       5.332   5.051  17.039  0.00  0.00    +0.000 OA
ATOM      7  C   UNL     1       5.461   6.421  16.958  0.00  0.00    +0.000 A 
ATOM      8  O   UNL     1       6.492   6.964  16.573  0.00  0.00    +0.000 OA
ATOM      9  C   UNL     1       4.288   7.222  17.329  0.00  0.00    +0.000 A 
ATOM     10  C   UNL     1       3.122   6.711  17.762  0.00  0.00    +0.000 A 
ATOM     11  C   UNL     1       3.027   5.239  17.861  0.00  0.00    +0.000 A 
ATOM     12  C   UNL     1       1.881   4.554  18.286  0.00  0.00    +0.000 A 
ENDROOT
BRANCH  10  13
ATOM     13  C   UNL     1       1.942   7.635  17.987  0.00  0.00    +0.000 C 
BRANCH  13  14
ATOM     14  N   UNL     1       1.966   8.555  19.151  0.00  0.00    +0.000 NA
ATOM     15  C   UNL     1       1.051   9.689  18.939  0.00  0.00    +0.000 C 
ATOM     16  C   UNL     1       0.731  10.514  20.191  0.00  0.00    +0.000 C 
ATOM     17  C   UNL     1       0.302   9.655  21.367  0.00  0.00    +0.000 C 
ATOM     18  C   UNL     1       1.311   8.549  21.617  0.00  0.00    +0.000 C 
ATOM     19  C   UNL     1       1.631   7.758  20.350  0.00  0.00    +0.000 C 
ENDBRANCH  13  14
ENDBRANCH  10  13
TORSDOF 2
ENDMDL
MODEL 6
REMARK VINA RESULT:      -7.2      3.213      5.043
REMARK  Name = 
REMARK  3 active torsions:
REMARK  status: ('A' for Active; 'I' for Inactive)
REMARK    1  A    between atoms: C_1  and  C_2
REMARK    2  A    between atoms: C_10  and  C_11
REMARK    3  A    between atoms: C_11  and  N_12
REMARK                            x       y       z     vdW  Elec       q    Type
REMARK                         _______ _______ _______ _____ _____    ______ ____
ROOT
ATOM      1  C   UNL     1       7.705   7.706  17.355  0.00  0.00    +0.000 C 
ATOM      2  C   UNL     1       6.730   6.576  17.227  0.00  0.00    +0.000 A 
ATOM      3  C   UNL     1       7.024   5.493  16.387  0.00  0.00    +0.000 A 
ATOM      4  C   UNL     1       6.123   4.448  16.258  0.00  0.00    +0.000 A 
ATOM      5  C   UNL     1       4.929   4.490  16.975  0.00  0.00    +0.000 A 
ATOM      6  O   UNL     1       4.075   3.387  16.780  0.00  0.00    +0.000 OA
ATOM      7  C   UNL     1       2.863   3.312  17.433  0.00  0.00    +0.000 A 
ATOM      8  O   UNL     1       2.096   2.365  17.288  0.00  0.00    +0.000 OA
ATOM      9  C   UNL     1       2.531   4.412  18.346  0.00  0.00    +0.000 A 
ATOM     10  C   UNL     1       3.311   5.485  18.561  0.00  0.00    +0.000 A 
ATOM     11  C   UNL     1       4.591   5.546  17.825  0.00  0.00    +0.000 A 
ATOM     12  C   UNL     1       5.517   6.591  17.947  0.00  0.00    +0.000 A 
ENDROOT
BRANCH  10  13
ATOM     13  C   UNL     1       2.919   6.487  19.628  0.00  0.00    +0.000 C 
BRANCH  13  14
ATOM     14  N   UNL     1       1.813   7.436  19.346  0.00  0.00    +0.000 NA
ATOM     15  C   UNL     1       1.494   8.236  20.540  0.00  0.00    +0.000 C 
ATOM     16  C   UNL     1       0.619   9.468  20.287  0.00  0.00    +0.000 C 
ATOM     17  C   UNL     1       1.135  10.333  19.150  0.00  0.00    +0.000 C 
ATOM     18  C   UNL     1       1.370   9.496  17.906  0.00  0.00    +0.000 C 
ATOM     19  C   UNL     1       2.223   8.261  18.190  0.00  0.00    +0.000 C 
ENDBRANCH  13  14
ENDBRANCH  10  13
TORSDOF 2
ENDMDL
MODEL 7
REMARK VINA RESULT:      -7.2      2.994      6.672
REMARK  Name = 
REMARK  3 active torsions:
REMARK  status: ('A' for Active; 'I' for Inactive)
REMARK    1  A    between atoms: C_1  and  C_2
REMARK    2  A    between atoms: C_10  and  C_11
REMARK    3  A    between atoms: C_11  and  N_12
REMARK                            x       y       z     vdW  Elec       q    Type
REMARK                         _______ _______ _______ _____ _____    ______ ____
ROOT
ATOM      1  C   UNL     1       2.187   9.185  17.808  0.00  0.00    +0.000 C 
ATOM      2  C   UNL     1       2.138   8.005  18.730  0.00  0.00    +0.000 A 
ATOM      3  C   UNL     1       1.574   8.140  20.006  0.00  0.00    +0.000 A 
ATOM      4  C   UNL     1       1.531   7.054  20.867  0.00  0.00    +0.000 A 
ATOM      5  C   UNL     1       2.054   5.834  20.444  0.00  0.00    +0.000 A 
ATOM      6  O   UNL     1       1.969   4.789  21.385  0.00  0.00    +0.000 OA
ATOM      7  C   UNL     1       2.452   3.533  21.086  0.00  0.00    +0.000 A 
ATOM      8  O   UNL     1       2.393   2.599  21.880  0.00  0.00    +0.000 OA
ATOM      9  C   UNL     1       3.024   3.341  19.748  0.00  0.00    +0.000 A 
ATOM     10  C   UNL     1       3.129   4.308  18.819  0.00  0.00    +0.000 A 
ATOM     11  C   UNL     1       2.625   5.649  19.182  0.00  0.00    +0.000 A 
ATOM     12  C   UNL     1       2.654   6.757  18.324  0.00  0.00    +0.000 A 
ENDROOT
BRANCH  10  13
ATOM     13  C   UNL     1       3.616   3.953  17.429  0.00  0.00    +0.000 C 
BRANCH  13  14
ATOM     14  N   UNL     1       4.667   4.793  16.803  0.00  0.00    +0.000 NA
ATOM     15  C   UNL     1       5.880   4.820  17.637  0.00  0.00    +0.000 C 
ATOM     16  C   UNL     1       7.136   5.363  16.947  0.00  0.00    +0.000 C 
ATOM     17  C   UNL     1       7.393   4.714  15.598  0.00  0.00    +0.000 C 
ATOM     18  C   UNL     1       6.152   4.782  14.727  0.00  0.00    +0.000 C 
ATOM     19  C   UNL     1       4.909   4.259  15.446  0.00  0.00    +0.000 C 
ENDBRANCH  13  14
ENDBRANCH  10  13
TORSDOF 2
ENDMDL
MODEL 8
REMARK VINA RESULT:      -7.2      1.313      2.021
REMARK  Name = 
REMARK  3 active torsions:
REMARK  status: ('A' for Active; 'I' for Inactive)
REMARK    1  A    between atoms: C_1  and  C_2
REMARK    2  A    between atoms: C_10  and  C_11
REMARK    3  A    between atoms: C_11  and  N_12
REMARK                            x       y       z     vdW  Elec       q    Type
REMARK                         _______ _______ _______ _____ _____    ______ ____
ROOT
ATOM      1  C   UNL     1       5.152   3.592  12.555  0.00  0.00    +0.000 C 
ATOM      2  C   UNL     1       5.784   4.040  13.837  0.00  0.00    +0.000 A 
ATOM      3  C   UNL     1       7.046   4.650  13.817  0.00  0.00    +0.000 A 
ATOM      4  C   UNL     1       7.640   5.060  15.000  0.00  0.00    +0.000 A 
ATOM      5  C   UNL     1       6.965   4.860  16.202  0.00  0.00    +0.000 A 
ATOM      6  O   UNL     1       7.645   5.306  17.352  0.00  0.00    +0.000 OA
ATOM      7  C   UNL     1       7.082   5.163  18.602  0.00  0.00    +0.000 A 
ATOM      8  O   UNL     1       7.645   5.541  19.624  0.00  0.00    +0.000 OA
ATOM      9  C   UNL     1       5.747   4.555  18.664  0.00  0.00    +0.000 A 
ATOM     10  C   UNL     1       5.062   4.112  17.596  0.00  0.00    +0.000 A 
ATOM     11  C   UNL     1       5.706   4.258  16.274  0.00  0.00    +0.000 A 
ATOM     12  C   UNL     1       5.119   3.854  15.067  0.00  0.00    +0.000 A 
ENDROOT
BRANCH  10  13
ATOM     13  C   UNL     1       3.637   3.627  17.776  0.00  0.00    +0.000 C 
BRANCH  13  14
ATOM     14  N   UNL     1       2.620   4.572  18.298  0.00  0.00    +0.000 NA
ATOM     15  C   UNL     1       2.448   4.407  19.751  0.00  0.00    +0.000 C 
ATOM     16  C   UNL     1       1.690   5.538  20.453  0.00  0.00    +0.000 C 
ATOM     17  C   UNL     1       2.229   6.913  20.103  0.00  0.00    +0.000 C 
ATOM     18  C   UNL     1       2.309   7.088  18.597  0.00  0.00    +0.000 C 
ATOM     19  C   UNL     1       3.047   5.935  17.918  0.00  0.00    +0.000 C 
ENDBRANCH  13  14
ENDBRANCH  10  13
TORSDOF 2
ENDMDL
MODEL 9
REMARK VINA RESULT:      -7.1      1.269      1.893
REMARK  Name = 
REMARK  3 active torsions:
REMARK  status: ('A' for Active; 'I' for Inactive)
REMARK    1  A    between atoms: C_1  and  C_2
REMARK    2  A    between atoms: C_10  and  C_11
REMARK    3  A    between atoms: C_11  and  N_12
REMARK                            x       y       z     vdW  Elec       q    Type
REMARK                         _______ _______ _______ _____ _____    ______ ____
ROOT
ATOM      1  C   UNL     1       5.337   3.696  12.431  0.00  0.00    +0.000 C 
ATOM      2  C   UNL     1       5.756   4.079  13.817  0.00  0.00    +0.000 A 
ATOM      3  C   UNL     1       7.007   4.674  14.028  0.00  0.00    +0.000 A 
ATOM      4  C   UNL     1       7.404   5.025  15.309  0.00  0.00    +0.000 A 
ATOM      5  C   UNL     1       6.543   4.780  16.376  0.00  0.00    +0.000 A 
ATOM      6  O   UNL     1       7.030   5.168  17.640  0.00  0.00    +0.000 OA
ATOM      7  C   UNL     1       6.272   4.976  18.775  0.00  0.00    +0.000 A 
ATOM      8  O   UNL     1       6.664   5.303  19.891  0.00  0.00    +0.000 OA
ATOM      9  C   UNL     1       4.942   4.383  18.594  0.00  0.00    +0.000 A 
ATOM     10  C   UNL     1       4.436   3.995  17.410  0.00  0.00    +0.000 A 
ATOM     11  C   UNL     1       5.286   4.191  16.217  0.00  0.00    +0.000 A 
ATOM     12  C   UNL     1       4.900   3.848  14.914  0.00  0.00    +0.000 A 
ENDROOT
BRANCH  10  13
ATOM     13  C   UNL     1       2.999   3.520  17.336  0.00  0.00    +0.000 C 
BRANCH  13  14
ATOM     14  N   UNL     1       2.213   3.418  18.590  0.00  0.00    +0.000 NA
ATOM     15  C   UNL     1       2.889   2.542  19.561  0.00  0.00    +0.000 C 
ATOM     16  C   UNL     1       2.361   2.627  20.997  0.00  0.00    +0.000 C 
ATOM     17  C   UNL     1       2.259   4.055  21.503  0.00  0.00    +0.000 C 
ATOM     18  C   UNL     1       1.480   4.914  20.524  0.00  0.00    +0.000 C 
ATOM     19  C   UNL     1       2.009   4.792  19.096  0.00  0.00    +0.000 C 
ENDBRANCH  13  14
ENDBRANCH  10  13
TORSDOF 2
ENDMDL
