MODEL 1
REMARK VINA RESULT:      -8.3      0.000      0.000
REMARK  Name = 
REMARK  7 active torsions:
REMARK  status: ('A' for Active; 'I' for Inactive)
REMARK    1  A    between atoms: C_2  and  C_3
REMARK    2  A    between atoms: N_7  and  C_8
REMARK    3  A    between atoms: C_8  and  C_9
REMARK    4  A    between atoms: C_17  and  N_18
REMARK    5  A    between atoms: N_18  and  C_19
REMARK    6  A    between atoms: C_19  and  C_20
REMARK    7  A    between atoms: C_26  and  N_27
REMARK                            x       y       z     vdW  Elec       q    Type
REMARK                         _______ _______ _______ _____ _____    ______ ____
ROOT
ATOM      1  C   UNL     1       2.112   8.542  18.652  0.00  0.00    +0.000 A 
ATOM      2  C   UNL     1       1.429   9.639  18.184  0.00  0.00    +0.000 A 
ATOM      3  N   UNL     1       0.560  10.355  18.925  0.00  0.00    +0.000 NA
ATOM      4  C   UNL     1       0.358   9.944  20.179  0.00  0.00    +0.000 A 
ATOM      5  N   UNL     1      -0.637  10.614  20.851  0.00  0.00    +0.000 N 
ATOM      6  N   UNL     1       0.990   8.892  20.727  0.00  0.00    +0.000 NA
ATOM      7  C   UNL     1       1.856   8.179  19.965  0.00  0.00    +0.000 A 
ATOM      8  H   UNL     1      -0.875  11.445  20.322  0.00  0.00    +0.000 HD
ENDROOT
BRANCH   1  10
ATOM      9  N   UNL     1       3.703   7.243  17.086  0.00  0.00    +0.000 NA
ATOM     10  C   UNL     1       2.967   7.812  17.784  0.00  0.00    +0.000 C 
ENDBRANCH   1  10
BRANCH   7  11
ATOM     11  N   UNL     1       2.459   7.013  20.501  0.00  0.00    +0.000 N 
ATOM     12  H   UNL     1       2.917   7.223  21.385  0.00  0.00    +0.000 HD
BRANCH  11  13
ATOM     13  C   UNL     1       1.569   5.859  20.572  0.00  0.00    +0.000 C 
BRANCH  13  14
ATOM     14  C   UNL     1       2.106   4.612  19.822  0.00  0.00    +0.000 C 
ATOM     15  C   UNL     1       1.494   4.680  18.394  0.00  0.00    +0.000 C 
ATOM     16  C   UNL     1       2.000   3.533  17.516  0.00  0.00    +0.000 C 
ATOM     17  C   UNL     1       3.530   3.632  17.424  0.00  0.00    +0.000 C 
ATOM     18  C   UNL     1       4.157   3.473  18.822  0.00  0.00    +0.000 C 
ATOM     19  C   UNL     1       3.654   4.628  19.714  0.00  0.00    +0.000 C 
ATOM     20  C   UNL     1       3.744   2.130  19.469  0.00  0.00    +0.000 C 
ATOM     21  C   UNL     1       2.198   2.074  19.561  0.00  0.00    +0.000 C 
ATOM     22  C   UNL     1       1.576   2.204  18.156  0.00  0.00    +0.000 C 
ATOM     23  C   UNL     1       1.696   3.253  20.446  0.00  0.00    +0.000 C 
BRANCH  20  24
ATOM     24  N   UNL     1       4.310   0.993  18.735  0.00  0.00    +0.000 NA
ATOM     25  H   UNL     1       5.231   0.747  19.090  0.00  0.00    +0.000 HD
ATOM     26  H   UNL     1       4.442   1.242  17.755  0.00  0.00    +0.000 HD
ENDBRANCH  20  24
ENDBRANCH  13  14
ENDBRANCH  11  13
ENDBRANCH   7  11
BRANCH   5  27
ATOM     27  C   UNL     1      -0.522  10.809  22.281  0.00  0.00    +0.000 C 
BRANCH  27  28
ATOM     28  C   UNL     1      -1.332  12.034  22.663  0.00  0.00    +0.000 A 
ATOM     29  C   UNL     1      -2.555  11.817  23.334  0.00  0.00    +0.000 A 
ATOM     30  C   UNL     1      -3.372  12.878  23.724  0.00  0.00    +0.000 A 
ATOM     31  C   UNL     1      -2.984  14.185  23.458  0.00  0.00    +0.000 A 
ATOM     32  C   UNL     1      -1.779  14.427  22.803  0.00  0.00    +0.000 A 
ATOM     33  C   UNL     1      -0.954  13.360  22.407  0.00  0.00    +0.000 A 
ATOM     34 BR   UNL     1       0.659  13.821  21.516  0.00  0.00    +0.000 Br
ENDBRANCH  27  28
ENDBRANCH   5  27
TORSDOF 7
ENDMDL
MODEL 2
REMARK VINA RESULT:      -8.2      1.055      1.518
REMARK  Name = 
REMARK  7 active torsions:
REMARK  status: ('A' for Active; 'I' for Inactive)
REMARK    1  A    between atoms: C_2  and  C_3
REMARK    2  A    between atoms: N_7  and  C_8
REMARK    3  A    between atoms: C_8  and  C_9
REMARK    4  A    between atoms: C_17  and  N_18
REMARK    5  A    between atoms: N_18  and  C_19
REMARK    6  A    between atoms: C_19  and  C_20
REMARK    7  A    between atoms: C_26  and  N_27
REMARK                            x       y       z     vdW  Elec       q    Type
REMARK                         _______ _______ _______ _____ _____    ______ ____
ROOT
ATOM      1  C   UNL     1       2.267   8.493  18.520  0.00  0.00    +0.000 A 
ATOM      2  C   UNL     1       1.604   9.560  17.961  0.00  0.00    +0.000 A 
ATOM      3  N   UNL     1       0.667  10.282  18.606  0.00  0.00    +0.000 NA
ATOM      4  C   UNL     1       0.372   9.909  19.853  0.00  0.00    +0.000 A 
ATOM      5  N   UNL     1      -0.685  10.579  20.421  0.00  0.00    +0.000 N 
ATOM      6  N   UNL     1       0.976   8.888  20.485  0.00  0.00    +0.000 NA
ATOM      7  C   UNL     1       1.913   8.168  19.819  0.00  0.00    +0.000 A 
ATOM      8  H   UNL     1      -0.895  11.388  19.847  0.00  0.00    +0.000 HD
ENDROOT
BRANCH   1  10
ATOM      9  N   UNL     1       3.935   7.110  17.114  0.00  0.00    +0.000 NA
ATOM     10  C   UNL     1       3.202   7.753  17.747  0.00  0.00    +0.000 C 
ENDBRANCH   1  10
BRANCH   7  11
ATOM     11  N   UNL     1       2.491   7.033  20.441  0.00  0.00    +0.000 N 
ATOM     12  H   UNL     1       2.910   7.289  21.332  0.00  0.00    +0.000 HD
BRANCH  11  13
ATOM     13  C   UNL     1       1.599   5.881  20.532  0.00  0.00    +0.000 C 
BRANCH  13  14
ATOM     14  C   UNL     1       2.134   4.621  19.803  0.00  0.00    +0.000 C 
ATOM     15  C   UNL     1       1.530   4.668  18.372  0.00  0.00    +0.000 C 
ATOM     16  C   UNL     1       2.035   3.506  17.515  0.00  0.00    +0.000 C 
ATOM     17  C   UNL     1       3.566   3.596  17.428  0.00  0.00    +0.000 C 
ATOM     18  C   UNL     1       4.186   3.457  18.832  0.00  0.00    +0.000 C 
ATOM     19  C   UNL     1       3.683   4.629  19.703  0.00  0.00    +0.000 C 
ATOM     20  C   UNL     1       3.764   2.126  19.498  0.00  0.00    +0.000 C 
ATOM     21  C   UNL     1       2.217   2.079  19.583  0.00  0.00    +0.000 C 
ATOM     22  C   UNL     1       1.602   2.189  18.174  0.00  0.00    +0.000 C 
ATOM     23  C   UNL     1       1.716   3.273  20.447  0.00  0.00    +0.000 C 
BRANCH  20  24
ATOM     24  N   UNL     1       4.329   0.976  18.785  0.00  0.00    +0.000 NA
ATOM     25  H   UNL     1       5.295   0.811  19.057  0.00  0.00    +0.000 HD
ATOM     26  H   UNL     1       4.345   1.161  17.783  0.00  0.00    +0.000 HD
ENDBRANCH  20  24
ENDBRANCH  13  14
ENDBRANCH  11  13
ENDBRANCH   7  11
BRANCH   5  27
ATOM     27  C   UNL     1      -0.689  10.823  21.847  0.00  0.00    +0.000 C 
BRANCH  27  28
ATOM     28  C   UNL     1      -0.619  12.322  22.077  0.00  0.00    +0.000 A 
ATOM     29  C   UNL     1       0.496  13.006  21.545  0.00  0.00    +0.000 A 
ATOM     30  C   UNL     1       0.652  14.383  21.705  0.00  0.00    +0.000 A 
ATOM     31  C   UNL     1      -0.307  15.113  22.396  0.00  0.00    +0.000 A 
ATOM     32  C   UNL     1      -1.420  14.463  22.925  0.00  0.00    +0.000 A 
ATOM     33  C   UNL     1      -1.579  13.075  22.766  0.00  0.00    +0.000 A 
ATOM     34 BR   UNL     1      -3.135  12.307  23.540  0.00  0.00    +0.000 Br
ENDBRANCH  27  28
ENDBRANCH   5  27
TORSDOF 7
ENDMDL
MODEL 3
REMARK VINA RESULT:      -8.0      0.643      1.530
REMARK  Name = 
REMARK  7 active torsions:
REMARK  status: ('A' for Active; 'I' for Inactive)
REMARK    1  A    between atoms: C_2  and  C_3
REMARK    2  A    between atoms: N_7  and  C_8
REMARK    3  A    between atoms: C_8  and  C_9
REMARK    4  A    between atoms: C_17  and  N_18
REMARK    5  A    between atoms: N_18  and  C_19
REMARK    6  A    between atoms: C_19  and  C_20
REMARK    7  A    between atoms: C_26  and  N_27
REMARK                            x       y       z     vdW  Elec       q    Type
REMARK                         _______ _______ _______ _____ _____    ______ ____
ROOT
ATOM      1  C   UNL     1       1.811   8.853  18.839  0.00  0.00    +0.000 A 
ATOM      2  C   UNL     1       1.126   9.953  18.379  0.00  0.00    +0.000 A 
ATOM      3  N   UNL     1       0.273  10.675  19.132  0.00  0.00    +0.000 NA
ATOM      4  C   UNL     1       0.088  10.268  20.390  0.00  0.00    +0.000 A 
ATOM      5  N   UNL     1      -0.893  10.943  21.076  0.00  0.00    +0.000 N 
ATOM      6  N   UNL     1       0.722   9.213  20.929  0.00  0.00    +0.000 NA
ATOM      7  C   UNL     1       1.573   8.494  20.156  0.00  0.00    +0.000 A 
ATOM      8  H   UNL     1      -1.135  11.775  20.549  0.00  0.00    +0.000 HD
ENDROOT
BRANCH   1  10
ATOM      9  N   UNL     1       3.365   7.508  17.275  0.00  0.00    +0.000 NA
ATOM     10  C   UNL     1       2.649   8.117  17.959  0.00  0.00    +0.000 C 
ENDBRANCH   1  10
BRANCH   7  11
ATOM     11  N   UNL     1       2.177   7.326  20.685  0.00  0.00    +0.000 N 
ATOM     12  H   UNL     1       2.579   7.516  21.600  0.00  0.00    +0.000 HD
BRANCH  11  13
ATOM     13  C   UNL     1       1.318   6.146  20.665  0.00  0.00    +0.000 C 
BRANCH  13  14
ATOM     14  C   UNL     1       1.995   4.894  20.050  0.00  0.00    +0.000 C 
ATOM     15  C   UNL     1       1.588   3.701  20.960  0.00  0.00    +0.000 C 
ATOM     16  C   UNL     1       2.139   2.378  20.424  0.00  0.00    +0.000 C 
ATOM     17  C   UNL     1       1.581   2.158  19.010  0.00  0.00    +0.000 C 
ATOM     18  C   UNL     1       2.054   3.285  18.072  0.00  0.00    +0.000 C 
ATOM     19  C   UNL     1       1.500   4.624  18.604  0.00  0.00    +0.000 C 
ATOM     20  C   UNL     1       3.599   3.367  18.033  0.00  0.00    +0.000 C 
ATOM     21  C   UNL     1       4.122   3.606  19.472  0.00  0.00    +0.000 C 
ATOM     22  C   UNL     1       3.671   2.461  20.400  0.00  0.00    +0.000 C 
ATOM     23  C   UNL     1       3.544   4.948  20.010  0.00  0.00    +0.000 C 
BRANCH  20  24
ATOM     24  N   UNL     1       4.176   2.171  17.410  0.00  0.00    +0.000 NA
ATOM     25  H   UNL     1       4.182   1.385  18.057  0.00  0.00    +0.000 HD
ATOM     26  H   UNL     1       5.150   2.342  17.165  0.00  0.00    +0.000 HD
ENDBRANCH  20  24
ENDBRANCH  13  14
ENDBRANCH  11  13
ENDBRANCH   7  11
BRANCH   5  27
ATOM     27  C   UNL     1      -0.756  11.141  22.502  0.00  0.00    +0.000 C 
BRANCH  27  28
ATOM     28  C   UNL     1      -1.632  12.310  22.911  0.00  0.00    +0.000 A 
ATOM     29  C   UNL     1      -2.868  12.010  23.523  0.00  0.00    +0.000 A 
ATOM     30  C   UNL     1      -3.745  13.015  23.931  0.00  0.00    +0.000 A 
ATOM     31  C   UNL     1      -3.405  14.349  23.742  0.00  0.00    +0.000 A 
ATOM     32  C   UNL     1      -2.188  14.673  23.146  0.00  0.00    +0.000 A 
ATOM     33  C   UNL     1      -1.303  13.662  22.733  0.00  0.00    +0.000 A 
ATOM     34 BR   UNL     1       0.319  14.233  21.927  0.00  0.00    +0.000 Br
ENDBRANCH  27  28
ENDBRANCH   5  27
TORSDOF 7
ENDMDL
MODEL 4
REMARK VINA RESULT:      -7.8      1.178      2.090
REMARK  Name = 
REMARK  7 active torsions:
REMARK  status: ('A' for Active; 'I' for Inactive)
REMARK    1  A    between atoms: C_2  and  C_3
REMARK    2  A    between atoms: N_7  and  C_8
REMARK    3  A    between atoms: C_8  and  C_9
REMARK    4  A    between atoms: C_17  and  N_18
REMARK    5  A    between atoms: N_18  and  C_19
REMARK    6  A    between atoms: C_19  and  C_20
REMARK    7  A    between atoms: C_26  and  N_27
REMARK                            x       y       z     vdW  Elec       q    Type
REMARK                         _______ _______ _______ _____ _____    ______ ____
ROOT
ATOM      1  C   UNL     1       1.984   8.742  18.693  0.00  0.00    +0.000 A 
ATOM      2  C   UNL     1       1.355   9.832  18.141  0.00  0.00    +0.000 A 
ATOM      3  N   UNL     1       0.457  10.592  18.798  0.00  0.00    +0.000 NA
ATOM      4  C   UNL     1       0.168  10.235  20.052  0.00  0.00    +0.000 A 
ATOM      5  N   UNL     1      -0.852  10.949  20.634  0.00  0.00    +0.000 N 
ATOM      6  N   UNL     1       0.742   9.194  20.677  0.00  0.00    +0.000 NA
ATOM      7  C   UNL     1       1.639   8.435  19.999  0.00  0.00    +0.000 A 
ATOM      8  H   UNL     1      -1.039  11.763  20.060  0.00  0.00    +0.000 HD
ENDROOT
BRANCH   1  10
ATOM      9  N   UNL     1       3.638   7.327  17.302  0.00  0.00    +0.000 NA
ATOM     10  C   UNL     1       2.876   7.962  17.909  0.00  0.00    +0.000 C 
ENDBRANCH   1  10
BRANCH   7  11
ATOM     11  N   UNL     1       2.182   7.280  20.616  0.00  0.00    +0.000 N 
ATOM     12  H   UNL     1       2.530   7.502  21.546  0.00  0.00    +0.000 HD
BRANCH  11  13
ATOM     13  C   UNL     1       1.299   6.118  20.593  0.00  0.00    +0.000 C 
BRANCH  13  14
ATOM     14  C   UNL     1       1.964   4.842  20.015  0.00  0.00    +0.000 C 
ATOM     15  C   UNL     1       1.488   3.669  20.917  0.00  0.00    +0.000 C 
ATOM     16  C   UNL     1       2.022   2.327  20.414  0.00  0.00    +0.000 C 
ATOM     17  C   UNL     1       1.516   2.109  18.980  0.00  0.00    +0.000 C 
ATOM     18  C   UNL     1       2.058   3.215  18.053  0.00  0.00    +0.000 C 
ATOM     19  C   UNL     1       1.521   4.574  18.553  0.00  0.00    +0.000 C 
ATOM     20  C   UNL     1       3.605   3.254  18.077  0.00  0.00    +0.000 C 
ATOM     21  C   UNL     1       4.076   3.491  19.534  0.00  0.00    +0.000 C 
ATOM     22  C   UNL     1       3.556   2.367  20.452  0.00  0.00    +0.000 C 
ATOM     23  C   UNL     1       3.515   4.853  20.037  0.00  0.00    +0.000 C 
BRANCH  20  24
ATOM     24  N   UNL     1       4.173   2.037  17.487  0.00  0.00    +0.000 NA
ATOM     25  H   UNL     1       3.698   1.205  17.830  0.00  0.00    +0.000 HD
ATOM     26  H   UNL     1       5.149   1.939  17.762  0.00  0.00    +0.000 HD
ENDBRANCH  20  24
ENDBRANCH  13  14
ENDBRANCH  11  13
ENDBRANCH   7  11
BRANCH   5  27
ATOM     27  C   UNL     1      -0.823  11.198  22.059  0.00  0.00    +0.000 C 
BRANCH  27  28
ATOM     28  C   UNL     1      -0.858  12.698  22.284  0.00  0.00    +0.000 A 
ATOM     29  C   UNL     1       0.227  13.452  21.787  0.00  0.00    +0.000 A 
ATOM     30  C   UNL     1       0.289  14.836  21.945  0.00  0.00    +0.000 A 
ATOM     31  C   UNL     1      -0.738  15.504  22.601  0.00  0.00    +0.000 A 
ATOM     32  C   UNL     1      -1.824  14.785  23.095  0.00  0.00    +0.000 A 
ATOM     33  C   UNL     1      -1.888  13.389  22.938  0.00  0.00    +0.000 A 
ATOM     34 BR   UNL     1      -3.416  12.523  23.662  0.00  0.00    +0.000 Br
ENDBRANCH  27  28
ENDBRANCH   5  27
TORSDOF 7
ENDMDL
MODEL 5
REMARK VINA RESULT:      -7.8      0.791      1.525
REMARK  Name = 
REMARK  7 active torsions:
REMARK  status: ('A' for Active; 'I' for Inactive)
REMARK    1  A    between atoms: C_2  and  C_3
REMARK    2  A    between atoms: N_7  and  C_8
REMARK    3  A    between atoms: C_8  and  C_9
REMARK    4  A    between atoms: C_17  and  N_18
REMARK    5  A    between atoms: N_18  and  C_19
REMARK    6  A    between atoms: C_19  and  C_20
REMARK    7  A    between atoms: C_26  and  N_27
REMARK                            x       y       z     vdW  Elec       q    Type
REMARK                         _______ _______ _______ _____ _____    ______ ____
ROOT
ATOM      1  C   UNL     1       1.598   9.101  18.764  0.00  0.00    +0.000 A 
ATOM      2  C   UNL     1       0.791  10.140  18.363  0.00  0.00    +0.000 A 
ATOM      3  N   UNL     1      -0.084  10.766  19.173  0.00  0.00    +0.000 NA
ATOM      4  C   UNL     1      -0.165  10.322  20.430  0.00  0.00    +0.000 A 
ATOM      5  N   UNL     1      -1.167  10.892  21.179  0.00  0.00    +0.000 N 
ATOM      6  N   UNL     1       0.591   9.322  20.914  0.00  0.00    +0.000 NA
ATOM      7  C   UNL     1       1.463   8.699  20.083  0.00  0.00    +0.000 A 
ATOM      8  H   UNL     1      -1.511  11.706  20.683  0.00  0.00    +0.000 HD
ENDROOT
BRANCH   1  10
ATOM      9  N   UNL     1       3.174   7.915  17.096  0.00  0.00    +0.000 NA
ATOM     10  C   UNL     1       2.452   8.461  17.827  0.00  0.00    +0.000 C 
ENDBRANCH   1  10
BRANCH   7  11
ATOM     11  N   UNL     1       2.199   7.583  20.555  0.00  0.00    +0.000 N 
ATOM     12  H   UNL     1       2.656   7.805  21.438  0.00  0.00    +0.000 HD
BRANCH  11  13
ATOM     13  C   UNL     1       1.439   6.338  20.596  0.00  0.00    +0.000 C 
BRANCH  13  14
ATOM     14  C   UNL     1       2.126   5.166  19.849  0.00  0.00    +0.000 C 
ATOM     15  C   UNL     1       3.628   5.552  19.740  0.00  0.00    +0.000 C 
ATOM     16  C   UNL     1       4.443   4.441  19.076  0.00  0.00    +0.000 C 
ATOM     17  C   UNL     1       4.303   3.166  19.920  0.00  0.00    +0.000 C 
ATOM     18  C   UNL     1       2.829   2.716  19.960  0.00  0.00    +0.000 C 
ATOM     19  C   UNL     1       1.999   3.832  20.632  0.00  0.00    +0.000 C 
ATOM     20  C   UNL     1       2.280   2.479  18.534  0.00  0.00    +0.000 C 
ATOM     21  C   UNL     1       2.423   3.790  17.719  0.00  0.00    +0.000 C 
ATOM     22  C   UNL     1       3.902   4.220  17.657  0.00  0.00    +0.000 C 
ATOM     23  C   UNL     1       1.599   4.914  18.412  0.00  0.00    +0.000 C 
BRANCH  20  24
ATOM     24  N   UNL     1       2.944   1.338  17.895  0.00  0.00    +0.000 NA
ATOM     25  H   UNL     1       3.918   1.548  17.686  0.00  0.00    +0.000 HD
ATOM     26  H   UNL     1       2.501   1.132  17.000  0.00  0.00    +0.000 HD
ENDBRANCH  20  24
ENDBRANCH  13  14
ENDBRANCH  11  13
ENDBRANCH   7  11
BRANCH   5  27
ATOM     27  C   UNL     1      -0.974  11.077  22.601  0.00  0.00    +0.000 C 
BRANCH  27  28
ATOM     28  C   UNL     1      -1.791  12.277  23.043  0.00  0.00    +0.000 A 
ATOM     29  C   UNL     1      -3.024  12.020  23.682  0.00  0.00    +0.000 A 
ATOM     30  C   UNL     1      -3.848  13.054  24.122  0.00  0.00    +0.000 A 
ATOM     31  C   UNL     1      -3.459  14.376  23.939  0.00  0.00    +0.000 A 
ATOM     32  C   UNL     1      -2.244  14.657  23.318  0.00  0.00    +0.000 A 
ATOM     33  C   UNL     1      -1.411  13.616  22.872  0.00  0.00    +0.000 A 
ATOM     34 BR   UNL     1       0.214  14.130  22.033  0.00  0.00    +0.000 Br
ENDBRANCH  27  28
ENDBRANCH   5  27
TORSDOF 7
ENDMDL
MODEL 6
REMARK VINA RESULT:      -7.7      2.753      3.776
REMARK  Name = 
REMARK  7 active torsions:
REMARK  status: ('A' for Active; 'I' for Inactive)
REMARK    1  A    between atoms: C_2  and  C_3
REMARK    2  A    between atoms: N_7  and  C_8
REMARK    3  A    between atoms: C_8  and  C_9
REMARK    4  A    between atoms: C_17  and  N_18
REMARK    5  A    between atoms: N_18  and  C_19
REMARK    6  A    between atoms: C_19  and  C_20
REMARK    7  A    between atoms: C_26  and  N_27
REMARK                            x       y       z     vdW  Elec       q    Type
REMARK                         _______ _______ _______ _____ _____    ______ ____
ROOT
ATOM      1  C   UNL     1       1.545   7.506  20.433  0.00  0.00    +0.000 A 
ATOM      2  C   UNL     1       1.158   8.319  21.471  0.00  0.00    +0.000 A 
ATOM      3  N   UNL     1       0.808   9.612  21.321  0.00  0.00    +0.000 NA
ATOM      4  C   UNL     1       0.863  10.111  20.085  0.00  0.00    +0.000 A 
ATOM      5  N   UNL     1       0.635  11.464  19.999  0.00  0.00    +0.000 N 
ATOM      6  N   UNL     1       1.217   9.389  19.008  0.00  0.00    +0.000 NA
ATOM      7  C   UNL     1       1.573   8.092  19.177  0.00  0.00    +0.000 A 
ATOM      8  H   UNL     1       0.250  11.779  20.882  0.00  0.00    +0.000 HD
ENDROOT
BRANCH   1  10
ATOM      9  N   UNL     1       2.242   5.065  20.913  0.00  0.00    +0.000 NA
ATOM     10  C   UNL     1       1.953   6.170  20.690  0.00  0.00    +0.000 C 
ENDBRANCH   1  10
BRANCH   7  11
ATOM     11  N   UNL     1       2.037   7.345  18.065  0.00  0.00    +0.000 N 
ATOM     12  H   UNL     1       1.340   7.340  17.323  0.00  0.00    +0.000 HD
BRANCH  11  13
ATOM     13  C   UNL     1       3.369   7.725  17.603  0.00  0.00    +0.000 C 
BRANCH  13  14
ATOM     14  C   UNL     1       4.356   6.533  17.506  0.00  0.00    +0.000 C 
ATOM     15  C   UNL     1       3.477   5.252  17.494  0.00  0.00    +0.000 C 
ATOM     16  C   UNL     1       4.330   3.992  17.332  0.00  0.00    +0.000 C 
ATOM     17  C   UNL     1       5.103   4.096  16.009  0.00  0.00    +0.000 C 
ATOM     18  C   UNL     1       6.050   5.311  16.043  0.00  0.00    +0.000 C 
ATOM     19  C   UNL     1       5.197   6.588  16.203  0.00  0.00    +0.000 C 
ATOM     20  C   UNL     1       7.034   5.218  17.234  0.00  0.00    +0.000 C 
ATOM     21  C   UNL     1       6.218   5.132  18.549  0.00  0.00    +0.000 C 
ATOM     22  C   UNL     1       5.294   3.899  18.522  0.00  0.00    +0.000 C 
ATOM     23  C   UNL     1       5.346   6.413  18.694  0.00  0.00    +0.000 C 
BRANCH  20  24
ATOM     24  N   UNL     1       7.962   4.094  17.066  0.00  0.00    +0.000 NA
ATOM     25  H   UNL     1       8.125   3.895  16.082  0.00  0.00    +0.000 HD
ATOM     26  H   UNL     1       7.559   3.247  17.463  0.00  0.00    +0.000 HD
ENDBRANCH  20  24
ENDBRANCH  13  14
ENDBRANCH  11  13
ENDBRANCH   7  11
BRANCH   5  27
ATOM     27  C   UNL     1      -0.011  12.003  18.821  0.00  0.00    +0.000 C 
BRANCH  27  28
ATOM     28  C   UNL     1      -1.495  12.138  19.110  0.00  0.00    +0.000 A 
ATOM     29  C   UNL     1      -1.872  12.996  20.167  0.00  0.00    +0.000 A 
ATOM     30  C   UNL     1      -3.210  13.185  20.512  0.00  0.00    +0.000 A 
ATOM     31  C   UNL     1      -4.207  12.525  19.805  0.00  0.00    +0.000 A 
ATOM     32  C   UNL     1      -3.863  11.678  18.754  0.00  0.00    +0.000 A 
ATOM     33  C   UNL     1      -2.515  11.485  18.404  0.00  0.00    +0.000 A 
ATOM     34 BR   UNL     1      -2.175  10.300  16.959  0.00  0.00    +0.000 Br
ENDBRANCH  27  28
ENDBRANCH   5  27
TORSDOF 7
ENDMDL
MODEL 7
REMARK VINA RESULT:      -7.6      2.724      3.917
REMARK  Name = 
REMARK  7 active torsions:
REMARK  status: ('A' for Active; 'I' for Inactive)
REMARK    1  A    between atoms: C_2  and  C_3
REMARK    2  A    between atoms: N_7  and  C_8
REMARK    3  A    between atoms: C_8  and  C_9
REMARK    4  A    between atoms: C_17  and  N_18
REMARK    5  A    between atoms: N_18  and  C_19
REMARK    6  A    between atoms: C_19  and  C_20
REMARK    7  A    between atoms: C_26  and  N_27
REMARK                            x       y       z     vdW  Elec       q    Type
REMARK                         _______ _______ _______ _____ _____    ______ ____
ROOT
ATOM      1  C   UNL     1       1.566   7.407  20.299  0.00  0.00    +0.000 A 
ATOM      2  C   UNL     1       1.119   8.223  21.312  0.00  0.00    +0.000 A 
ATOM      3  N   UNL     1       0.810   9.524  21.147  0.00  0.00    +0.000 NA
ATOM      4  C   UNL     1       0.972  10.030  19.922  0.00  0.00    +0.000 A 
ATOM      5  N   UNL     1       0.782  11.389  19.831  0.00  0.00    +0.000 N 
ATOM      6  N   UNL     1       1.391   9.307  18.870  0.00  0.00    +0.000 NA
ATOM      7  C   UNL     1       1.704   8.001  19.055  0.00  0.00    +0.000 A 
ATOM      8  H   UNL     1       0.337  11.706  20.684  0.00  0.00    +0.000 HD
ENDROOT
BRANCH   1  10
ATOM      9  N   UNL     1       2.170   4.944  20.788  0.00  0.00    +0.000 NA
ATOM     10  C   UNL     1       1.923   6.060  20.575  0.00  0.00    +0.000 C 
ENDBRANCH   1  10
BRANCH   7  11
ATOM     11  N   UNL     1       2.235   7.252  17.975  0.00  0.00    +0.000 N 
ATOM     12  H   UNL     1       1.588   7.251  17.189  0.00  0.00    +0.000 HD
BRANCH  11  13
ATOM     13  C   UNL     1       3.596   7.623  17.601  0.00  0.00    +0.000 C 
BRANCH  13  14
ATOM     14  C   UNL     1       4.585   6.429  17.586  0.00  0.00    +0.000 C 
ATOM     15  C   UNL     1       3.726   5.170  17.277  0.00  0.00    +0.000 C 
ATOM     16  C   UNL     1       4.595   3.916  17.165  0.00  0.00    +0.000 C 
ATOM     17  C   UNL     1       5.614   4.131  16.036  0.00  0.00    +0.000 C 
ATOM     18  C   UNL     1       6.535   5.320  16.373  0.00  0.00    +0.000 C 
ATOM     19  C   UNL     1       5.666   6.591  16.485  0.00  0.00    +0.000 C 
ATOM     20  C   UNL     1       7.264   5.096  17.720  0.00  0.00    +0.000 C 
ATOM     21  C   UNL     1       6.205   4.901  18.834  0.00  0.00    +0.000 C 
ATOM     22  C   UNL     1       5.305   3.693  18.507  0.00  0.00    +0.000 C 
ATOM     23  C   UNL     1       5.320   6.178  18.928  0.00  0.00    +0.000 C 
BRANCH  20  24
ATOM     24  N   UNL     1       8.208   3.977  17.630  0.00  0.00    +0.000 NA
ATOM     25  H   UNL     1       8.070   3.445  16.774  0.00  0.00    +0.000 HD
ATOM     26  H   UNL     1       8.048   3.324  18.397  0.00  0.00    +0.000 HD
ENDBRANCH  20  24
ENDBRANCH  13  14
ENDBRANCH  11  13
ENDBRANCH   7  11
BRANCH   5  27
ATOM     27  C   UNL     1       0.240  11.950  18.612  0.00  0.00    +0.000 C 
BRANCH  27  28
ATOM     28  C   UNL     1      -1.243  11.637  18.560  0.00  0.00    +0.000 A 
ATOM     29  C   UNL     1      -1.655  10.596  17.699  0.00  0.00    +0.000 A 
ATOM     30  C   UNL     1      -2.996  10.235  17.578  0.00  0.00    +0.000 A 
ATOM     31  C   UNL     1      -3.963  10.903  18.321  0.00  0.00    +0.000 A 
ATOM     32  C   UNL     1      -3.583  11.930  19.182  0.00  0.00    +0.000 A 
ATOM     33  C   UNL     1      -2.231  12.297  19.305  0.00  0.00    +0.000 A 
ATOM     34 BR   UNL     1      -1.844  13.716  20.507  0.00  0.00    +0.000 Br
ENDBRANCH  27  28
ENDBRANCH   5  27
TORSDOF 7
ENDMDL
MODEL 8
REMARK VINA RESULT:      -7.5      1.178      1.281
REMARK  Name = 
REMARK  7 active torsions:
REMARK  status: ('A' for Active; 'I' for Inactive)
REMARK    1  A    between atoms: C_2  and  C_3
REMARK    2  A    between atoms: N_7  and  C_8
REMARK    3  A    between atoms: C_8  and  C_9
REMARK    4  A    between atoms: C_17  and  N_18
REMARK    5  A    between atoms: N_18  and  C_19
REMARK    6  A    between atoms: C_19  and  C_20
REMARK    7  A    between atoms: C_26  and  N_27
REMARK                            x       y       z     vdW  Elec       q    Type
REMARK                         _______ _______ _______ _____ _____    ______ ____
ROOT
ATOM      1  C   UNL     1       2.364   8.441  18.420  0.00  0.00    +0.000 A 
ATOM      2  C   UNL     1       1.714   9.477  17.792  0.00  0.00    +0.000 A 
ATOM      3  N   UNL     1       0.729  10.199  18.361  0.00  0.00    +0.000 NA
ATOM      4  C   UNL     1       0.372   9.859  19.601  0.00  0.00    +0.000 A 
ATOM      5  N   UNL     1      -0.727  10.525  20.088  0.00  0.00    +0.000 N 
ATOM      6  N   UNL     1       0.958   8.870  20.297  0.00  0.00    +0.000 NA
ATOM      7  C   UNL     1       1.943   8.149  19.708  0.00  0.00    +0.000 A 
ATOM      8  H   UNL     1      -0.919  11.312  19.478  0.00  0.00    +0.000 HD
ENDROOT
BRANCH   1  10
ATOM      9  N   UNL     1       4.190   7.087  17.194  0.00  0.00    +0.000 NA
ATOM     10  C   UNL     1       3.353   7.696  17.724  0.00  0.00    +0.000 C 
ENDBRANCH   1  10
BRANCH   7  11
ATOM     11  N   UNL     1       2.506   7.044  20.396  0.00  0.00    +0.000 N 
ATOM     12  H   UNL     1       2.887   7.339  21.292  0.00  0.00    +0.000 HD
BRANCH  11  13
ATOM     13  C   UNL     1       1.621   5.889  20.497  0.00  0.00    +0.000 C 
BRANCH  13  14
ATOM     14  C   UNL     1       2.165   4.625  19.781  0.00  0.00    +0.000 C 
ATOM     15  C   UNL     1       1.609   4.685  18.331  0.00  0.00    +0.000 C 
ATOM     16  C   UNL     1       2.128   3.521  17.485  0.00  0.00    +0.000 C 
ATOM     17  C   UNL     1       3.662   3.592  17.450  0.00  0.00    +0.000 C 
ATOM     18  C   UNL     1       4.233   3.439  18.873  0.00  0.00    +0.000 C 
ATOM     19  C   UNL     1       3.716   4.613  19.733  0.00  0.00    +0.000 C 
ATOM     20  C   UNL     1       3.772   2.111  19.519  0.00  0.00    +0.000 C 
ATOM     21  C   UNL     1       2.223   2.083  19.552  0.00  0.00    +0.000 C 
ATOM     22  C   UNL     1       1.657   2.207  18.123  0.00  0.00    +0.000 C 
ATOM     23  C   UNL     1       1.709   3.280  20.404  0.00  0.00    +0.000 C 
BRANCH  20  24
ATOM     24  N   UNL     1       4.346   0.956  18.819  0.00  0.00    +0.000 NA
ATOM     25  H   UNL     1       4.429   0.153  19.439  0.00  0.00    +0.000 HD
ATOM     26  H   UNL     1       5.292   1.172  18.508  0.00  0.00    +0.000 HD
ENDBRANCH  20  24
ENDBRANCH  13  14
ENDBRANCH  11  13
ENDBRANCH   7  11
BRANCH   5  27
ATOM     27  C   UNL     1      -0.815  10.813  21.504  0.00  0.00    +0.000 C 
BRANCH  27  28
ATOM     28  C   UNL     1      -1.296  12.242  21.673  0.00  0.00    +0.000 A 
ATOM     29  C   UNL     1      -0.763  12.980  22.752  0.00  0.00    +0.000 A 
ATOM     30  C   UNL     1      -1.144  14.300  22.994  0.00  0.00    +0.000 A 
ATOM     31  C   UNL     1      -2.066  14.918  22.158  0.00  0.00    +0.000 A 
ATOM     32  C   UNL     1      -2.602  14.214  21.082  0.00  0.00    +0.000 A 
ATOM     33  C   UNL     1      -2.221  12.884  20.837  0.00  0.00    +0.000 A 
ATOM     34 BR   UNL     1      -3.029  12.031  19.344  0.00  0.00    +0.000 Br
ENDBRANCH  27  28
ENDBRANCH   5  27
TORSDOF 7
ENDMDL
MODEL 9
REMARK VINA RESULT:      -7.5      1.534      2.063
REMARK  Name = 
REMARK  7 active torsions:
REMARK  status: ('A' for Active; 'I' for Inactive)
REMARK    1  A    between atoms: C_2  and  C_3
REMARK    2  A    between atoms: N_7  and  C_8
REMARK    3  A    between atoms: C_8  and  C_9
REMARK    4  A    between atoms: C_17  and  N_18
REMARK    5  A    between atoms: N_18  and  C_19
REMARK    6  A    between atoms: C_19  and  C_20
REMARK    7  A    between atoms: C_26  and  N_27
REMARK                            x       y       z     vdW  Elec       q    Type
REMARK                         _______ _______ _______ _____ _____    ______ ____
ROOT
ATOM      1  C   UNL     1       2.363   8.431  18.346  0.00  0.00    +0.000 A 
ATOM      2  C   UNL     1       1.849   9.417  17.537  0.00  0.00    +0.000 A 
ATOM      3  N   UNL     1       0.883  10.274  17.920  0.00  0.00    +0.000 NA
ATOM      4  C   UNL     1       0.403  10.127  19.157  0.00  0.00    +0.000 A 
ATOM      5  N   UNL     1      -0.675  10.926  19.456  0.00  0.00    +0.000 N 
ATOM      6  N   UNL     1       0.853   9.202  20.022  0.00  0.00    +0.000 NA
ATOM      7  C   UNL     1       1.821   8.342  19.618  0.00  0.00    +0.000 A 
ATOM      8  H   UNL     1      -0.754  11.635  18.737  0.00  0.00    +0.000 HD
ENDROOT
BRANCH   1  10
ATOM      9  N   UNL     1       4.170   6.837  17.415  0.00  0.00    +0.000 NA
ATOM     10  C   UNL     1       3.342   7.534  17.841  0.00  0.00    +0.000 C 
ENDBRANCH   1  10
BRANCH   7  11
ATOM     11  N   UNL     1       2.238   7.304  20.488  0.00  0.00    +0.000 N 
ATOM     12  H   UNL     1       2.484   7.681  21.401  0.00  0.00    +0.000 HD
BRANCH  11  13
ATOM     13  C   UNL     1       1.315   6.176  20.559  0.00  0.00    +0.000 C 
BRANCH  13  14
ATOM     14  C   UNL     1       1.918   4.845  20.039  0.00  0.00    +0.000 C 
ATOM     15  C   UNL     1       1.330   3.728  20.945  0.00  0.00    +0.000 C 
ATOM     16  C   UNL     1       1.794   2.342  20.495  0.00  0.00    +0.000 C 
ATOM     17  C   UNL     1       1.334   2.122  19.047  0.00  0.00    +0.000 C 
ATOM     18  C   UNL     1       1.984   3.167  18.119  0.00  0.00    +0.000 C 
ATOM     19  C   UNL     1       1.518   4.569  18.565  0.00  0.00    +0.000 C 
ATOM     20  C   UNL     1       3.528   3.106  18.207  0.00  0.00    +0.000 C 
ATOM     21  C   UNL     1       3.954   3.348  19.677  0.00  0.00    +0.000 C 
ATOM     22  C   UNL     1       3.325   2.283  20.597  0.00  0.00    +0.000 C 
ATOM     23  C   UNL     1       3.464   4.756  20.125  0.00  0.00    +0.000 C 
BRANCH  20  24
ATOM     24  N   UNL     1       4.038   1.840  17.669  0.00  0.00    +0.000 NA
ATOM     25  H   UNL     1       5.052   1.856  17.586  0.00  0.00    +0.000 HD
ATOM     26  H   UNL     1       3.680   1.692  16.726  0.00  0.00    +0.000 HD
ENDBRANCH  20  24
ENDBRANCH  13  14
ENDBRANCH  11  13
ENDBRANCH   7  11
BRANCH   5  27
ATOM     27  C   UNL     1      -0.850  11.405  20.811  0.00  0.00    +0.000 C 
BRANCH  27  28
ATOM     28  C   UNL     1      -2.109  12.250  20.860  0.00  0.00    +0.000 A 
ATOM     29  C   UNL     1      -3.075  12.032  19.853  0.00  0.00    +0.000 A 
ATOM     30  C   UNL     1      -4.263  12.760  19.810  0.00  0.00    +0.000 A 
ATOM     31  C   UNL     1      -4.520  13.724  20.777  0.00  0.00    +0.000 A 
ATOM     32  C   UNL     1      -3.587  13.955  21.786  0.00  0.00    +0.000 A 
ATOM     33  C   UNL     1      -2.388  13.223  21.831  0.00  0.00    +0.000 A 
ATOM     34 BR   UNL     1      -1.194  13.636  23.250  0.00  0.00    +0.000 Br
ENDBRANCH  27  28
ENDBRANCH   5  27
TORSDOF 7
ENDMDL
