MODEL 1
REMARK VINA RESULT:      -8.1      0.000      0.000
REMARK  Name = 
REMARK  6 active torsions:
REMARK  status: ('A' for Active; 'I' for Inactive)
REMARK    1  A    between atoms: C_1  and  O_2
REMARK    2  A    between atoms: O_2  and  C_3
REMARK    3  A    between atoms: C_7  and  S_8
REMARK    4  A    between atoms: S_8  and  C_9
REMARK    5  A    between atoms: C_9  and  C_10
REMARK    6  A    between atoms: C_21  and  C_22
REMARK                            x       y       z     vdW  Elec       q    Type
REMARK                         _______ _______ _______ _____ _____    ______ ____
ROOT
ATOM      1  C   UNL     1       4.155   4.093  16.877  0.00  0.00    +0.000 A 
ATOM      2  C   UNL     1       4.125   2.749  17.220  0.00  0.00    +0.000 A 
ATOM      3  N   UNL     1       3.582   2.254  18.344  0.00  0.00    +0.000 NA
ATOM      4  C   UNL     1       3.070   3.079  19.242  0.00  0.00    +0.000 A 
ATOM      5  N   UNL     1       2.552   2.464  20.290  0.00  0.00    +0.000 NA
ATOM      6  C   UNL     1       2.049   3.201  21.260  0.00  0.00    +0.000 A 
ATOM      7  N   UNL     1       1.479   2.541  22.330  0.00  0.00    +0.000 N 
ATOM      8  N   UNL     1       2.033   4.526  21.268  0.00  0.00    +0.000 NA
ATOM      9  C   UNL     1       2.578   5.139  20.209  0.00  0.00    +0.000 A 
ATOM     10  N   UNL     1       2.597   6.527  20.357  0.00  0.00    +0.000 N 
ATOM     11  C   UNL     1       3.101   4.469  19.082  0.00  0.00    +0.000 A 
ATOM     12  C   UNL     1       3.639   4.993  17.837  0.00  0.00    +0.000 A 
ATOM     13  C   UNL     1       3.675   6.471  17.524  0.00  0.00    +0.000 C 
ATOM     14  H   UNL     1       1.202   1.612  22.038  0.00  0.00    +0.000 HD
ATOM     15  H   UNL     1       0.772   3.118  22.758  0.00  0.00    +0.000 HD
ATOM     16  H   UNL     1       2.176   6.723  21.264  0.00  0.00    +0.000 HD
ATOM     17  H   UNL     1       3.549   6.876  20.330  0.00  0.00    +0.000 HD
ENDROOT
BRANCH   1  18
ATOM     18  C   UNL     1       4.794   4.521  15.570  0.00  0.00    +0.000 C 
BRANCH  18  19
ATOM     19  S   UNL     1       6.621   4.382  15.582  0.00  0.00    +0.000 S 
BRANCH  19  24
ATOM     20  C   UNL     1       7.719   7.699  17.753  0.00  0.00    +0.000 A 
ATOM     21  C   UNL     1       8.150   7.092  18.936  0.00  0.00    +0.000 A 
ATOM     22  C   UNL     1       8.076   5.712  19.091  0.00  0.00    +0.000 A 
ATOM     23  C   UNL     1       7.581   4.928  18.051  0.00  0.00    +0.000 A 
ATOM     24  C   UNL     1       7.154   5.515  16.853  0.00  0.00    +0.000 A 
ATOM     25  C   UNL     1       7.209   6.907  16.720  0.00  0.00    +0.000 A 
BRANCH  20  27
ATOM     26  C   UNL     1       8.846   9.622  18.587  0.00  0.00    +0.000 C 
ATOM     27  O   UNL     1       7.863   9.058  17.728  0.00  0.00    +0.000 OA
ENDBRANCH  20  27
ENDBRANCH  19  24
ENDBRANCH  18  19
ENDBRANCH   1  18
TORSDOF 4
ENDMDL
MODEL 2
REMARK VINA RESULT:      -7.5      3.036      4.439
REMARK  Name = 
REMARK  6 active torsions:
REMARK  status: ('A' for Active; 'I' for Inactive)
REMARK    1  A    between atoms: C_1  and  O_2
REMARK    2  A    between atoms: O_2  and  C_3
REMARK    3  A    between atoms: C_7  and  S_8
REMARK    4  A    between atoms: S_8  and  C_9
REMARK    5  A    between atoms: C_9  and  C_10
REMARK    6  A    between atoms: C_21  and  C_22
REMARK                            x       y       z     vdW  Elec       q    Type
REMARK                         _______ _______ _______ _____ _____    ______ ____
ROOT
ATOM      1  C   UNL     1       4.451   5.218  17.312  0.00  0.00    +0.000 A 
ATOM      2  C   UNL     1       4.753   3.884  17.541  0.00  0.00    +0.000 A 
ATOM      3  N   UNL     1       4.219   3.131  18.517  0.00  0.00    +0.000 NA
ATOM      4  C   UNL     1       3.377   3.677  19.378  0.00  0.00    +0.000 A 
ATOM      5  N   UNL     1       2.911   2.826  20.273  0.00  0.00    +0.000 NA
ATOM      6  C   UNL     1       2.091   3.281  21.200  0.00  0.00    +0.000 A 
ATOM      7  N   UNL     1       1.586   2.370  22.105  0.00  0.00    +0.000 N 
ATOM      8  N   UNL     1       1.702   4.543  21.306  0.00  0.00    +0.000 NA
ATOM      9  C   UNL     1       2.195   5.401  20.403  0.00  0.00    +0.000 A 
ATOM     10  N   UNL     1       1.803   6.716  20.659  0.00  0.00    +0.000 N 
ATOM     11  C   UNL     1       3.037   5.034  19.332  0.00  0.00    +0.000 A 
ATOM     12  C   UNL     1       3.575   5.828  18.238  0.00  0.00    +0.000 A 
ATOM     13  C   UNL     1       3.237   7.288  18.050  0.00  0.00    +0.000 C 
ATOM     14  H   UNL     1       1.625   1.443  21.701  0.00  0.00    +0.000 HD
ATOM     15  H   UNL     1       0.692   2.683  22.452  0.00  0.00    +0.000 HD
ATOM     16  H   UNL     1       1.221   6.683  21.495  0.00  0.00    +0.000 HD
ATOM     17  H   UNL     1       2.612   7.307  20.818  0.00  0.00    +0.000 HD
ENDROOT
BRANCH   1  18
ATOM     18  C   UNL     1       5.120   5.954  16.167  0.00  0.00    +0.000 C 
BRANCH  18  19
ATOM     19  S   UNL     1       6.829   5.379  15.841  0.00  0.00    +0.000 S 
BRANCH  19  24
ATOM     20  C   UNL     1       6.074   3.296  12.375  0.00  0.00    +0.000 A 
ATOM     21  C   UNL     1       6.997   3.899  11.515  0.00  0.00    +0.000 A 
ATOM     22  C   UNL     1       7.804   4.940  11.960  0.00  0.00    +0.000 A 
ATOM     23  C   UNL     1       7.702   5.374  13.281  0.00  0.00    +0.000 A 
ATOM     24  C   UNL     1       6.793   4.776  14.163  0.00  0.00    +0.000 A 
ATOM     25  C   UNL     1       5.968   3.748  13.695  0.00  0.00    +0.000 A 
BRANCH  20  27
ATOM     26  C   UNL     1       6.094   1.255  11.153  0.00  0.00    +0.000 C 
ATOM     27  O   UNL     1       5.358   2.276  11.814  0.00  0.00    +0.000 OA
ENDBRANCH  20  27
ENDBRANCH  19  24
ENDBRANCH  18  19
ENDBRANCH   1  18
TORSDOF 4
ENDMDL
MODEL 3
REMARK VINA RESULT:      -7.2      3.246      5.577
REMARK  Name = 
REMARK  6 active torsions:
REMARK  status: ('A' for Active; 'I' for Inactive)
REMARK    1  A    between atoms: C_1  and  O_2
REMARK    2  A    between atoms: O_2  and  C_3
REMARK    3  A    between atoms: C_7  and  S_8
REMARK    4  A    between atoms: S_8  and  C_9
REMARK    5  A    between atoms: C_9  and  C_10
REMARK    6  A    between atoms: C_21  and  C_22
REMARK                            x       y       z     vdW  Elec       q    Type
REMARK                         _______ _______ _______ _____ _____    ______ ____
ROOT
ATOM      1  C   UNL     1       4.442   3.284  18.177  0.00  0.00    +0.000 A 
ATOM      2  C   UNL     1       4.932   3.541  19.449  0.00  0.00    +0.000 A 
ATOM      3  N   UNL     1       5.836   4.488  19.749  0.00  0.00    +0.000 NA
ATOM      4  C   UNL     1       6.362   5.220  18.780  0.00  0.00    +0.000 A 
ATOM      5  N   UNL     1       7.221   6.127  19.210  0.00  0.00    +0.000 NA
ATOM      6  C   UNL     1       7.828   6.883  18.317  0.00  0.00    +0.000 A 
ATOM      7  N   UNL     1       8.695   7.849  18.788  0.00  0.00    +0.000 N 
ATOM      8  N   UNL     1       7.646   6.796  17.008  0.00  0.00    +0.000 NA
ATOM      9  C   UNL     1       6.787   5.861  16.583  0.00  0.00    +0.000 A 
ATOM     10  N   UNL     1       6.739   5.785  15.189  0.00  0.00    +0.000 N 
ATOM     11  C   UNL     1       6.034   5.024  17.434  0.00  0.00    +0.000 A 
ATOM     12  C   UNL     1       5.013   4.035  17.125  0.00  0.00    +0.000 A 
ATOM     13  C   UNL     1       4.535   3.772  15.717  0.00  0.00    +0.000 C 
ATOM     14  H   UNL     1       8.453   8.076  19.744  0.00  0.00    +0.000 HD
ATOM     15  H   UNL     1       8.750   8.615  18.133  0.00  0.00    +0.000 HD
ATOM     16  H   UNL     1       7.393   6.487  14.843  0.00  0.00    +0.000 HD
ATOM     17  H   UNL     1       7.015   4.862  14.872  0.00  0.00    +0.000 HD
ENDROOT
BRANCH   1  18
ATOM     18  C   UNL     1       3.415   2.186  17.976  0.00  0.00    +0.000 C 
BRANCH  18  19
ATOM     19  S   UNL     1       1.689   2.773  18.155  0.00  0.00    +0.000 S 
BRANCH  19  24
ATOM     20  C   UNL     1       2.363   6.803  18.624  0.00  0.00    +0.000 A 
ATOM     21  C   UNL     1       2.139   6.936  19.997  0.00  0.00    +0.000 A 
ATOM     22  C   UNL     1       1.754   5.840  20.760  0.00  0.00    +0.000 A 
ATOM     23  C   UNL     1       1.607   4.595  20.152  0.00  0.00    +0.000 A 
ATOM     24  C   UNL     1       1.837   4.436  18.780  0.00  0.00    +0.000 A 
ATOM     25  C   UNL     1       2.198   5.553  18.018  0.00  0.00    +0.000 A 
BRANCH  20  27
ATOM     26  C   UNL     1       1.769   8.969  17.838  0.00  0.00    +0.000 C 
ATOM     27  O   UNL     1       2.753   7.955  17.998  0.00  0.00    +0.000 OA
ENDBRANCH  20  27
ENDBRANCH  19  24
ENDBRANCH  18  19
ENDBRANCH   1  18
TORSDOF 4
ENDMDL
MODEL 4
REMARK VINA RESULT:      -6.9      5.281      7.669
REMARK  Name = 
REMARK  6 active torsions:
REMARK  status: ('A' for Active; 'I' for Inactive)
REMARK    1  A    between atoms: C_1  and  O_2
REMARK    2  A    between atoms: O_2  and  C_3
REMARK    3  A    between atoms: C_7  and  S_8
REMARK    4  A    between atoms: S_8  and  C_9
REMARK    5  A    between atoms: C_9  and  C_10
REMARK    6  A    between atoms: C_21  and  C_22
REMARK                            x       y       z     vdW  Elec       q    Type
REMARK                         _______ _______ _______ _____ _____    ______ ____
ROOT
ATOM      1  C   UNL     1       2.851   7.205  18.629  0.00  0.00    +0.000 A 
ATOM      2  C   UNL     1       3.208   8.008  17.557  0.00  0.00    +0.000 A 
ATOM      3  N   UNL     1       4.144   7.701  16.643  0.00  0.00    +0.000 NA
ATOM      4  C   UNL     1       4.836   6.581  16.767  0.00  0.00    +0.000 A 
ATOM      5  N   UNL     1       5.709   6.389  15.794  0.00  0.00    +0.000 NA
ATOM      6  C   UNL     1       6.475   5.317  15.846  0.00  0.00    +0.000 A 
ATOM      7  N   UNL     1       7.355   5.115  14.803  0.00  0.00    +0.000 N 
ATOM      8  N   UNL     1       6.441   4.414  16.815  0.00  0.00    +0.000 NA
ATOM      9  C   UNL     1       5.565   4.629  17.805  0.00  0.00    +0.000 A 
ATOM     10  N   UNL     1       5.674   3.676  18.820  0.00  0.00    +0.000 N 
ATOM     11  C   UNL     1       4.653   5.705  17.843  0.00  0.00    +0.000 A 
ATOM     12  C   UNL     1       3.599   6.017  18.795  0.00  0.00    +0.000 A 
ATOM     13  C   UNL     1       3.268   5.122  19.966  0.00  0.00    +0.000 C 
ATOM     14  H   UNL     1       7.023   5.611  13.985  0.00  0.00    +0.000 HD
ATOM     15  H   UNL     1       7.548   4.130  14.697  0.00  0.00    +0.000 HD
ATOM     16  H   UNL     1       6.417   3.040  18.534  0.00  0.00    +0.000 HD
ATOM     17  H   UNL     1       5.910   4.118  19.701  0.00  0.00    +0.000 HD
ENDROOT
BRANCH   1  18
ATOM     18  C   UNL     1       1.769   7.667  19.586  0.00  0.00    +0.000 C 
BRANCH  18  19
ATOM     19  S   UNL     1       1.177   9.366  19.241  0.00  0.00    +0.000 S 
BRANCH  19  24
ATOM     20  C   UNL     1      -1.089  11.317  22.066  0.00  0.00    +0.000 A 
ATOM     21  C   UNL     1      -0.877  10.488  23.172  0.00  0.00    +0.000 A 
ATOM     22  C   UNL     1      -0.098   9.343  23.058  0.00  0.00    +0.000 A 
ATOM     23  C   UNL     1       0.490   9.028  21.835  0.00  0.00    +0.000 A 
ATOM     24  C   UNL     1       0.300   9.850  20.716  0.00  0.00    +0.000 A 
ATOM     25  C   UNL     1      -0.508  10.985  20.837  0.00  0.00    +0.000 A 
BRANCH  20  27
ATOM     26  C   UNL     1      -2.977  12.240  23.182  0.00  0.00    +0.000 C 
ATOM     27  O   UNL     1      -1.859  12.417  22.320  0.00  0.00    +0.000 OA
ENDBRANCH  20  27
ENDBRANCH  19  24
ENDBRANCH  18  19
ENDBRANCH   1  18
TORSDOF 4
ENDMDL
MODEL 5
REMARK VINA RESULT:      -6.8      1.111      1.782
REMARK  Name = 
REMARK  6 active torsions:
REMARK  status: ('A' for Active; 'I' for Inactive)
REMARK    1  A    between atoms: C_1  and  O_2
REMARK    2  A    between atoms: O_2  and  C_3
REMARK    3  A    between atoms: C_7  and  S_8
REMARK    4  A    between atoms: S_8  and  C_9
REMARK    5  A    between atoms: C_9  and  C_10
REMARK    6  A    between atoms: C_21  and  C_22
REMARK                            x       y       z     vdW  Elec       q    Type
REMARK                         _______ _______ _______ _____ _____    ______ ____
ROOT
ATOM      1  C   UNL     1       4.069   4.023  16.810  0.00  0.00    +0.000 A 
ATOM      2  C   UNL     1       4.003   2.682  17.154  0.00  0.00    +0.000 A 
ATOM      3  N   UNL     1       3.463   2.203  18.287  0.00  0.00    +0.000 NA
ATOM      4  C   UNL     1       2.992   3.044  19.193  0.00  0.00    +0.000 A 
ATOM      5  N   UNL     1       2.472   2.445  20.249  0.00  0.00    +0.000 NA
ATOM      6  C   UNL     1       2.009   3.198  21.228  0.00  0.00    +0.000 A 
ATOM      7  N   UNL     1       1.436   2.555  22.307  0.00  0.00    +0.000 N 
ATOM      8  N   UNL     1       2.034   4.522  21.235  0.00  0.00    +0.000 NA
ATOM      9  C   UNL     1       2.581   5.118  20.167  0.00  0.00    +0.000 A 
ATOM     10  N   UNL     1       2.646   6.505  20.315  0.00  0.00    +0.000 N 
ATOM     11  C   UNL     1       3.064   4.432  19.033  0.00  0.00    +0.000 A 
ATOM     12  C   UNL     1       3.598   4.939  17.778  0.00  0.00    +0.000 A 
ATOM     13  C   UNL     1       3.675   6.415  17.464  0.00  0.00    +0.000 C 
ATOM     14  H   UNL     1       1.126   1.635  22.020  0.00  0.00    +0.000 HD
ATOM     15  H   UNL     1       0.754   3.154  22.746  0.00  0.00    +0.000 HD
ATOM     16  H   UNL     1       2.246   6.713  21.229  0.00  0.00    +0.000 HD
ATOM     17  H   UNL     1       3.608   6.824  20.272  0.00  0.00    +0.000 HD
ENDROOT
BRANCH   1  18
ATOM     18  C   UNL     1       4.700   4.431  15.493  0.00  0.00    +0.000 C 
BRANCH  18  19
ATOM     19  S   UNL     1       6.520   4.226  15.471  0.00  0.00    +0.000 S 
BRANCH  19  24
ATOM     20  C   UNL     1       7.724   5.714  19.113  0.00  0.00    +0.000 A 
ATOM     21  C   UNL     1       7.906   7.061  18.785  0.00  0.00    +0.000 A 
ATOM     22  C   UNL     1       7.707   7.505  17.482  0.00  0.00    +0.000 A 
ATOM     23  C   UNL     1       7.307   6.601  16.500  0.00  0.00    +0.000 A 
ATOM     24  C   UNL     1       7.108   5.249  16.809  0.00  0.00    +0.000 A 
ATOM     25  C   UNL     1       7.338   4.810  18.118  0.00  0.00    +0.000 A 
BRANCH  20  27
ATOM     26  C   UNL     1       9.134   4.722  20.753  0.00  0.00    +0.000 C 
ATOM     27  O   UNL     1       7.936   5.417  20.430  0.00  0.00    +0.000 OA
ENDBRANCH  20  27
ENDBRANCH  19  24
ENDBRANCH  18  19
ENDBRANCH   1  18
TORSDOF 4
ENDMDL
MODEL 6
REMARK VINA RESULT:      -6.8      5.348      7.676
REMARK  Name = 
REMARK  6 active torsions:
REMARK  status: ('A' for Active; 'I' for Inactive)
REMARK    1  A    between atoms: C_1  and  O_2
REMARK    2  A    between atoms: O_2  and  C_3
REMARK    3  A    between atoms: C_7  and  S_8
REMARK    4  A    between atoms: S_8  and  C_9
REMARK    5  A    between atoms: C_9  and  C_10
REMARK    6  A    between atoms: C_21  and  C_22
REMARK                            x       y       z     vdW  Elec       q    Type
REMARK                         _______ _______ _______ _____ _____    ______ ____
ROOT
ATOM      1  C   UNL     1       2.228   7.711  18.967  0.00  0.00    +0.000 A 
ATOM      2  C   UNL     1       2.969   8.112  17.865  0.00  0.00    +0.000 A 
ATOM      3  N   UNL     1       3.783   7.314  17.153  0.00  0.00    +0.000 NA
ATOM      4  C   UNL     1       3.958   6.058  17.528  0.00  0.00    +0.000 A 
ATOM      5  N   UNL     1       4.766   5.378  16.734  0.00  0.00    +0.000 NA
ATOM      6  C   UNL     1       5.035   4.125  17.043  0.00  0.00    +0.000 A 
ATOM      7  N   UNL     1       5.851   3.420  16.182  0.00  0.00    +0.000 N 
ATOM      8  N   UNL     1       4.559   3.493  18.106  0.00  0.00    +0.000 NA
ATOM      9  C   UNL     1       3.756   4.198  18.913  0.00  0.00    +0.000 A 
ATOM     10  N   UNL     1       3.387   3.475  20.049  0.00  0.00    +0.000 N 
ATOM     11  C   UNL     1       3.348   5.526  18.670  0.00  0.00    +0.000 A 
ATOM     12  C   UNL     1       2.424   6.381  19.400  0.00  0.00    +0.000 A 
ATOM     13  C   UNL     1       1.663   5.904  20.615  0.00  0.00    +0.000 C 
ATOM     14  H   UNL     1       5.817   3.848  15.265  0.00  0.00    +0.000 HD
ATOM     15  H   UNL     1       5.645   2.434  16.237  0.00  0.00    +0.000 HD
ATOM     16  H   UNL     1       3.839   2.565  19.967  0.00  0.00    +0.000 HD
ATOM     17  H   UNL     1       3.700   3.947  20.891  0.00  0.00    +0.000 HD
ENDROOT
BRANCH   1  18
ATOM     18  C   UNL     1       1.339   8.713  19.678  0.00  0.00    +0.000 C 
BRANCH  18  19
ATOM     19  S   UNL     1       1.266  10.339  18.837  0.00  0.00    +0.000 S 
BRANCH  19  24
ATOM     20  C   UNL     1      -2.556  10.380  17.317  0.00  0.00    +0.000 A 
ATOM     21  C   UNL     1      -3.158  11.302  18.177  0.00  0.00    +0.000 A 
ATOM     22  C   UNL     1      -2.436  11.872  19.220  0.00  0.00    +0.000 A 
ATOM     23  C   UNL     1      -1.096  11.532  19.397  0.00  0.00    +0.000 A 
ATOM     24  C   UNL     1      -0.470  10.618  18.540  0.00  0.00    +0.000 A 
ATOM     25  C   UNL     1      -1.216  10.031  17.511  0.00  0.00    +0.000 A 
BRANCH  20  27
ATOM     26  C   UNL     1      -2.982  10.172  14.985  0.00  0.00    +0.000 C 
ATOM     27  O   UNL     1      -3.374   9.911  16.327  0.00  0.00    +0.000 OA
ENDBRANCH  20  27
ENDBRANCH  19  24
ENDBRANCH  18  19
ENDBRANCH   1  18
TORSDOF 4
ENDMDL
MODEL 7
REMARK VINA RESULT:      -6.8      2.897      4.633
REMARK  Name = 
REMARK  6 active torsions:
REMARK  status: ('A' for Active; 'I' for Inactive)
REMARK    1  A    between atoms: C_1  and  O_2
REMARK    2  A    between atoms: O_2  and  C_3
REMARK    3  A    between atoms: C_7  and  S_8
REMARK    4  A    between atoms: S_8  and  C_9
REMARK    5  A    between atoms: C_9  and  C_10
REMARK    6  A    between atoms: C_21  and  C_22
REMARK                            x       y       z     vdW  Elec       q    Type
REMARK                         _______ _______ _______ _____ _____    ______ ____
ROOT
ATOM      1  C   UNL     1       4.217   5.528  17.623  0.00  0.00    +0.000 A 
ATOM      2  C   UNL     1       3.814   6.338  18.674  0.00  0.00    +0.000 A 
ATOM      3  N   UNL     1       3.147   5.914  19.760  0.00  0.00    +0.000 NA
ATOM      4  C   UNL     1       2.785   4.645  19.852  0.00  0.00    +0.000 A 
ATOM      5  N   UNL     1       2.155   4.356  20.976  0.00  0.00    +0.000 NA
ATOM      6  C   UNL     1       1.719   3.123  21.147  0.00  0.00    +0.000 A 
ATOM      7  N   UNL     1       1.096   2.830  22.343  0.00  0.00    +0.000 N 
ATOM      8  N   UNL     1       1.860   2.146  20.263  0.00  0.00    +0.000 NA
ATOM      9  C   UNL     1       2.483   2.456  19.120  0.00  0.00    +0.000 A 
ATOM     10  N   UNL     1       2.495   1.388  18.220  0.00  0.00    +0.000 N 
ATOM     11  C   UNL     1       3.043   3.719  18.834  0.00  0.00    +0.000 A 
ATOM     12  C   UNL     1       3.814   4.175  17.688  0.00  0.00    +0.000 A 
ATOM     13  C   UNL     1       4.203   3.257  16.553  0.00  0.00    +0.000 C 
ATOM     14  H   UNL     1       1.394   3.494  23.046  0.00  0.00    +0.000 HD
ATOM     15  H   UNL     1       1.204   1.851  22.560  0.00  0.00    +0.000 HD
ATOM     16  H   UNL     1       2.009   0.621  18.683  0.00  0.00    +0.000 HD
ATOM     17  H   UNL     1       2.016   1.638  17.362  0.00  0.00    +0.000 HD
ENDROOT
BRANCH   1  18
ATOM     18  C   UNL     1       4.972   6.133  16.455  0.00  0.00    +0.000 C 
BRANCH  18  19
ATOM     19  S   UNL     1       6.660   5.450  16.256  0.00  0.00    +0.000 S 
BRANCH  19  24
ATOM     20  C   UNL     1       6.140   3.622  12.607  0.00  0.00    +0.000 A 
ATOM     21  C   UNL     1       7.156   4.239  11.872  0.00  0.00    +0.000 A 
ATOM     22  C   UNL     1       7.958   5.214  12.453  0.00  0.00    +0.000 A 
ATOM     23  C   UNL     1       7.756   5.568  13.785  0.00  0.00    +0.000 A 
ATOM     24  C   UNL     1       6.750   4.956  14.544  0.00  0.00    +0.000 A 
ATOM     25  C   UNL     1       5.933   3.994  13.940  0.00  0.00    +0.000 A 
BRANCH  20  27
ATOM     26  C   UNL     1       4.231   3.082  11.293  0.00  0.00    +0.000 C 
ATOM     27  O   UNL     1       5.439   2.671  11.920  0.00  0.00    +0.000 OA
ENDBRANCH  20  27
ENDBRANCH  19  24
ENDBRANCH  18  19
ENDBRANCH   1  18
TORSDOF 4
ENDMDL
MODEL 8
REMARK VINA RESULT:      -6.7      3.797      6.133
REMARK  Name = 
REMARK  6 active torsions:
REMARK  status: ('A' for Active; 'I' for Inactive)
REMARK    1  A    between atoms: C_1  and  O_2
REMARK    2  A    between atoms: O_2  and  C_3
REMARK    3  A    between atoms: C_7  and  S_8
REMARK    4  A    between atoms: S_8  and  C_9
REMARK    5  A    between atoms: C_9  and  C_10
REMARK    6  A    between atoms: C_21  and  C_22
REMARK                            x       y       z     vdW  Elec       q    Type
REMARK                         _______ _______ _______ _____ _____    ______ ____
ROOT
ATOM      1  C   UNL     1       4.601   3.873  18.566  0.00  0.00    +0.000 A 
ATOM      2  C   UNL     1       4.069   3.154  17.506  0.00  0.00    +0.000 A 
ATOM      3  N   UNL     1       4.526   3.193  16.244  0.00  0.00    +0.000 NA
ATOM      4  C   UNL     1       5.525   4.002  15.934  0.00  0.00    +0.000 A 
ATOM      5  N   UNL     1       5.890   3.930  14.667  0.00  0.00    +0.000 NA
ATOM      6  C   UNL     1       6.855   4.726  14.249  0.00  0.00    +0.000 A 
ATOM      7  N   UNL     1       7.247   4.611  12.931  0.00  0.00    +0.000 N 
ATOM      8  N   UNL     1       7.485   5.608  15.010  0.00  0.00    +0.000 NA
ATOM      9  C   UNL     1       7.094   5.686  16.289  0.00  0.00    +0.000 A 
ATOM     10  N   UNL     1       7.750   6.706  16.979  0.00  0.00    +0.000 N 
ATOM     11  C   UNL     1       6.113   4.856  16.874  0.00  0.00    +0.000 A 
ATOM     12  C   UNL     1       5.650   4.766  18.250  0.00  0.00    +0.000 A 
ATOM     13  C   UNL     1       6.245   5.595  19.364  0.00  0.00    +0.000 C 
ATOM     14  H   UNL     1       6.999   3.691  12.589  0.00  0.00    +0.000 HD
ATOM     15  H   UNL     1       8.210   4.895  12.829  0.00  0.00    +0.000 HD
ATOM     16  H   UNL     1       8.381   7.144  16.308  0.00  0.00    +0.000 HD
ATOM     17  H   UNL     1       7.085   7.387  17.329  0.00  0.00    +0.000 HD
ENDROOT
BRANCH   1  18
ATOM     18  C   UNL     1       3.995   3.734  19.949  0.00  0.00    +0.000 C 
BRANCH  18  19
ATOM     19  S   UNL     1       2.199   4.096  19.989  0.00  0.00    +0.000 S 
BRANCH  19  24
ATOM     20  C   UNL     1       1.548   8.136  20.401  0.00  0.00    +0.000 A 
ATOM     21  C   UNL     1       1.856   8.572  19.109  0.00  0.00    +0.000 A 
ATOM     22  C   UNL     1       2.289   7.671  18.143  0.00  0.00    +0.000 A 
ATOM     23  C   UNL     1       2.401   6.319  18.463  0.00  0.00    +0.000 A 
ATOM     24  C   UNL     1       2.087   5.859  19.748  0.00  0.00    +0.000 A 
ATOM     25  C   UNL     1       1.677   6.780  20.719  0.00  0.00    +0.000 A 
BRANCH  20  27
ATOM     26  C   UNL     1       0.992  10.430  20.703  0.00  0.00    +0.000 C 
ATOM     27  O   UNL     1       1.119   9.122  21.245  0.00  0.00    +0.000 OA
ENDBRANCH  20  27
ENDBRANCH  19  24
ENDBRANCH  18  19
ENDBRANCH   1  18
TORSDOF 4
ENDMDL
MODEL 9
REMARK VINA RESULT:      -6.7      3.201      5.034
REMARK  Name = 
REMARK  6 active torsions:
REMARK  status: ('A' for Active; 'I' for Inactive)
REMARK    1  A    between atoms: C_1  and  O_2
REMARK    2  A    between atoms: O_2  and  C_3
REMARK    3  A    between atoms: C_7  and  S_8
REMARK    4  A    between atoms: S_8  and  C_9
REMARK    5  A    between atoms: C_9  and  C_10
REMARK    6  A    between atoms: C_21  and  C_22
REMARK                            x       y       z     vdW  Elec       q    Type
REMARK                         _______ _______ _______ _____ _____    ______ ____
ROOT
ATOM      1  C   UNL     1       4.339   4.955  17.627  0.00  0.00    +0.000 A 
ATOM      2  C   UNL     1       4.196   6.273  17.221  0.00  0.00    +0.000 A 
ATOM      3  N   UNL     1       3.476   7.204  17.867  0.00  0.00    +0.000 NA
ATOM      4  C   UNL     1       2.794   6.869  18.950  0.00  0.00    +0.000 A 
ATOM      5  N   UNL     1       2.146   7.879  19.500  0.00  0.00    +0.000 NA
ATOM      6  C   UNL     1       1.406   7.640  20.565  0.00  0.00    +0.000 A 
ATOM      7  N   UNL     1       0.764   8.714  21.147  0.00  0.00    +0.000 N 
ATOM      8  N   UNL     1       1.255   6.448  21.125  0.00  0.00    +0.000 NA
ATOM      9  C   UNL     1       1.903   5.428  20.547  0.00  0.00    +0.000 A 
ATOM     10  N   UNL     1       1.604   4.206  21.152  0.00  0.00    +0.000 N 
ATOM     11  C   UNL     1       2.767   5.557  19.439  0.00  0.00    +0.000 A 
ATOM     12  C   UNL     1       3.595   4.569  18.766  0.00  0.00    +0.000 A 
ATOM     13  C   UNL     1       3.692   3.136  19.232  0.00  0.00    +0.000 C 
ATOM     14  H   UNL     1       1.249   9.567  20.898  0.00  0.00    +0.000 HD
ATOM     15  H   UNL     1       0.617   8.540  22.130  0.00  0.00    +0.000 HD
ATOM     16  H   UNL     1       0.948   4.413  21.904  0.00  0.00    +0.000 HD
ATOM     17  H   UNL     1       1.182   3.570  20.484  0.00  0.00    +0.000 HD
ENDROOT
BRANCH   1  18
ATOM     18  C   UNL     1       5.189   4.004  16.808  0.00  0.00    +0.000 C 
BRANCH  18  19
ATOM     19  S   UNL     1       6.767   4.747  16.247  0.00  0.00    +0.000 S 
BRANCH  19  24
ATOM     20  C   UNL     1       6.081   3.490  12.391  0.00  0.00    +0.000 A 
ATOM     21  C   UNL     1       7.025   4.259  11.705  0.00  0.00    +0.000 A 
ATOM     22  C   UNL     1       7.827   5.168  12.387  0.00  0.00    +0.000 A 
ATOM     23  C   UNL     1       7.698   5.300  13.768  0.00  0.00    +0.000 A 
ATOM     24  C   UNL     1       6.765   4.531  14.476  0.00  0.00    +0.000 A 
ATOM     25  C   UNL     1       5.946   3.639  13.775  0.00  0.00    +0.000 A 
BRANCH  20  27
ATOM     26  C   UNL     1       4.071   3.034  11.201  0.00  0.00    +0.000 C 
ATOM     27  O   UNL     1       5.373   2.626  11.603  0.00  0.00    +0.000 OA
ENDBRANCH  20  27
ENDBRANCH  19  24
ENDBRANCH  18  19
ENDBRANCH   1  18
TORSDOF 4
ENDMDL
