MODEL 1
REMARK VINA RESULT:      -8.2      0.000      0.000
REMARK  Name = 
REMARK  11 active torsions:
REMARK  status: ('A' for Active; 'I' for Inactive)
REMARK    1  A    between atoms: C_1  and  C_2
REMARK    2  A    between atoms: C_2  and  C_3
REMARK    3  A    between atoms: C_3  and  C_4
REMARK    4  A    between atoms: C_3  and  N_5
REMARK    5  A    between atoms: N_5  and  S_6
REMARK    6  A    between atoms: S_6  and  C_9
REMARK    7  A    between atoms: C_12  and  O_13
REMARK    8  A    between atoms: O_13  and  C_14
REMARK    9  A    between atoms: C_14  and  C_15
REMARK   10  A    between atoms: N_17  and  C_18
REMARK   11  A    between atoms: C_18  and  C_19
REMARK                            x       y       z     vdW  Elec       q    Type
REMARK                         _______ _______ _______ _____ _____    ______ ____
ROOT
ATOM      1  O   UNL     1       2.005   1.987  18.632  0.00  0.00    +0.000 OA
ENDROOT
BRANCH   1   5
ATOM      2  C   UNL     1       5.218   4.326  17.449  0.00  0.00    +0.000 A 
ATOM      3  C   UNL     1       4.104   4.150  16.625  0.00  0.00    +0.000 A 
ATOM      4  C   UNL     1       3.043   3.361  17.064  0.00  0.00    +0.000 A 
ATOM      5  C   UNL     1       3.112   2.711  18.302  0.00  0.00    +0.000 A 
ATOM      6  C   UNL     1       4.231   2.871  19.118  0.00  0.00    +0.000 A 
ATOM      7  C   UNL     1       5.291   3.678  18.690  0.00  0.00    +0.000 A 
BRANCH   2   8
ATOM      8  S   UNL     1       6.581   5.342  16.909  0.00  0.00    +0.000 S 
ATOM      9  O   UNL     1       7.808   4.598  17.092  0.00  0.00    +0.000 OA
ATOM     10  O   UNL     1       6.371   6.638  17.511  0.00  0.00    +0.000 OA
BRANCH   8  11
ATOM     11  N   UNL     1       6.298   5.514  15.251  0.00  0.00    +0.000 NA
ATOM     12  H   UNL     1       5.352   5.828  15.045  0.00  0.00    +0.000 HD
BRANCH  11  13
ATOM     13  C   UNL     1       6.873   4.541  14.290  0.00  0.00    +0.000 C 
ATOM     14  C   UNL     1       7.753   5.328  13.313  0.00  0.00    +0.000 C 
BRANCH  13  16
ATOM     15  C   UNL     1       6.107   3.369  12.144  0.00  0.00    +0.000 C 
ATOM     16  C   UNL     1       5.768   3.764  13.571  0.00  0.00    +0.000 C 
ENDBRANCH  13  16
ENDBRANCH  11  13
ENDBRANCH   8  11
ENDBRANCH   2   8
ENDBRANCH   1   5
BRANCH   1  17
ATOM     17  C   UNL     1       0.846   2.740  18.994  0.00  0.00    +0.000 C 
BRANCH  17  18
ATOM     18  C   UNL     1       1.187   3.602  20.207  0.00  0.00    +0.000 C 
ATOM     19  O   UNL     1       1.220   3.154  21.348  0.00  0.00    +0.000 OA
ATOM     20  N   UNL     1       1.502   4.910  19.892  0.00  0.00    +0.000 N 
ATOM     21  H   UNL     1       1.309   5.201  18.941  0.00  0.00    +0.000 HD
BRANCH  20  22
ATOM     22  C   UNL     1       1.766   5.903  20.891  0.00  0.00    +0.000 C 
BRANCH  22  23
ATOM     23  C   UNL     1       1.734   7.286  20.298  0.00  0.00    +0.000 A 
ATOM     24  C   UNL     1       2.223   7.530  18.992  0.00  0.00    +0.000 A 
ATOM     25  C   UNL     1       1.954   8.738  18.340  0.00  0.00    +0.000 A 
ATOM     26  C   UNL     1       1.169   9.651  19.006  0.00  0.00    +0.000 A 
ATOM     27  C   UNL     1       0.764   9.453  20.307  0.00  0.00    +0.000 A 
ATOM     28  C   UNL     1       1.063   8.304  20.996  0.00  0.00    +0.000 A 
ATOM     29  O   UNL     1      -0.072  10.437  20.740  0.00  0.00    +0.000 OA
ATOM     30  C   UNL     1      -0.420  11.006  19.463  0.00  0.00    +0.000 C 
ATOM     31  O   UNL     1       0.600  10.768  18.468  0.00  0.00    +0.000 OA
ENDBRANCH  22  23
ENDBRANCH  20  22
ENDBRANCH  17  18
ENDBRANCH   1  17
TORSDOF 9
ENDMDL
MODEL 2
REMARK VINA RESULT:      -7.8      6.737      9.076
REMARK  Name = 
REMARK  11 active torsions:
REMARK  status: ('A' for Active; 'I' for Inactive)
REMARK    1  A    between atoms: C_1  and  C_2
REMARK    2  A    between atoms: C_2  and  C_3
REMARK    3  A    between atoms: C_3  and  C_4
REMARK    4  A    between atoms: C_3  and  N_5
REMARK    5  A    between atoms: N_5  and  S_6
REMARK    6  A    between atoms: S_6  and  C_9
REMARK    7  A    between atoms: C_12  and  O_13
REMARK    8  A    between atoms: O_13  and  C_14
REMARK    9  A    between atoms: C_14  and  C_15
REMARK   10  A    between atoms: N_17  and  C_18
REMARK   11  A    between atoms: C_18  and  C_19
REMARK                            x       y       z     vdW  Elec       q    Type
REMARK                         _______ _______ _______ _____ _____    ______ ____
ROOT
ATOM      1  O   UNL     1       8.851   9.153  18.968  0.00  0.00    +0.000 OA
ENDROOT
BRANCH   1   5
ATOM      2  C   UNL     1      10.074  13.104  19.255  0.00  0.00    +0.000 A 
ATOM      3  C   UNL     1       9.859  12.498  18.015  0.00  0.00    +0.000 A 
ATOM      4  C   UNL     1       9.441  11.170  17.964  0.00  0.00    +0.000 A 
ATOM      5  C   UNL     1       9.284  10.434  19.144  0.00  0.00    +0.000 A 
ATOM      6  C   UNL     1       9.516  11.032  20.382  0.00  0.00    +0.000 A 
ATOM      7  C   UNL     1       9.918  12.371  20.440  0.00  0.00    +0.000 A 
BRANCH   2   8
ATOM      8  S   UNL     1      10.598  14.808  19.342  0.00  0.00    +0.000 S 
ATOM      9  O   UNL     1      11.162  15.179  18.063  0.00  0.00    +0.000 OA
ATOM     10  O   UNL     1      11.341  14.931  20.574  0.00  0.00    +0.000 OA
BRANCH   8  11
ATOM     11  N   UNL     1       9.145  15.645  19.553  0.00  0.00    +0.000 NA
ATOM     12  H   UNL     1       8.566  15.248  20.292  0.00  0.00    +0.000 HD
BRANCH  11  13
ATOM     13  C   UNL     1       8.408  16.172  18.378  0.00  0.00    +0.000 C 
ATOM     14  C   UNL     1       8.508  17.700  18.424  0.00  0.00    +0.000 C 
BRANCH  13  16
ATOM     15  C   UNL     1       6.735  14.363  17.675  0.00  0.00    +0.000 C 
ATOM     16  C   UNL     1       6.956  15.690  18.381  0.00  0.00    +0.000 C 
ENDBRANCH  13  16
ENDBRANCH  11  13
ENDBRANCH   8  11
ENDBRANCH   2   8
ENDBRANCH   1   5
BRANCH   1  17
ATOM     17  C   UNL     1       7.991   8.928  17.849  0.00  0.00    +0.000 C 
BRANCH  17  18
ATOM     18  C   UNL     1       7.669   7.438  17.776  0.00  0.00    +0.000 C 
ATOM     19  O   UNL     1       8.054   6.638  18.622  0.00  0.00    +0.000 OA
ATOM     20  N   UNL     1       6.869   7.091  16.706  0.00  0.00    +0.000 N 
ATOM     21  H   UNL     1       6.727   7.805  16.001  0.00  0.00    +0.000 HD
BRANCH  20  22
ATOM     22  C   UNL     1       6.523   5.731  16.408  0.00  0.00    +0.000 C 
BRANCH  22  23
ATOM     23  C   UNL     1       5.125   5.417  16.869  0.00  0.00    +0.000 A 
ATOM     24  C   UNL     1       4.558   4.138  16.652  0.00  0.00    +0.000 A 
ATOM     25  C   UNL     1       3.381   3.755  17.305  0.00  0.00    +0.000 A 
ATOM     26  C   UNL     1       2.830   4.657  18.186  0.00  0.00    +0.000 A 
ATOM     27  C   UNL     1       3.330   5.932  18.335  0.00  0.00    +0.000 A 
ATOM     28  C   UNL     1       4.449   6.358  17.662  0.00  0.00    +0.000 A 
ATOM     29  O   UNL     1       2.688   6.625  19.316  0.00  0.00    +0.000 OA
ATOM     30  C   UNL     1       2.042   5.519  19.977  0.00  0.00    +0.000 C 
ATOM     31  O   UNL     1       1.838   4.400  19.087  0.00  0.00    +0.000 OA
ENDBRANCH  22  23
ENDBRANCH  20  22
ENDBRANCH  17  18
ENDBRANCH   1  17
TORSDOF 9
ENDMDL
MODEL 3
REMARK VINA RESULT:      -7.7      1.233      1.663
REMARK  Name = 
REMARK  11 active torsions:
REMARK  status: ('A' for Active; 'I' for Inactive)
REMARK    1  A    between atoms: C_1  and  C_2
REMARK    2  A    between atoms: C_2  and  C_3
REMARK    3  A    between atoms: C_3  and  C_4
REMARK    4  A    between atoms: C_3  and  N_5
REMARK    5  A    between atoms: N_5  and  S_6
REMARK    6  A    between atoms: S_6  and  C_9
REMARK    7  A    between atoms: C_12  and  O_13
REMARK    8  A    between atoms: O_13  and  C_14
REMARK    9  A    between atoms: C_14  and  C_15
REMARK   10  A    between atoms: N_17  and  C_18
REMARK   11  A    between atoms: C_18  and  C_19
REMARK                            x       y       z     vdW  Elec       q    Type
REMARK                         _______ _______ _______ _____ _____    ______ ____
ROOT
ATOM      1  O   UNL     1       3.597   2.063  19.555  0.00  0.00    +0.000 OA
ENDROOT
BRANCH   1   5
ATOM      2  C   UNL     1       5.629   4.802  17.198  0.00  0.00    +0.000 A 
ATOM      3  C   UNL     1       4.608   4.007  16.672  0.00  0.00    +0.000 A 
ATOM      4  C   UNL     1       3.946   3.104  17.502  0.00  0.00    +0.000 A 
ATOM      5  C   UNL     1       4.332   2.960  18.839  0.00  0.00    +0.000 A 
ATOM      6  C   UNL     1       5.363   3.740  19.361  0.00  0.00    +0.000 A 
ATOM      7  C   UNL     1       6.019   4.663  18.537  0.00  0.00    +0.000 A 
BRANCH   2   8
ATOM      8  S   UNL     1       6.480   5.974  16.155  0.00  0.00    +0.000 S 
ATOM      9  O   UNL     1       7.482   6.650  16.948  0.00  0.00    +0.000 OA
ATOM     10  O   UNL     1       5.448   6.692  15.444  0.00  0.00    +0.000 OA
BRANCH   8  11
ATOM     11  N   UNL     1       7.262   4.985  15.028  0.00  0.00    +0.000 NA
ATOM     12  H   UNL     1       8.260   4.894  15.212  0.00  0.00    +0.000 HD
BRANCH  11  13
ATOM     13  C   UNL     1       6.878   5.035  13.596  0.00  0.00    +0.000 C 
ATOM     14  C   UNL     1       6.287   3.668  13.235  0.00  0.00    +0.000 C 
BRANCH  13  16
ATOM     15  C   UNL     1       7.713   5.982  11.367  0.00  0.00    +0.000 C 
ATOM     16  C   UNL     1       8.078   5.393  12.719  0.00  0.00    +0.000 C 
ENDBRANCH  13  16
ENDBRANCH  11  13
ENDBRANCH   8  11
ENDBRANCH   2   8
ENDBRANCH   1   5
BRANCH   1  17
ATOM     17  C   UNL     1       3.585   2.250  20.973  0.00  0.00    +0.000 C 
BRANCH  17  18
ATOM     18  C   UNL     1       2.455   3.216  21.324  0.00  0.00    +0.000 C 
ATOM     19  O   UNL     1       1.542   2.915  22.084  0.00  0.00    +0.000 OA
ATOM     20  N   UNL     1       2.590   4.464  20.749  0.00  0.00    +0.000 N 
ATOM     21  H   UNL     1       3.303   4.556  20.036  0.00  0.00    +0.000 HD
BRANCH  20  22
ATOM     22  C   UNL     1       1.594   5.487  20.883  0.00  0.00    +0.000 C 
BRANCH  22  23
ATOM     23  C   UNL     1       1.962   6.706  20.080  0.00  0.00    +0.000 A 
ATOM     24  C   UNL     1       2.650   6.586  18.848  0.00  0.00    +0.000 A 
ATOM     25  C   UNL     1       2.756   7.675  17.976  0.00  0.00    +0.000 A 
ATOM     26  C   UNL     1       2.135   8.843  18.353  0.00  0.00    +0.000 A 
ATOM     27  C   UNL     1       1.539   8.989  19.586  0.00  0.00    +0.000 A 
ATOM     28  C   UNL     1       1.472   7.957  20.488  0.00  0.00    +0.000 A 
ATOM     29  O   UNL     1       0.913  10.192  19.716  0.00  0.00    +0.000 OA
ATOM     30  C   UNL     1       0.868  10.566  18.325  0.00  0.00    +0.000 C 
ATOM     31  O   UNL     1       1.916   9.931  17.559  0.00  0.00    +0.000 OA
ENDBRANCH  22  23
ENDBRANCH  20  22
ENDBRANCH  17  18
ENDBRANCH   1  17
TORSDOF 9
ENDMDL
MODEL 4
REMARK VINA RESULT:      -7.7      3.312      8.522
REMARK  Name = 
REMARK  11 active torsions:
REMARK  status: ('A' for Active; 'I' for Inactive)
REMARK    1  A    between atoms: C_1  and  C_2
REMARK    2  A    between atoms: C_2  and  C_3
REMARK    3  A    between atoms: C_3  and  C_4
REMARK    4  A    between atoms: C_3  and  N_5
REMARK    5  A    between atoms: N_5  and  S_6
REMARK    6  A    between atoms: S_6  and  C_9
REMARK    7  A    between atoms: C_12  and  O_13
REMARK    8  A    between atoms: O_13  and  C_14
REMARK    9  A    between atoms: C_14  and  C_15
REMARK   10  A    between atoms: N_17  and  C_18
REMARK   11  A    between atoms: C_18  and  C_19
REMARK                            x       y       z     vdW  Elec       q    Type
REMARK                         _______ _______ _______ _____ _____    ______ ____
ROOT
ATOM      1  O   UNL     1       2.379   7.499  20.235  0.00  0.00    +0.000 OA
ENDROOT
BRANCH   1   5
ATOM      2  C   UNL     1      -0.313  10.370  18.932  0.00  0.00    +0.000 A 
ATOM      3  C   UNL     1       0.631   9.812  18.066  0.00  0.00    +0.000 A 
ATOM      4  C   UNL     1       1.512   8.845  18.543  0.00  0.00    +0.000 A 
ATOM      5  C   UNL     1       1.485   8.469  19.891  0.00  0.00    +0.000 A 
ATOM      6  C   UNL     1       0.556   9.038  20.761  0.00  0.00    +0.000 A 
ATOM      7  C   UNL     1      -0.344   9.997  20.282  0.00  0.00    +0.000 A 
BRANCH   2   8
ATOM      8  S   UNL     1      -1.458  11.602  18.336  0.00  0.00    +0.000 S 
ATOM      9  O   UNL     1      -2.356  11.952  19.414  0.00  0.00    +0.000 OA
ATOM     10  O   UNL     1      -1.939  11.112  17.065  0.00  0.00    +0.000 OA
BRANCH   8  11
ATOM     11  N   UNL     1      -0.461  12.928  18.012  0.00  0.00    +0.000 NA
ATOM     12  H   UNL     1       0.180  12.758  17.239  0.00  0.00    +0.000 HD
BRANCH  11  13
ATOM     13  C   UNL     1       0.082  13.744  19.126  0.00  0.00    +0.000 C 
ATOM     14  C   UNL     1      -0.076  15.217  18.732  0.00  0.00    +0.000 C 
BRANCH  13  16
ATOM     15  C   UNL     1       2.378  13.127  18.171  0.00  0.00    +0.000 C 
ATOM     16  C   UNL     1       1.539  13.378  19.413  0.00  0.00    +0.000 C 
ENDBRANCH  13  16
ENDBRANCH  11  13
ENDBRANCH   8  11
ENDBRANCH   2   8
ENDBRANCH   1   5
BRANCH   1  17
ATOM     17  C   UNL     1       1.839   6.194  20.454  0.00  0.00    +0.000 C 
BRANCH  17  18
ATOM     18  C   UNL     1       2.412   5.249  19.402  0.00  0.00    +0.000 C 
ATOM     19  O   UNL     1       1.844   5.021  18.339  0.00  0.00    +0.000 OA
ATOM     20  N   UNL     1       3.643   4.721  19.737  0.00  0.00    +0.000 N 
ATOM     21  H   UNL     1       3.950   4.868  20.691  0.00  0.00    +0.000 HD
BRANCH  20  22
ATOM     22  C   UNL     1       4.313   3.746  18.927  0.00  0.00    +0.000 C 
BRANCH  22  23
ATOM     23  C   UNL     1       5.139   4.409  17.857  0.00  0.00    +0.000 A 
ATOM     24  C   UNL     1       6.421   4.933  18.149  0.00  0.00    +0.000 A 
ATOM     25  C   UNL     1       7.296   5.302  17.121  0.00  0.00    +0.000 A 
ATOM     26  C   UNL     1       6.869   5.098  15.830  0.00  0.00    +0.000 A 
ATOM     27  C   UNL     1       5.592   4.669  15.542  0.00  0.00    +0.000 A 
ATOM     28  C   UNL     1       4.690   4.356  16.528  0.00  0.00    +0.000 A 
ATOM     29  O   UNL     1       5.411   4.453  14.209  0.00  0.00    +0.000 OA
ATOM     30  C   UNL     1       6.793   4.421  13.803  0.00  0.00    +0.000 C 
ATOM     31  O   UNL     1       7.641   5.164  14.706  0.00  0.00    +0.000 OA
ENDBRANCH  22  23
ENDBRANCH  20  22
ENDBRANCH  17  18
ENDBRANCH   1  17
TORSDOF 9
ENDMDL
MODEL 5
REMARK VINA RESULT:      -7.6      3.273      5.502
REMARK  Name = 
REMARK  11 active torsions:
REMARK  status: ('A' for Active; 'I' for Inactive)
REMARK    1  A    between atoms: C_1  and  C_2
REMARK    2  A    between atoms: C_2  and  C_3
REMARK    3  A    between atoms: C_3  and  C_4
REMARK    4  A    between atoms: C_3  and  N_5
REMARK    5  A    between atoms: N_5  and  S_6
REMARK    6  A    between atoms: S_6  and  C_9
REMARK    7  A    between atoms: C_12  and  O_13
REMARK    8  A    between atoms: O_13  and  C_14
REMARK    9  A    between atoms: C_14  and  C_15
REMARK   10  A    between atoms: N_17  and  C_18
REMARK   11  A    between atoms: C_18  and  C_19
REMARK                            x       y       z     vdW  Elec       q    Type
REMARK                         _______ _______ _______ _____ _____    ______ ____
ROOT
ATOM      1  O   UNL     1       1.744   8.807  19.556  0.00  0.00    +0.000 OA
ENDROOT
BRANCH   1   5
ATOM      2  C   UNL     1       3.557   5.154  18.809  0.00  0.00    +0.000 A 
ATOM      3  C   UNL     1       3.551   6.171  17.852  0.00  0.00    +0.000 A 
ATOM      4  C   UNL     1       2.936   7.386  18.147  0.00  0.00    +0.000 A 
ATOM      5  C   UNL     1       2.289   7.571  19.374  0.00  0.00    +0.000 A 
ATOM      6  C   UNL     1       2.279   6.549  20.323  0.00  0.00    +0.000 A 
ATOM      7  C   UNL     1       2.911   5.333  20.040  0.00  0.00    +0.000 A 
BRANCH   2   8
ATOM      8  S   UNL     1       4.350   3.595  18.455  0.00  0.00    +0.000 S 
ATOM      9  O   UNL     1       4.098   3.256  17.072  0.00  0.00    +0.000 OA
ATOM     10  O   UNL     1       3.988   2.712  19.540  0.00  0.00    +0.000 OA
BRANCH   8  11
ATOM     11  N   UNL     1       5.993   3.951  18.632  0.00  0.00    +0.000 NA
ATOM     12  H   UNL     1       6.304   3.899  19.601  0.00  0.00    +0.000 HD
BRANCH  11  13
ATOM     13  C   UNL     1       6.618   5.021  17.816  0.00  0.00    +0.000 C 
ATOM     14  C   UNL     1       7.236   4.354  16.584  0.00  0.00    +0.000 C 
BRANCH  13  16
ATOM     15  C   UNL     1       7.820   7.248  18.214  0.00  0.00    +0.000 C 
ATOM     16  C   UNL     1       7.654   5.797  18.632  0.00  0.00    +0.000 C 
ENDBRANCH  13  16
ENDBRANCH  11  13
ENDBRANCH   8  11
ENDBRANCH   2   8
ENDBRANCH   1   5
BRANCH   1  17
ATOM     17  C   UNL     1       1.262   9.094  20.870  0.00  0.00    +0.000 C 
BRANCH  17  18
ATOM     18  C   UNL     1       0.380  10.338  20.802  0.00  0.00    +0.000 C 
ATOM     19  O   UNL     1       0.561  11.316  21.519  0.00  0.00    +0.000 OA
ATOM     20  N   UNL     1      -0.597  10.277  19.828  0.00  0.00    +0.000 N 
ATOM     21  H   UNL     1      -0.741   9.374  19.392  0.00  0.00    +0.000 HD
BRANCH  20  22
ATOM     22  C   UNL     1      -1.583  11.304  19.657  0.00  0.00    +0.000 C 
BRANCH  22  23
ATOM     23  C   UNL     1      -2.507  10.980  18.514  0.00  0.00    +0.000 A 
ATOM     24  C   UNL     1      -3.734  11.667  18.353  0.00  0.00    +0.000 A 
ATOM     25  C   UNL     1      -4.463  11.565  17.162  0.00  0.00    +0.000 A 
ATOM     26  C   UNL     1      -3.916  10.805  16.155  0.00  0.00    +0.000 A 
ATOM     27  C   UNL     1      -2.767  10.067  16.338  0.00  0.00    +0.000 A 
ATOM     28  C   UNL     1      -2.062  10.099  17.516  0.00  0.00    +0.000 A 
ATOM     29  O   UNL     1      -2.358   9.459  15.190  0.00  0.00    +0.000 OA
ATOM     30  C   UNL     1      -3.145  10.217  14.250  0.00  0.00    +0.000 C 
ATOM     31  O   UNL     1      -4.334  10.767  14.857  0.00  0.00    +0.000 OA
ENDBRANCH  22  23
ENDBRANCH  20  22
ENDBRANCH  17  18
ENDBRANCH   1  17
TORSDOF 9
ENDMDL
MODEL 6
REMARK VINA RESULT:      -7.5      2.851      8.173
REMARK  Name = 
REMARK  11 active torsions:
REMARK  status: ('A' for Active; 'I' for Inactive)
REMARK    1  A    between atoms: C_1  and  C_2
REMARK    2  A    between atoms: C_2  and  C_3
REMARK    3  A    between atoms: C_3  and  C_4
REMARK    4  A    between atoms: C_3  and  N_5
REMARK    5  A    between atoms: N_5  and  S_6
REMARK    6  A    between atoms: S_6  and  C_9
REMARK    7  A    between atoms: C_12  and  O_13
REMARK    8  A    between atoms: O_13  and  C_14
REMARK    9  A    between atoms: C_14  and  C_15
REMARK   10  A    between atoms: N_17  and  C_18
REMARK   11  A    between atoms: C_18  and  C_19
REMARK                            x       y       z     vdW  Elec       q    Type
REMARK                         _______ _______ _______ _____ _____    ______ ____
ROOT
ATOM      1  O   UNL     1       2.139   5.500  20.539  0.00  0.00    +0.000 OA
ENDROOT
BRANCH   1   5
ATOM      2  C   UNL     1       1.156   9.458  19.790  0.00  0.00    +0.000 A 
ATOM      3  C   UNL     1       0.762   8.821  20.969  0.00  0.00    +0.000 A 
ATOM      4  C   UNL     1       1.120   7.492  21.184  0.00  0.00    +0.000 A 
ATOM      5  C   UNL     1       1.827   6.784  20.206  0.00  0.00    +0.000 A 
ATOM      6  C   UNL     1       2.206   7.413  19.020  0.00  0.00    +0.000 A 
ATOM      7  C   UNL     1       1.866   8.753  18.807  0.00  0.00    +0.000 A 
BRANCH   2   8
ATOM      8  S   UNL     1       0.719  11.163  19.501  0.00  0.00    +0.000 S 
ATOM      9  O   UNL     1      -0.675  11.220  19.120  0.00  0.00    +0.000 OA
ATOM     10  O   UNL     1       1.766  11.704  18.667  0.00  0.00    +0.000 OA
BRANCH   8  11
ATOM     11  N   UNL     1       0.888  11.866  21.029  0.00  0.00    +0.000 NA
ATOM     12  H   UNL     1       1.184  11.197  21.739  0.00  0.00    +0.000 HD
BRANCH  11  13
ATOM     13  C   UNL     1      -0.071  12.901  21.487  0.00  0.00    +0.000 C 
ATOM     14  C   UNL     1       0.736  14.166  21.799  0.00  0.00    +0.000 C 
BRANCH  13  16
ATOM     15  C   UNL     1      -2.346  12.192  22.428  0.00  0.00    +0.000 C 
ATOM     16  C   UNL     1      -0.867  12.412  22.698  0.00  0.00    +0.000 C 
ENDBRANCH  13  16
ENDBRANCH  11  13
ENDBRANCH   8  11
ENDBRANCH   2   8
ENDBRANCH   1   5
BRANCH   1  17
ATOM     17  C   UNL     1       1.166   4.509  20.199  0.00  0.00    +0.000 C 
BRANCH  17  18
ATOM     18  C   UNL     1       1.673   3.727  18.989  0.00  0.00    +0.000 C 
ATOM     19  O   UNL     1       0.943   3.014  18.311  0.00  0.00    +0.000 OA
ATOM     20  N   UNL     1       3.008   3.941  18.706  0.00  0.00    +0.000 N 
ATOM     21  H   UNL     1       3.542   4.438  19.409  0.00  0.00    +0.000 HD
BRANCH  20  22
ATOM     22  C   UNL     1       3.699   3.237  17.665  0.00  0.00    +0.000 C 
BRANCH  22  23
ATOM     23  C   UNL     1       4.948   3.971  17.255  0.00  0.00    +0.000 A 
ATOM     24  C   UNL     1       5.216   4.245  15.892  0.00  0.00    +0.000 A 
ATOM     25  C   UNL     1       6.220   5.149  15.527  0.00  0.00    +0.000 A 
ATOM     26  C   UNL     1       6.900   5.778  16.544  0.00  0.00    +0.000 A 
ATOM     27  C   UNL     1       6.701   5.451  17.867  0.00  0.00    +0.000 A 
ATOM     28  C   UNL     1       5.764   4.524  18.254  0.00  0.00    +0.000 A 
ATOM     29  O   UNL     1       7.412   6.252  18.708  0.00  0.00    +0.000 OA
ATOM     30  C   UNL     1       7.732   7.309  17.782  0.00  0.00    +0.000 C 
ATOM     31  O   UNL     1       7.735   6.848  16.413  0.00  0.00    +0.000 OA
ENDBRANCH  22  23
ENDBRANCH  20  22
ENDBRANCH  17  18
ENDBRANCH   1  17
TORSDOF 9
ENDMDL
MODEL 7
REMARK VINA RESULT:      -7.5      5.925      8.096
REMARK  Name = 
REMARK  11 active torsions:
REMARK  status: ('A' for Active; 'I' for Inactive)
REMARK    1  A    between atoms: C_1  and  C_2
REMARK    2  A    between atoms: C_2  and  C_3
REMARK    3  A    between atoms: C_3  and  C_4
REMARK    4  A    between atoms: C_3  and  N_5
REMARK    5  A    between atoms: N_5  and  S_6
REMARK    6  A    between atoms: S_6  and  C_9
REMARK    7  A    between atoms: C_12  and  O_13
REMARK    8  A    between atoms: O_13  and  C_14
REMARK    9  A    between atoms: C_14  and  C_15
REMARK   10  A    between atoms: N_17  and  C_18
REMARK   11  A    between atoms: C_18  and  C_19
REMARK                            x       y       z     vdW  Elec       q    Type
REMARK                         _______ _______ _______ _____ _____    ______ ____
ROOT
ATOM      1  O   UNL     1       7.680   6.779  16.846  0.00  0.00    +0.000 OA
ENDROOT
BRANCH   1   5
ATOM      2  C   UNL     1       4.987   3.897  18.121  0.00  0.00    +0.000 A 
ATOM      3  C   UNL     1       5.123   4.217  16.768  0.00  0.00    +0.000 A 
ATOM      4  C   UNL     1       6.045   5.187  16.382  0.00  0.00    +0.000 A 
ATOM      5  C   UNL     1       6.796   5.870  17.345  0.00  0.00    +0.000 A 
ATOM      6  C   UNL     1       6.648   5.564  18.698  0.00  0.00    +0.000 A 
ATOM      7  C   UNL     1       5.737   4.577  19.090  0.00  0.00    +0.000 A 
BRANCH   2   8
ATOM      8  S   UNL     1       3.819   2.648  18.634  0.00  0.00    +0.000 S 
ATOM      9  O   UNL     1       4.224   2.147  19.928  0.00  0.00    +0.000 OA
ATOM     10  O   UNL     1       3.644   1.779  17.494  0.00  0.00    +0.000 OA
BRANCH   8  11
ATOM     11  N   UNL     1       2.382   3.520  18.818  0.00  0.00    +0.000 NA
ATOM     12  H   UNL     1       2.072   3.954  17.951  0.00  0.00    +0.000 HD
BRANCH  11  13
ATOM     13  C   UNL     1       2.141   4.309  20.050  0.00  0.00    +0.000 C 
ATOM     14  C   UNL     1       0.764   3.906  20.589  0.00  0.00    +0.000 C 
BRANCH  13  16
ATOM     15  C   UNL     1       2.274   6.165  18.289  0.00  0.00    +0.000 C 
ATOM     16  C   UNL     1       2.230   5.810  19.765  0.00  0.00    +0.000 C 
ENDBRANCH  13  16
ENDBRANCH  11  13
ENDBRANCH   8  11
ENDBRANCH   2   8
ENDBRANCH   1   5
BRANCH   1  17
ATOM     17  C   UNL     1       7.417   8.149  17.159  0.00  0.00    +0.000 C 
BRANCH  17  18
ATOM     18  C   UNL     1       8.353   8.577  18.287  0.00  0.00    +0.000 C 
ATOM     19  O   UNL     1       8.829   7.779  19.087  0.00  0.00    +0.000 OA
ATOM     20  N   UNL     1       8.648   9.926  18.286  0.00  0.00    +0.000 N 
ATOM     21  H   UNL     1       8.093  10.506  17.668  0.00  0.00    +0.000 HD
BRANCH  20  22
ATOM     22  C   UNL     1       9.437  10.544  19.311  0.00  0.00    +0.000 C 
BRANCH  22  23
ATOM     23  C   UNL     1      10.087  11.804  18.805  0.00  0.00    +0.000 A 
ATOM     24  C   UNL     1      10.973  11.773  17.702  0.00  0.00    +0.000 A 
ATOM     25  C   UNL     1      11.365  12.955  17.063  0.00  0.00    +0.000 A 
ATOM     26  C   UNL     1      10.823  14.130  17.530  0.00  0.00    +0.000 A 
ATOM     27  C   UNL     1      10.029  14.173  18.654  0.00  0.00    +0.000 A 
ATOM     28  C   UNL     1       9.676  13.036  19.339  0.00  0.00    +0.000 A 
ATOM     29  O   UNL     1       9.533  15.419  18.886  0.00  0.00    +0.000 OA
ATOM     30  C   UNL     1       9.791  16.002  17.594  0.00  0.00    +0.000 C 
ATOM     31  O   UNL     1      10.883  15.345  16.912  0.00  0.00    +0.000 OA
ENDBRANCH  22  23
ENDBRANCH  20  22
ENDBRANCH  17  18
ENDBRANCH   1  17
TORSDOF 9
ENDMDL
MODEL 8
REMARK VINA RESULT:      -7.5      2.625      7.585
REMARK  Name = 
REMARK  11 active torsions:
REMARK  status: ('A' for Active; 'I' for Inactive)
REMARK    1  A    between atoms: C_1  and  C_2
REMARK    2  A    between atoms: C_2  and  C_3
REMARK    3  A    between atoms: C_3  and  C_4
REMARK    4  A    between atoms: C_3  and  N_5
REMARK    5  A    between atoms: N_5  and  S_6
REMARK    6  A    between atoms: S_6  and  C_9
REMARK    7  A    between atoms: C_12  and  O_13
REMARK    8  A    between atoms: O_13  and  C_14
REMARK    9  A    between atoms: C_14  and  C_15
REMARK   10  A    between atoms: N_17  and  C_18
REMARK   11  A    between atoms: C_18  and  C_19
REMARK                            x       y       z     vdW  Elec       q    Type
REMARK                         _______ _______ _______ _____ _____    ______ ____
ROOT
ATOM      1  O   UNL     1       2.085   5.210  20.606  0.00  0.00    +0.000 OA
ENDROOT
BRANCH   1   5
ATOM      2  C   UNL     1       1.574   9.157  19.444  0.00  0.00    +0.000 A 
ATOM      3  C   UNL     1       1.080   8.689  20.663  0.00  0.00    +0.000 A 
ATOM      4  C   UNL     1       1.280   7.356  21.018  0.00  0.00    +0.000 A 
ATOM      5  C   UNL     1       1.929   6.482  20.140  0.00  0.00    +0.000 A 
ATOM      6  C   UNL     1       2.407   6.943  18.914  0.00  0.00    +0.000 A 
ATOM      7  C   UNL     1       2.225   8.285  18.560  0.00  0.00    +0.000 A 
BRANCH   2   8
ATOM      8  S   UNL     1       1.338  10.863  18.977  0.00  0.00    +0.000 S 
ATOM      9  O   UNL     1       2.302  11.195  17.951  0.00  0.00    +0.000 OA
ATOM     10  O   UNL     1       1.248  11.603  20.214  0.00  0.00    +0.000 OA
BRANCH   8  11
ATOM     11  N   UNL     1      -0.205  10.862  18.285  0.00  0.00    +0.000 NA
ATOM     12  H   UNL     1      -0.204  10.522  17.325  0.00  0.00    +0.000 HD
BRANCH  11  13
ATOM     13  C   UNL     1      -1.153  11.966  18.572  0.00  0.00    +0.000 C 
ATOM     14  C   UNL     1      -2.475  11.625  17.876  0.00  0.00    +0.000 C 
BRANCH  13  16
ATOM     15  C   UNL     1      -0.505  14.365  19.196  0.00  0.00    +0.000 C 
ATOM     16  C   UNL     1      -0.587  13.309  18.107  0.00  0.00    +0.000 C 
ENDBRANCH  13  16
ENDBRANCH  11  13
ENDBRANCH   8  11
ENDBRANCH   2   8
ENDBRANCH   1   5
BRANCH   1  17
ATOM     17  C   UNL     1       1.247   4.216  20.013  0.00  0.00    +0.000 C 
BRANCH  17  18
ATOM     18  C   UNL     1       1.877   3.774  18.694  0.00  0.00    +0.000 C 
ATOM     19  O   UNL     1       1.245   3.720  17.646  0.00  0.00    +0.000 OA
ATOM     20  N   UNL     1       3.227   3.495  18.787  0.00  0.00    +0.000 N 
ATOM     21  H   UNL     1       3.611   3.441  19.723  0.00  0.00    +0.000 HD
BRANCH  20  22
ATOM     22  C   UNL     1       3.987   2.982  17.684  0.00  0.00    +0.000 C 
BRANCH  22  23
ATOM     23  C   UNL     1       5.002   3.989  17.214  0.00  0.00    +0.000 A 
ATOM     24  C   UNL     1       4.764   4.780  16.065  0.00  0.00    +0.000 A 
ATOM     25  C   UNL     1       5.567   5.891  15.780  0.00  0.00    +0.000 A 
ATOM     26  C   UNL     1       6.561   6.194  16.680  0.00  0.00    +0.000 A 
ATOM     27  C   UNL     1       6.850   5.379  17.752  0.00  0.00    +0.000 A 
ATOM     28  C   UNL     1       6.119   4.249  18.024  0.00  0.00    +0.000 A 
ATOM     29  O   UNL     1       7.810   5.911  18.558  0.00  0.00    +0.000 OA
ATOM     30  C   UNL     1       7.773   7.268  18.076  0.00  0.00    +0.000 C 
ATOM     31  O   UNL     1       7.289   7.348  16.717  0.00  0.00    +0.000 OA
ENDBRANCH  22  23
ENDBRANCH  20  22
ENDBRANCH  17  18
ENDBRANCH   1  17
TORSDOF 9
ENDMDL
MODEL 9
REMARK VINA RESULT:      -7.4      6.364      9.179
REMARK  Name = 
REMARK  11 active torsions:
REMARK  status: ('A' for Active; 'I' for Inactive)
REMARK    1  A    between atoms: C_1  and  C_2
REMARK    2  A    between atoms: C_2  and  C_3
REMARK    3  A    between atoms: C_3  and  C_4
REMARK    4  A    between atoms: C_3  and  N_5
REMARK    5  A    between atoms: N_5  and  S_6
REMARK    6  A    between atoms: S_6  and  C_9
REMARK    7  A    between atoms: C_12  and  O_13
REMARK    8  A    between atoms: O_13  and  C_14
REMARK    9  A    between atoms: C_14  and  C_15
REMARK   10  A    between atoms: N_17  and  C_18
REMARK   11  A    between atoms: C_18  and  C_19
REMARK                            x       y       z     vdW  Elec       q    Type
REMARK                         _______ _______ _______ _____ _____    ______ ____
ROOT
ATOM      1  O   UNL     1       8.746   8.956  18.749  0.00  0.00    +0.000 OA
ENDROOT
BRANCH   1   5
ATOM      2  C   UNL     1       9.735  12.946  19.289  0.00  0.00    +0.000 A 
ATOM      3  C   UNL     1       9.295  12.467  18.053  0.00  0.00    +0.000 A 
ATOM      4  C   UNL     1       8.966  11.120  17.917  0.00  0.00    +0.000 A 
ATOM      5  C   UNL     1       9.120  10.243  18.997  0.00  0.00    +0.000 A 
ATOM      6  C   UNL     1       9.577  10.716  20.226  0.00  0.00    +0.000 A 
ATOM      7  C   UNL     1       9.892  12.072  20.374  0.00  0.00    +0.000 A 
BRANCH   2   8
ATOM      8  S   UNL     1      10.150  14.670  19.486  0.00  0.00    +0.000 S 
ATOM      9  O   UNL     1       9.995  15.328  18.208  0.00  0.00    +0.000 OA
ATOM     10  O   UNL     1      11.395  14.695  20.218  0.00  0.00    +0.000 OA
BRANCH   8  11
ATOM     11  N   UNL     1       8.948  15.236  20.532  0.00  0.00    +0.000 NA
ATOM     12  H   UNL     1       9.288  15.374  21.483  0.00  0.00    +0.000 HD
BRANCH  11  13
ATOM     13  C   UNL     1       7.559  14.729  20.418  0.00  0.00    +0.000 C 
ATOM     14  C   UNL     1       6.759  15.766  19.623  0.00  0.00    +0.000 C 
BRANCH  13  16
ATOM     15  C   UNL     1       7.535  13.269  22.523  0.00  0.00    +0.000 C 
ATOM     16  C   UNL     1       6.954  14.472  21.800  0.00  0.00    +0.000 C 
ENDBRANCH  13  16
ENDBRANCH  11  13
ENDBRANCH   8  11
ENDBRANCH   2   8
ENDBRANCH   1   5
BRANCH   1  17
ATOM     17  C   UNL     1       7.864   8.759  17.641  0.00  0.00    +0.000 C 
BRANCH  17  18
ATOM     18  C   UNL     1       7.429   7.296  17.622  0.00  0.00    +0.000 C 
ATOM     19  O   UNL     1       7.865   6.467  18.413  0.00  0.00    +0.000 OA
ATOM     20  N   UNL     1       6.469   7.012  16.671  0.00  0.00    +0.000 N 
ATOM     21  H   UNL     1       6.286   7.737  15.987  0.00  0.00    +0.000 HD
BRANCH  20  22
ATOM     22  C   UNL     1       5.989   5.682  16.431  0.00  0.00    +0.000 C 
BRANCH  22  23
ATOM     23  C   UNL     1       4.843   5.349  17.347  0.00  0.00    +0.000 A 
ATOM     24  C   UNL     1       3.829   6.298  17.619  0.00  0.00    +0.000 A 
ATOM     25  C   UNL     1       2.636   5.915  18.243  0.00  0.00    +0.000 A 
ATOM     26  C   UNL     1       2.484   4.581  18.541  0.00  0.00    +0.000 A 
ATOM     27  C   UNL     1       3.501   3.670  18.356  0.00  0.00    +0.000 A 
ATOM     28  C   UNL     1       4.705   4.027  17.802  0.00  0.00    +0.000 A 
ATOM     29  O   UNL     1       3.108   2.397  18.635  0.00  0.00    +0.000 OA
ATOM     30  C   UNL     1       1.681   2.601  18.622  0.00  0.00    +0.000 C 
ATOM     31  O   UNL     1       1.327   3.968  18.924  0.00  0.00    +0.000 OA
ENDBRANCH  22  23
ENDBRANCH  20  22
ENDBRANCH  17  18
ENDBRANCH   1  17
TORSDOF 9
ENDMDL
