MODEL 1
REMARK VINA RESULT:      -7.9      0.000      0.000
REMARK  Name = 
REMARK  3 active torsions:
REMARK  status: ('A' for Active; 'I' for Inactive)
REMARK    1  A    between atoms: N_5  and  C_6
REMARK    2  A    between atoms: C_6  and  C_7
REMARK    3  A    between atoms: C_16  and  C_17
REMARK                            x       y       z     vdW  Elec       q    Type
REMARK                         _______ _______ _______ _____ _____    ______ ____
ROOT
ATOM      1  O   UNL     1       3.283   2.372  21.462  0.00  0.00    +0.000 OA
ATOM      2  C   UNL     1       3.025   3.447  20.965  0.00  0.00    +0.000 C 
ATOM      3  N   UNL     1       2.074   4.349  21.329  0.00  0.00    +0.000 N 
ATOM      4  C   UNL     1       2.223   5.469  20.586  0.00  0.00    +0.000 C 
ATOM      5  N   UNL     1       1.414   6.531  20.803  0.00  0.00    +0.000 N 
ATOM      6  N   UNL     1       3.178   5.409  19.708  0.00  0.00    +0.000 NA
ATOM      7  C   UNL     1       3.692   4.141  19.833  0.00  0.00    +0.000 C 
ATOM      8  C   UNL     1       4.611   3.569  19.051  0.00  0.00    +0.000 C 
ATOM      9  H   UNL     1       1.482   4.228  22.132  0.00  0.00    +0.000 HD
ATOM     10  H   UNL     1       0.498   6.395  21.204  0.00  0.00    +0.000 HD
ENDROOT
BRANCH   8  11
ATOM     11  C   UNL     1       5.199   4.260  17.896  0.00  0.00    +0.000 A 
ATOM     12  C   UNL     1       4.675   3.993  16.624  0.00  0.00    +0.000 A 
ATOM     13  C   UNL     1       5.187   4.634  15.493  0.00  0.00    +0.000 A 
ATOM     14  C   UNL     1       6.232   5.548  15.622  0.00  0.00    +0.000 A 
ATOM     15  C   UNL     1       6.778   5.805  16.879  0.00  0.00    +0.000 A 
ATOM     16  C   UNL     1       6.272   5.160  18.012  0.00  0.00    +0.000 A 
ATOM     17 CL   UNL     1       7.012   5.508  19.537  0.00  0.00    +0.000 Cl
ENDBRANCH   8  11
BRANCH   5  18
ATOM     18  C   UNL     1       1.749   7.876  20.385  0.00  0.00    +0.000 C 
BRANCH  18  19
ATOM     19  C   UNL     1       0.914   8.969  21.018  0.00  0.00    +0.000 A 
ATOM     20  C   UNL     1       0.339   8.726  22.280  0.00  0.00    +0.000 A 
ATOM     21  C   UNL     1      -0.361   9.730  22.953  0.00  0.00    +0.000 A 
ATOM     22  C   UNL     1      -0.480  10.986  22.376  0.00  0.00    +0.000 A 
ATOM     23  F   UNL     1      -1.141  11.951  23.027  0.00  0.00    +0.000 F 
ATOM     24  C   UNL     1       0.091  11.259  21.141  0.00  0.00    +0.000 A 
ATOM     25  C   UNL     1       0.792  10.255  20.467  0.00  0.00    +0.000 A 
ENDBRANCH  18  19
ENDBRANCH   5  18
TORSDOF 3
ENDMDL
MODEL 2
REMARK VINA RESULT:      -7.9      0.269      1.004
REMARK  Name = 
REMARK  3 active torsions:
REMARK  status: ('A' for Active; 'I' for Inactive)
REMARK    1  A    between atoms: N_5  and  C_6
REMARK    2  A    between atoms: C_6  and  C_7
REMARK    3  A    between atoms: C_16  and  C_17
REMARK                            x       y       z     vdW  Elec       q    Type
REMARK                         _______ _______ _______ _____ _____    ______ ____
ROOT
ATOM      1  O   UNL     1       3.174   2.304  21.343  0.00  0.00    +0.000 OA
ATOM      2  C   UNL     1       2.944   3.394  20.866  0.00  0.00    +0.000 C 
ATOM      3  N   UNL     1       2.015   4.312  21.243  0.00  0.00    +0.000 N 
ATOM      4  C   UNL     1       2.195   5.442  20.524  0.00  0.00    +0.000 C 
ATOM      5  N   UNL     1       1.412   6.520  20.758  0.00  0.00    +0.000 N 
ATOM      6  N   UNL     1       3.153   5.377  19.649  0.00  0.00    +0.000 NA
ATOM      7  C   UNL     1       3.635   4.094  19.751  0.00  0.00    +0.000 C 
ATOM      8  C   UNL     1       4.544   3.515  18.962  0.00  0.00    +0.000 C 
ATOM      9  H   UNL     1       1.415   4.190  22.041  0.00  0.00    +0.000 HD
ATOM     10  H   UNL     1       0.490   6.399  21.152  0.00  0.00    +0.000 HD
ENDROOT
BRANCH   8  11
ATOM     11  C   UNL     1       5.154   4.214  17.825  0.00  0.00    +0.000 A 
ATOM     12  C   UNL     1       4.680   3.929  16.537  0.00  0.00    +0.000 A 
ATOM     13  C   UNL     1       5.216   4.577  15.421  0.00  0.00    +0.000 A 
ATOM     14  C   UNL     1       6.235   5.514  15.580  0.00  0.00    +0.000 A 
ATOM     15  C   UNL     1       6.732   5.790  16.854  0.00  0.00    +0.000 A 
ATOM     16  C   UNL     1       6.202   5.138  17.972  0.00  0.00    +0.000 A 
ATOM     17 CL   UNL     1       6.882   5.510  19.520  0.00  0.00    +0.000 Cl
ENDBRANCH   8  11
BRANCH   5  18
ATOM     18  C   UNL     1       1.782   7.865  20.369  0.00  0.00    +0.000 C 
BRANCH  18  19
ATOM     19  C   UNL     1       0.975   8.965  21.024  0.00  0.00    +0.000 A 
ATOM     20  C   UNL     1       0.418   9.965  20.205  0.00  0.00    +0.000 A 
ATOM     21  C   UNL     1      -0.414  10.950  20.741  0.00  0.00    +0.000 A 
ATOM     22  C   UNL     1      -0.704  10.935  22.098  0.00  0.00    +0.000 A 
ATOM     23  F   UNL     1      -1.510  11.874  22.610  0.00  0.00    +0.000 F 
ATOM     24  C   UNL     1      -0.183   9.952  22.927  0.00  0.00    +0.000 A 
ATOM     25  C   UNL     1       0.649   8.966  22.390  0.00  0.00    +0.000 A 
ENDBRANCH  18  19
ENDBRANCH   5  18
TORSDOF 3
ENDMDL
MODEL 3
REMARK VINA RESULT:      -7.9      3.287      6.412
REMARK  Name = 
REMARK  3 active torsions:
REMARK  status: ('A' for Active; 'I' for Inactive)
REMARK    1  A    between atoms: N_5  and  C_6
REMARK    2  A    between atoms: C_6  and  C_7
REMARK    3  A    between atoms: C_16  and  C_17
REMARK                            x       y       z     vdW  Elec       q    Type
REMARK                         _______ _______ _______ _____ _____    ______ ____
ROOT
ATOM      1  O   UNL     1       1.671   3.191  22.069  0.00  0.00    +0.000 OA
ATOM      2  C   UNL     1       2.448   3.522  21.198  0.00  0.00    +0.000 C 
ATOM      3  N   UNL     1       3.497   2.828  20.682  0.00  0.00    +0.000 N 
ATOM      4  C   UNL     1       4.009   3.518  19.638  0.00  0.00    +0.000 C 
ATOM      5  N   UNL     1       5.039   3.000  18.931  0.00  0.00    +0.000 N 
ATOM      6  N   UNL     1       3.426   4.655  19.406  0.00  0.00    +0.000 NA
ATOM      7  C   UNL     1       2.471   4.768  20.388  0.00  0.00    +0.000 C 
ATOM      8  C   UNL     1       1.701   5.830  20.639  0.00  0.00    +0.000 C 
ATOM      9  H   UNL     1       3.720   1.887  20.954  0.00  0.00    +0.000 HD
ATOM     10  H   UNL     1       5.666   2.337  19.363  0.00  0.00    +0.000 HD
ENDROOT
BRANCH   8  11
ATOM     11  C   UNL     1       1.802   7.071  19.862  0.00  0.00    +0.000 A 
ATOM     12  C   UNL     1       2.462   7.031  18.626  0.00  0.00    +0.000 A 
ATOM     13  C   UNL     1       2.574   8.181  17.840  0.00  0.00    +0.000 A 
ATOM     14  C   UNL     1       2.029   9.385  18.283  0.00  0.00    +0.000 A 
ATOM     15  C   UNL     1       1.391   9.444  19.521  0.00  0.00    +0.000 A 
ATOM     16  C   UNL     1       1.283   8.297  20.313  0.00  0.00    +0.000 A 
ATOM     17 CL   UNL     1       0.499   8.447  21.849  0.00  0.00    +0.000 Cl
ENDBRANCH   8  11
BRANCH   5  18
ATOM     18  C   UNL     1       5.370   3.428  17.588  0.00  0.00    +0.000 C 
BRANCH  18  19
ATOM     19  C   UNL     1       6.059   4.772  17.497  0.00  0.00    +0.000 A 
ATOM     20  C   UNL     1       5.465   5.777  16.710  0.00  0.00    +0.000 A 
ATOM     21  C   UNL     1       6.005   7.065  16.665  0.00  0.00    +0.000 A 
ATOM     22  C   UNL     1       7.134   7.359  17.415  0.00  0.00    +0.000 A 
ATOM     23  F   UNL     1       7.645   8.597  17.380  0.00  0.00    +0.000 F 
ATOM     24  C   UNL     1       7.731   6.393  18.213  0.00  0.00    +0.000 A 
ATOM     25  C   UNL     1       7.191   5.105  18.258  0.00  0.00    +0.000 A 
ENDBRANCH  18  19
ENDBRANCH   5  18
TORSDOF 3
ENDMDL
MODEL 4
REMARK VINA RESULT:      -7.8      5.400      7.668
REMARK  Name = 
REMARK  3 active torsions:
REMARK  status: ('A' for Active; 'I' for Inactive)
REMARK    1  A    between atoms: N_5  and  C_6
REMARK    2  A    between atoms: C_6  and  C_7
REMARK    3  A    between atoms: C_16  and  C_17
REMARK                            x       y       z     vdW  Elec       q    Type
REMARK                         _______ _______ _______ _____ _____    ______ ____
ROOT
ATOM      1  O   UNL     1       6.543   4.679  15.203  0.00  0.00    +0.000 OA
ATOM      2  C   UNL     1       6.666   5.589  15.995  0.00  0.00    +0.000 C 
ATOM      3  N   UNL     1       7.740   6.395  16.209  0.00  0.00    +0.000 N 
ATOM      4  C   UNL     1       7.396   7.361  17.090  0.00  0.00    +0.000 C 
ATOM      5  N   UNL     1       8.295   8.315  17.426  0.00  0.00    +0.000 N 
ATOM      6  N   UNL     1       6.180   7.274  17.537  0.00  0.00    +0.000 NA
ATOM      7  C   UNL     1       5.668   6.143  16.948  0.00  0.00    +0.000 C 
ATOM      8  C   UNL     1       4.487   5.572  17.200  0.00  0.00    +0.000 C 
ATOM      9  H   UNL     1       8.581   6.345  15.662  0.00  0.00    +0.000 HD
ATOM     10  H   UNL     1       9.284   8.126  17.352  0.00  0.00    +0.000 HD
ENDROOT
BRANCH   8  11
ATOM     11  C   UNL     1       3.556   6.108  18.201  0.00  0.00    +0.000 A 
ATOM     12  C   UNL     1       3.038   7.395  18.005  0.00  0.00    +0.000 A 
ATOM     13  C   UNL     1       2.137   7.947  18.920  0.00  0.00    +0.000 A 
ATOM     14  C   UNL     1       1.748   7.219  20.043  0.00  0.00    +0.000 A 
ATOM     15  C   UNL     1       2.275   5.946  20.262  0.00  0.00    +0.000 A 
ATOM     16  C   UNL     1       3.181   5.394  19.352  0.00  0.00    +0.000 A 
ATOM     17 CL   UNL     1       3.814   3.820  19.698  0.00  0.00    +0.000 Cl
ENDBRANCH   8  11
BRANCH   5  18
ATOM     18  C   UNL     1       7.917   9.589  17.999  0.00  0.00    +0.000 C 
BRANCH  18  19
ATOM     19  C   UNL     1       9.067  10.425  18.516  0.00  0.00    +0.000 A 
ATOM     20  C   UNL     1       9.208  10.582  19.908  0.00  0.00    +0.000 A 
ATOM     21  C   UNL     1      10.304  11.261  20.445  0.00  0.00    +0.000 A 
ATOM     22  C   UNL     1      11.272  11.778  19.596  0.00  0.00    +0.000 A 
ATOM     23  F   UNL     1      12.327  12.420  20.112  0.00  0.00    +0.000 F 
ATOM     24  C   UNL     1      11.168  11.624  18.221  0.00  0.00    +0.000 A 
ATOM     25  C   UNL     1      10.072  10.944  17.683  0.00  0.00    +0.000 A 
ENDBRANCH  18  19
ENDBRANCH   5  18
TORSDOF 3
ENDMDL
MODEL 5
REMARK VINA RESULT:      -7.8      4.981      7.265
REMARK  Name = 
REMARK  3 active torsions:
REMARK  status: ('A' for Active; 'I' for Inactive)
REMARK    1  A    between atoms: N_5  and  C_6
REMARK    2  A    between atoms: C_6  and  C_7
REMARK    3  A    between atoms: C_16  and  C_17
REMARK                            x       y       z     vdW  Elec       q    Type
REMARK                         _______ _______ _______ _____ _____    ______ ____
ROOT
ATOM      1  O   UNL     1       6.432   3.990  14.933  0.00  0.00    +0.000 OA
ATOM      2  C   UNL     1       6.507   4.876  15.756  0.00  0.00    +0.000 C 
ATOM      3  N   UNL     1       7.455   5.843  15.885  0.00  0.00    +0.000 N 
ATOM      4  C   UNL     1       7.077   6.702  16.858  0.00  0.00    +0.000 C 
ATOM      5  N   UNL     1       7.844   7.781  17.138  0.00  0.00    +0.000 N 
ATOM      6  N   UNL     1       5.959   6.395  17.444  0.00  0.00    +0.000 NA
ATOM      7  C   UNL     1       5.566   5.217  16.855  0.00  0.00    +0.000 C 
ATOM      8  C   UNL     1       4.536   4.446  17.215  0.00  0.00    +0.000 C 
ATOM      9  H   UNL     1       8.214   5.957  15.238  0.00  0.00    +0.000 HD
ATOM     10  H   UNL     1       8.833   7.764  16.933  0.00  0.00    +0.000 HD
ENDROOT
BRANCH   8  11
ATOM     11  C   UNL     1       3.669   4.778  18.352  0.00  0.00    +0.000 A 
ATOM     12  C   UNL     1       2.943   5.976  18.307  0.00  0.00    +0.000 A 
ATOM     13  C   UNL     1       2.092   6.333  19.356  0.00  0.00    +0.000 A 
ATOM     14  C   UNL     1       1.960   5.497  20.463  0.00  0.00    +0.000 A 
ATOM     15  C   UNL     1       2.694   4.314  20.532  0.00  0.00    +0.000 A 
ATOM     16  C   UNL     1       3.552   3.956  19.486  0.00  0.00    +0.000 A 
ATOM     17 CL   UNL     1       4.451   2.486  19.647  0.00  0.00    +0.000 Cl
ENDBRANCH   8  11
BRANCH   5  18
ATOM     18  C   UNL     1       7.342   8.950  17.828  0.00  0.00    +0.000 C 
BRANCH  18  19
ATOM     19  C   UNL     1       8.388   9.986  18.176  0.00  0.00    +0.000 A 
ATOM     20  C   UNL     1       8.343  11.230  17.520  0.00  0.00    +0.000 A 
ATOM     21  C   UNL     1       9.223  12.257  17.868  0.00  0.00    +0.000 A 
ATOM     22  C   UNL     1      10.146  12.051  18.884  0.00  0.00    +0.000 A 
ATOM     23  F   UNL     1      10.982  13.040  19.226  0.00  0.00    +0.000 F 
ATOM     24  C   UNL     1      10.202  10.840  19.560  0.00  0.00    +0.000 A 
ATOM     25  C   UNL     1       9.321   9.813  19.211  0.00  0.00    +0.000 A 
ENDBRANCH  18  19
ENDBRANCH   5  18
TORSDOF 3
ENDMDL
MODEL 6
REMARK VINA RESULT:      -7.8      1.226      1.689
REMARK  Name = 
REMARK  3 active torsions:
REMARK  status: ('A' for Active; 'I' for Inactive)
REMARK    1  A    between atoms: N_5  and  C_6
REMARK    2  A    between atoms: C_6  and  C_7
REMARK    3  A    between atoms: C_16  and  C_17
REMARK                            x       y       z     vdW  Elec       q    Type
REMARK                         _______ _______ _______ _____ _____    ______ ____
ROOT
ATOM      1  O   UNL     1       2.498   2.341  20.648  0.00  0.00    +0.000 OA
ATOM      2  C   UNL     1       2.470   3.532  20.423  0.00  0.00    +0.000 C 
ATOM      3  N   UNL     1       1.491   4.432  20.709  0.00  0.00    +0.000 N 
ATOM      4  C   UNL     1       1.932   5.673  20.403  0.00  0.00    +0.000 C 
ATOM      5  N   UNL     1       1.143   6.745  20.646  0.00  0.00    +0.000 N 
ATOM      6  N   UNL     1       3.126   5.710  19.894  0.00  0.00    +0.000 NA
ATOM      7  C   UNL     1       3.513   4.395  19.808  0.00  0.00    +0.000 C 
ATOM      8  C   UNL     1       4.619   3.921  19.228  0.00  0.00    +0.000 C 
ATOM      9  H   UNL     1       0.656   4.193  21.213  0.00  0.00    +0.000 HD
ATOM     10  H   UNL     1       0.140   6.636  20.681  0.00  0.00    +0.000 HD
ENDROOT
BRANCH   8  11
ATOM     11  C   UNL     1       5.594   4.797  18.567  0.00  0.00    +0.000 A 
ATOM     12  C   UNL     1       6.596   5.387  19.349  0.00  0.00    +0.000 A 
ATOM     13  C   UNL     1       7.557   6.218  18.768  0.00  0.00    +0.000 A 
ATOM     14  C   UNL     1       7.524   6.471  17.398  0.00  0.00    +0.000 A 
ATOM     15  C   UNL     1       6.518   5.911  16.612  0.00  0.00    +0.000 A 
ATOM     16  C   UNL     1       5.550   5.084  17.192  0.00  0.00    +0.000 A 
ATOM     17 CL   UNL     1       4.317   4.441  16.162  0.00  0.00    +0.000 Cl
ENDBRANCH   8  11
BRANCH   5  18
ATOM     18  C   UNL     1       1.656   8.094  20.758  0.00  0.00    +0.000 C 
BRANCH  18  19
ATOM     19  C   UNL     1       0.660   9.118  21.256  0.00  0.00    +0.000 A 
ATOM     20  C   UNL     1       0.325   9.117  22.623  0.00  0.00    +0.000 A 
ATOM     21  C   UNL     1      -0.514  10.098  23.156  0.00  0.00    +0.000 A 
ATOM     22  C   UNL     1      -1.015  11.093  22.329  0.00  0.00    +0.000 A 
ATOM     23  F   UNL     1      -1.811  12.040  22.842  0.00  0.00    +0.000 F 
ATOM     24  C   UNL     1      -0.689  11.129  20.980  0.00  0.00    +0.000 A 
ATOM     25  C   UNL     1       0.152  10.148  20.447  0.00  0.00    +0.000 A 
ENDBRANCH  18  19
ENDBRANCH   5  18
TORSDOF 3
ENDMDL
MODEL 7
REMARK VINA RESULT:      -7.8      1.222      1.938
REMARK  Name = 
REMARK  3 active torsions:
REMARK  status: ('A' for Active; 'I' for Inactive)
REMARK    1  A    between atoms: N_5  and  C_6
REMARK    2  A    between atoms: C_6  and  C_7
REMARK    3  A    between atoms: C_16  and  C_17
REMARK                            x       y       z     vdW  Elec       q    Type
REMARK                         _______ _______ _______ _____ _____    ______ ____
ROOT
ATOM      1  O   UNL     1       2.492   2.437  20.768  0.00  0.00    +0.000 OA
ATOM      2  C   UNL     1       2.472   3.617  20.493  0.00  0.00    +0.000 C 
ATOM      3  N   UNL     1       1.503   4.537  20.747  0.00  0.00    +0.000 N 
ATOM      4  C   UNL     1       1.952   5.760  20.386  0.00  0.00    +0.000 C 
ATOM      5  N   UNL     1       1.174   6.848  20.589  0.00  0.00    +0.000 N 
ATOM      6  N   UNL     1       3.142   5.765  19.866  0.00  0.00    +0.000 NA
ATOM      7  C   UNL     1       3.517   4.443  19.834  0.00  0.00    +0.000 C 
ATOM      8  C   UNL     1       4.615   3.936  19.266  0.00  0.00    +0.000 C 
ATOM      9  H   UNL     1       0.670   4.326  21.268  0.00  0.00    +0.000 HD
ATOM     10  H   UNL     1       0.170   6.750  20.635  0.00  0.00    +0.000 HD
ENDROOT
BRANCH   8  11
ATOM     11  C   UNL     1       5.592   4.775  18.561  0.00  0.00    +0.000 A 
ATOM     12  C   UNL     1       6.582   5.419  19.315  0.00  0.00    +0.000 A 
ATOM     13  C   UNL     1       7.544   6.218  18.692  0.00  0.00    +0.000 A 
ATOM     14  C   UNL     1       7.525   6.384  17.308  0.00  0.00    +0.000 A 
ATOM     15  C   UNL     1       6.531   5.767  16.549  0.00  0.00    +0.000 A 
ATOM     16  C   UNL     1       5.562   4.972  17.170  0.00  0.00    +0.000 A 
ATOM     17 CL   UNL     1       4.344   4.257  16.170  0.00  0.00    +0.000 Cl
ENDBRANCH   8  11
BRANCH   5  18
ATOM     18  C   UNL     1       1.699   8.196  20.639  0.00  0.00    +0.000 C 
BRANCH  18  19
ATOM     19  C   UNL     1       0.806   9.205  21.325  0.00  0.00    +0.000 A 
ATOM     20  C   UNL     1       0.196  10.203  20.541  0.00  0.00    +0.000 A 
ATOM     21  C   UNL     1      -0.712  11.102  21.103  0.00  0.00    +0.000 A 
ATOM     22  C   UNL     1      -1.027  11.003  22.451  0.00  0.00    +0.000 A 
ATOM     23  F   UNL     1      -1.906  11.858  22.988  0.00  0.00    +0.000 F 
ATOM     24  C   UNL     1      -0.455  10.019  23.245  0.00  0.00    +0.000 A 
ATOM     25  C   UNL     1       0.454   9.119  22.682  0.00  0.00    +0.000 A 
ENDBRANCH  18  19
ENDBRANCH   5  18
TORSDOF 3
ENDMDL
MODEL 8
REMARK VINA RESULT:      -7.7      2.090      3.012
REMARK  Name = 
REMARK  3 active torsions:
REMARK  status: ('A' for Active; 'I' for Inactive)
REMARK    1  A    between atoms: N_5  and  C_6
REMARK    2  A    between atoms: C_6  and  C_7
REMARK    3  A    between atoms: C_16  and  C_17
REMARK                            x       y       z     vdW  Elec       q    Type
REMARK                         _______ _______ _______ _____ _____    ______ ____
ROOT
ATOM      1  O   UNL     1       3.705   1.704  17.863  0.00  0.00    +0.000 OA
ATOM      2  C   UNL     1       3.470   2.805  18.314  0.00  0.00    +0.000 C 
ATOM      3  N   UNL     1       2.328   3.263  18.894  0.00  0.00    +0.000 N 
ATOM      4  C   UNL     1       2.547   4.507  19.373  0.00  0.00    +0.000 C 
ATOM      5  N   UNL     1       1.562   5.155  20.038  0.00  0.00    +0.000 N 
ATOM      6  N   UNL     1       3.739   4.971  19.145  0.00  0.00    +0.000 NA
ATOM      7  C   UNL     1       4.366   3.985  18.421  0.00  0.00    +0.000 C 
ATOM      8  C   UNL     1       5.570   4.057  17.846  0.00  0.00    +0.000 C 
ATOM      9  H   UNL     1       1.526   2.681  19.061  0.00  0.00    +0.000 HD
ATOM     10  H   UNL     1       0.596   4.921  19.862  0.00  0.00    +0.000 HD
ENDROOT
BRANCH   8  11
ATOM     11  C   UNL     1       6.399   5.267  17.911  0.00  0.00    +0.000 A 
ATOM     12  C   UNL     1       7.339   5.373  18.945  0.00  0.00    +0.000 A 
ATOM     13  C   UNL     1       8.164   6.497  19.046  0.00  0.00    +0.000 A 
ATOM     14  C   UNL     1       8.054   7.528  18.115  0.00  0.00    +0.000 A 
ATOM     15  C   UNL     1       7.106   7.447  17.096  0.00  0.00    +0.000 A 
ATOM     16  C   UNL     1       6.275   6.326  16.996  0.00  0.00    +0.000 A 
ATOM     17 CL   UNL     1       5.105   6.300  15.722  0.00  0.00    +0.000 Cl
ENDBRANCH   8  11
BRANCH   5  18
ATOM     18  C   UNL     1       1.811   6.265  20.933  0.00  0.00    +0.000 C 
BRANCH  18  19
ATOM     19  C   UNL     1       1.564   7.634  20.337  0.00  0.00    +0.000 A 
ATOM     20  C   UNL     1       2.025   7.890  19.032  0.00  0.00    +0.000 A 
ATOM     21  C   UNL     1       1.743   9.101  18.396  0.00  0.00    +0.000 A 
ATOM     22  C   UNL     1       0.988  10.060  19.056  0.00  0.00    +0.000 A 
ATOM     23  F   UNL     1       0.709  11.217  18.442  0.00  0.00    +0.000 F 
ATOM     24  C   UNL     1       0.506   9.829  20.337  0.00  0.00    +0.000 A 
ATOM     25  C   UNL     1       0.788   8.617  20.973  0.00  0.00    +0.000 A 
ENDBRANCH  18  19
ENDBRANCH   5  18
TORSDOF 3
ENDMDL
MODEL 9
REMARK VINA RESULT:      -7.6      5.732      9.033
REMARK  Name = 
REMARK  3 active torsions:
REMARK  status: ('A' for Active; 'I' for Inactive)
REMARK    1  A    between atoms: N_5  and  C_6
REMARK    2  A    between atoms: C_6  and  C_7
REMARK    3  A    between atoms: C_16  and  C_17
REMARK                            x       y       z     vdW  Elec       q    Type
REMARK                         _______ _______ _______ _____ _____    ______ ____
ROOT
ATOM      1  O   UNL     1       8.096   4.764  18.968  0.00  0.00    +0.000 OA
ATOM      2  C   UNL     1       7.266   4.882  18.093  0.00  0.00    +0.000 C 
ATOM      3  N   UNL     1       7.411   5.402  16.844  0.00  0.00    +0.000 N 
ATOM      4  C   UNL     1       6.264   5.214  16.154  0.00  0.00    +0.000 C 
ATOM      5  N   UNL     1       6.184   5.611  14.863  0.00  0.00    +0.000 N 
ATOM      6  N   UNL     1       5.317   4.637  16.830  0.00  0.00    +0.000 NA
ATOM      7  C   UNL     1       5.843   4.454  18.086  0.00  0.00    +0.000 C 
ATOM      8  C   UNL     1       5.198   4.010  19.168  0.00  0.00    +0.000 C 
ATOM      9  H   UNL     1       8.292   5.719  16.480  0.00  0.00    +0.000 HD
ATOM     10  H   UNL     1       6.777   6.355  14.525  0.00  0.00    +0.000 HD
ENDROOT
BRANCH   8  11
ATOM     11  C   UNL     1       3.772   3.663  19.143  0.00  0.00    +0.000 A 
ATOM     12  C   UNL     1       3.417   2.324  18.928  0.00  0.00    +0.000 A 
ATOM     13  C   UNL     1       2.074   1.937  18.908  0.00  0.00    +0.000 A 
ATOM     14  C   UNL     1       1.071   2.886  19.099  0.00  0.00    +0.000 A 
ATOM     15  C   UNL     1       1.410   4.225  19.290  0.00  0.00    +0.000 A 
ATOM     16  C   UNL     1       2.753   4.617  19.304  0.00  0.00    +0.000 A 
ATOM     17 CL   UNL     1       3.100   6.298  19.522  0.00  0.00    +0.000 Cl
ENDBRANCH   8  11
BRANCH   5  18
ATOM     18  C   UNL     1       5.199   5.092  13.938  0.00  0.00    +0.000 C 
BRANCH  18  19
ATOM     19  C   UNL     1       5.695   3.992  13.025  0.00  0.00    +0.000 A 
ATOM     20  C   UNL     1       4.746   3.175  12.383  0.00  0.00    +0.000 A 
ATOM     21  C   UNL     1       5.142   2.207  11.458  0.00  0.00    +0.000 A 
ATOM     22  C   UNL     1       6.488   2.058  11.158  0.00  0.00    +0.000 A 
ATOM     23  F   UNL     1       6.867   1.137  10.262  0.00  0.00    +0.000 F 
ATOM     24  C   UNL     1       7.446   2.861  11.762  0.00  0.00    +0.000 A 
ATOM     25  C   UNL     1       7.049   3.830  12.688  0.00  0.00    +0.000 A 
ENDBRANCH  18  19
ENDBRANCH   5  18
TORSDOF 3
ENDMDL
