MODEL 1
REMARK VINA RESULT:      -6.7      0.000      0.000
REMARK  Name = 
REMARK  5 active torsions:
REMARK  status: ('A' for Active; 'I' for Inactive)
REMARK    1  A    between atoms: C_2  and  O_3
REMARK    2  A    between atoms: C_2  and  C_4
REMARK    3  A    between atoms: C_7  and  C_8
REMARK    4  A    between atoms: C_15  and  C_17
REMARK    5  A    between atoms: C_19  and  C_20
REMARK                            x       y       z     vdW  Elec       q    Type
REMARK                         _______ _______ _______ _____ _____    ______ ____
ROOT
ATOM      1  C   UNL     1       3.079   4.587  18.992  0.00  0.00    +0.000 C 
ATOM      2  C   UNL     1       3.903   3.501  19.714  0.00  0.00    +0.000 C 
ATOM      3  C   UNL     1       5.278   3.516  19.069  0.00  0.00    +0.000 C 
ATOM      4  C   UNL     1       5.390   4.890  18.389  0.00  0.00    +0.000 C 
ATOM      5  N   UNL     1       4.122   5.583  18.690  0.00  0.00    +0.000 N 
ATOM      6  C   UNL     1       3.941   6.872  18.159  0.00  0.00    +0.000 C 
ATOM      7  O   UNL     1       4.826   7.418  17.501  0.00  0.00    +0.000 OA
ENDROOT
BRANCH   4   8
ATOM      8  C   UNL     1       5.704   4.703  16.905  0.00  0.00    +0.000 A 
ATOM      9  C   UNL     1       4.789   4.139  16.000  0.00  0.00    +0.000 A 
ATOM     10  C   UNL     1       5.125   3.956  14.657  0.00  0.00    +0.000 A 
ATOM     11  C   UNL     1       6.384   4.334  14.190  0.00  0.00    +0.000 A 
ATOM     12  C   UNL     1       7.303   4.895  15.070  0.00  0.00    +0.000 A 
ATOM     13  C   UNL     1       6.968   5.078  16.415  0.00  0.00    +0.000 A 
ENDBRANCH   4   8
BRANCH   6  14
ATOM     14  C   UNL     1       2.744   7.604  18.484  0.00  0.00    +0.000 A 
ATOM     15  C   UNL     1       1.885   8.369  17.723  0.00  0.00    +0.000 A 
ATOM     16  C   UNL     1       1.045   8.988  18.671  0.00  0.00    +0.000 A 
ATOM     17  N   UNL     1       1.355   8.624  19.916  0.00  0.00    +0.000 NA
ATOM     18  O   UNL     1       2.449   7.802  19.793  0.00  0.00    +0.000 OA
BRANCH  16  19
ATOM     19  C   UNL     1      -0.039  10.000  18.346  0.00  0.00    +0.000 C 
ATOM     20  C   UNL     1      -0.830  10.628  19.479  0.00  0.00    +0.000 C 
ATOM     21  C   UNL     1       0.204  11.438  18.779  0.00  0.00    +0.000 C 
ENDBRANCH  16  19
ENDBRANCH   6  14
BRANCH   1  23
ATOM     22  O   UNL     1       0.770   4.247  19.632  0.00  0.00    +0.000 OA
ATOM     23  C   UNL     1       1.840   4.789  19.873  0.00  0.00    +0.000 C 
BRANCH  23  24
ATOM     24  O   UNL     1       2.054   5.471  21.019  0.00  0.00    +0.000 OA
ATOM     25  H   UNL     1       2.734   6.166  20.938  0.00  0.00    +0.000 HD
ENDBRANCH  23  24
ENDBRANCH   1  23
TORSDOF 5
ENDMDL
MODEL 2
REMARK VINA RESULT:      -6.2      1.158      1.587
REMARK  Name = 
REMARK  5 active torsions:
REMARK  status: ('A' for Active; 'I' for Inactive)
REMARK    1  A    between atoms: C_2  and  O_3
REMARK    2  A    between atoms: C_2  and  C_4
REMARK    3  A    between atoms: C_7  and  C_8
REMARK    4  A    between atoms: C_15  and  C_17
REMARK    5  A    between atoms: C_19  and  C_20
REMARK                            x       y       z     vdW  Elec       q    Type
REMARK                         _______ _______ _______ _____ _____    ______ ____
ROOT
ATOM      1  C   UNL     1       2.862   4.059  17.476  0.00  0.00    +0.000 C 
ATOM      2  C   UNL     1       3.285   2.619  17.835  0.00  0.00    +0.000 C 
ATOM      3  C   UNL     1       4.765   2.522  17.507  0.00  0.00    +0.000 C 
ATOM      4  C   UNL     1       5.267   3.973  17.470  0.00  0.00    +0.000 C 
ATOM      5  N   UNL     1       4.092   4.805  17.793  0.00  0.00    +0.000 N 
ATOM      6  C   UNL     1       4.263   6.201  17.802  0.00  0.00    +0.000 C 
ATOM      7  O   UNL     1       5.364   6.708  17.590  0.00  0.00    +0.000 OA
ENDROOT
BRANCH   4   8
ATOM      8  C   UNL     1       5.924   4.254  16.119  0.00  0.00    +0.000 A 
ATOM      9  C   UNL     1       7.176   4.880  15.999  0.00  0.00    +0.000 A 
ATOM     10  C   UNL     1       7.730   5.148  14.745  0.00  0.00    +0.000 A 
ATOM     11  C   UNL     1       7.043   4.794  13.584  0.00  0.00    +0.000 A 
ATOM     12  C   UNL     1       5.802   4.172  13.682  0.00  0.00    +0.000 A 
ATOM     13  C   UNL     1       5.247   3.905  14.937  0.00  0.00    +0.000 A 
ENDBRANCH   4   8
BRANCH   6  14
ATOM     14  C   UNL     1       3.155   7.042  18.176  0.00  0.00    +0.000 A 
ATOM     15  C   UNL     1       2.491   8.054  17.514  0.00  0.00    +0.000 A 
ATOM     16  C   UNL     1       1.658   8.619  18.501  0.00  0.00    +0.000 A 
ATOM     17  N   UNL     1       1.790   7.998  19.673  0.00  0.00    +0.000 NA
ATOM     18  O   UNL     1       2.764   7.050  19.474  0.00  0.00    +0.000 OA
BRANCH  16  19
ATOM     19  C   UNL     1       0.763   9.830  18.298  0.00  0.00    +0.000 C 
ATOM     20  C   UNL     1      -0.103  10.312  19.446  0.00  0.00    +0.000 C 
ATOM     21  C   UNL     1       1.113  11.088  19.080  0.00  0.00    +0.000 C 
ENDBRANCH  16  19
ENDBRANCH   6  14
BRANCH   1  23
ATOM     22  O   UNL     1       0.442   4.057  17.512  0.00  0.00    +0.000 OA
ATOM     23  C   UNL     1       1.484   4.236  18.128  0.00  0.00    +0.000 C 
BRANCH  23  24
ATOM     24  O   UNL     1       1.500   4.440  19.463  0.00  0.00    +0.000 OA
ATOM     25  H   UNL     1       2.258   4.975  19.766  0.00  0.00    +0.000 HD
ENDBRANCH  23  24
ENDBRANCH   1  23
TORSDOF 5
ENDMDL
MODEL 3
REMARK VINA RESULT:      -6.1      1.999      6.450
REMARK  Name = 
REMARK  5 active torsions:
REMARK  status: ('A' for Active; 'I' for Inactive)
REMARK    1  A    between atoms: C_2  and  O_3
REMARK    2  A    between atoms: C_2  and  C_4
REMARK    3  A    between atoms: C_7  and  C_8
REMARK    4  A    between atoms: C_15  and  C_17
REMARK    5  A    between atoms: C_19  and  C_20
REMARK                            x       y       z     vdW  Elec       q    Type
REMARK                         _______ _______ _______ _____ _____    ______ ____
ROOT
ATOM      1  C   UNL     1       3.758   5.312  19.789  0.00  0.00    +0.000 C 
ATOM      2  C   UNL     1       2.705   4.465  20.533  0.00  0.00    +0.000 C 
ATOM      3  C   UNL     1       1.450   5.318  20.601  0.00  0.00    +0.000 C 
ATOM      4  C   UNL     1       1.617   6.371  19.494  0.00  0.00    +0.000 C 
ATOM      5  N   UNL     1       2.908   6.064  18.849  0.00  0.00    +0.000 N 
ATOM      6  C   UNL     1       3.330   6.901  17.802  0.00  0.00    +0.000 C 
ATOM      7  O   UNL     1       2.627   7.833  17.410  0.00  0.00    +0.000 OA
ENDROOT
BRANCH   4   8
ATOM      8  C   UNL     1       1.496   7.771  20.096  0.00  0.00    +0.000 A 
ATOM      9  C   UNL     1       1.702   8.031  21.461  0.00  0.00    +0.000 A 
ATOM     10  C   UNL     1       1.551   9.319  21.980  0.00  0.00    +0.000 A 
ATOM     11  C   UNL     1       1.192  10.375  21.143  0.00  0.00    +0.000 A 
ATOM     12  C   UNL     1       0.984  10.138  19.788  0.00  0.00    +0.000 A 
ATOM     13  C   UNL     1       1.133   8.849  19.268  0.00  0.00    +0.000 A 
ENDBRANCH   4   8
BRANCH   6  14
ATOM     14  C   UNL     1       4.553   6.595  17.106  0.00  0.00    +0.000 A 
ATOM     15  C   UNL     1       4.878   5.629  16.176  0.00  0.00    +0.000 A 
ATOM     16  C   UNL     1       6.280   5.722  16.059  0.00  0.00    +0.000 A 
ATOM     17  N   UNL     1       6.777   6.677  16.847  0.00  0.00    +0.000 NA
ATOM     18  O   UNL     1       5.700   7.179  17.534  0.00  0.00    +0.000 OA
BRANCH  16  19
ATOM     19  C   UNL     1       7.146   4.815  15.204  0.00  0.00    +0.000 C 
ATOM     20  C   UNL     1       6.493   3.963  14.132  0.00  0.00    +0.000 C 
ATOM     21  C   UNL     1       7.270   5.166  13.728  0.00  0.00    +0.000 C 
ENDBRANCH  16  19
ENDBRANCH   6  14
BRANCH   1  23
ATOM     22  O   UNL     1       4.640   3.198  19.007  0.00  0.00    +0.000 OA
ATOM     23  C   UNL     1       4.874   4.323  19.431  0.00  0.00    +0.000 C 
BRANCH  23  24
ATOM     24  O   UNL     1       6.126   4.830  19.458  0.00  0.00    +0.000 OA
ATOM     25  H   UNL     1       6.221   5.599  20.051  0.00  0.00    +0.000 HD
ENDBRANCH  23  24
ENDBRANCH   1  23
TORSDOF 5
ENDMDL
MODEL 4
REMARK VINA RESULT:      -6.1      4.692      7.859
REMARK  Name = 
REMARK  5 active torsions:
REMARK  status: ('A' for Active; 'I' for Inactive)
REMARK    1  A    between atoms: C_2  and  O_3
REMARK    2  A    between atoms: C_2  and  C_4
REMARK    3  A    between atoms: C_7  and  C_8
REMARK    4  A    between atoms: C_15  and  C_17
REMARK    5  A    between atoms: C_19  and  C_20
REMARK                            x       y       z     vdW  Elec       q    Type
REMARK                         _______ _______ _______ _____ _____    ______ ____
ROOT
ATOM      1  C   UNL     1      -1.143  12.189  20.080  0.00  0.00    +0.000 C 
ATOM      2  C   UNL     1       0.093  13.085  20.304  0.00  0.00    +0.000 C 
ATOM      3  C   UNL     1       1.268  12.342  19.692  0.00  0.00    +0.000 C 
ATOM      4  C   UNL     1       0.644  11.338  18.710  0.00  0.00    +0.000 C 
ATOM      5  N   UNL     1      -0.813  11.565  18.788  0.00  0.00    +0.000 N 
ATOM      6  C   UNL     1      -1.643  10.749  17.999  0.00  0.00    +0.000 C 
ATOM      7  O   UNL     1      -1.168   9.905  17.239  0.00  0.00    +0.000 OA
ENDROOT
BRANCH   4   8
ATOM      8  C   UNL     1       1.111   9.924  19.056  0.00  0.00    +0.000 A 
ATOM      9  C   UNL     1       0.879   9.333  20.309  0.00  0.00    +0.000 A 
ATOM     10  C   UNL     1       1.349   8.050  20.599  0.00  0.00    +0.000 A 
ATOM     11  C   UNL     1       2.062   7.331  19.640  0.00  0.00    +0.000 A 
ATOM     12  C   UNL     1       2.302   7.899  18.393  0.00  0.00    +0.000 A 
ATOM     13  C   UNL     1       1.832   9.183  18.103  0.00  0.00    +0.000 A 
ENDBRANCH   4   8
BRANCH   6  14
ATOM     14  C   UNL     1      -3.064  10.984  17.999  0.00  0.00    +0.000 A 
ATOM     15  C   UNL     1      -4.102  10.410  18.703  0.00  0.00    +0.000 A 
ATOM     16  C   UNL     1      -5.260  10.924  18.087  0.00  0.00    +0.000 A 
ATOM     17  N   UNL     1      -4.960  11.757  17.090  0.00  0.00    +0.000 NA
ATOM     18  O   UNL     1      -3.589  11.748  17.009  0.00  0.00    +0.000 OA
BRANCH  16  19
ATOM     19  C   UNL     1      -6.684  10.540  18.448  0.00  0.00    +0.000 C 
ATOM     20  C   UNL     1      -6.922   9.567  19.588  0.00  0.00    +0.000 C 
ATOM     21  C   UNL     1      -7.207  11.013  19.797  0.00  0.00    +0.000 C 
ENDBRANCH  16  19
ENDBRANCH   6  14
BRANCH   1  23
ATOM     22  O   UNL     1      -3.214  12.779  21.185  0.00  0.00    +0.000 OA
ATOM     23  C   UNL     1      -2.343  13.095  20.385  0.00  0.00    +0.000 C 
BRANCH  23  24
ATOM     24  O   UNL     1      -2.287  14.328  19.839  0.00  0.00    +0.000 OA
ATOM     25  H   UNL     1      -3.055  14.888  20.062  0.00  0.00    +0.000 HD
ENDBRANCH  23  24
ENDBRANCH   1  23
TORSDOF 5
ENDMDL
MODEL 5
REMARK VINA RESULT:      -5.8      4.760      7.931
REMARK  Name = 
REMARK  5 active torsions:
REMARK  status: ('A' for Active; 'I' for Inactive)
REMARK    1  A    between atoms: C_2  and  O_3
REMARK    2  A    between atoms: C_2  and  C_4
REMARK    3  A    between atoms: C_7  and  C_8
REMARK    4  A    between atoms: C_15  and  C_17
REMARK    5  A    between atoms: C_19  and  C_20
REMARK                            x       y       z     vdW  Elec       q    Type
REMARK                         _______ _______ _______ _____ _____    ______ ____
ROOT
ATOM      1  C   UNL     1      -1.100  12.297  20.067  0.00  0.00    +0.000 C 
ATOM      2  C   UNL     1       0.143  13.185  20.284  0.00  0.00    +0.000 C 
ATOM      3  C   UNL     1       1.320  12.405  19.725  0.00  0.00    +0.000 C 
ATOM      4  C   UNL     1       0.703  11.372  18.769  0.00  0.00    +0.000 C 
ATOM      5  N   UNL     1      -0.751  11.620  18.807  0.00  0.00    +0.000 N 
ATOM      6  C   UNL     1      -1.575  10.785  18.031  0.00  0.00    +0.000 C 
ATOM      7  O   UNL     1      -1.095   9.907  17.314  0.00  0.00    +0.000 OA
ENDROOT
BRANCH   4   8
ATOM      8  C   UNL     1       1.145   9.967  19.178  0.00  0.00    +0.000 A 
ATOM      9  C   UNL     1       1.808   9.094  18.300  0.00  0.00    +0.000 A 
ATOM     10  C   UNL     1       2.169   7.806  18.700  0.00  0.00    +0.000 A 
ATOM     11  C   UNL     1       1.874   7.363  19.990  0.00  0.00    +0.000 A 
ATOM     12  C   UNL     1       1.218   8.214  20.875  0.00  0.00    +0.000 A 
ATOM     13  C   UNL     1       0.857   9.503  20.474  0.00  0.00    +0.000 A 
ENDBRANCH   4   8
BRANCH   6  14
ATOM     14  C   UNL     1      -2.992  11.037  17.992  0.00  0.00    +0.000 A 
ATOM     15  C   UNL     1      -4.049  10.523  18.713  0.00  0.00    +0.000 A 
ATOM     16  C   UNL     1      -5.191  11.011  18.045  0.00  0.00    +0.000 A 
ATOM     17  N   UNL     1      -4.862  11.774  17.002  0.00  0.00    +0.000 NA
ATOM     18  O   UNL     1      -3.491  11.742  16.946  0.00  0.00    +0.000 OA
BRANCH  16  19
ATOM     19  C   UNL     1      -6.625  10.668  18.406  0.00  0.00    +0.000 C 
ATOM     20  C   UNL     1      -6.959  10.287  19.837  0.00  0.00    +0.000 C 
ATOM     21  C   UNL     1      -7.354  11.630  19.333  0.00  0.00    +0.000 C 
ENDBRANCH  16  19
ENDBRANCH   6  14
BRANCH   1  23
ATOM     22  O   UNL     1      -3.236  12.911  21.028  0.00  0.00    +0.000 OA
ATOM     23  C   UNL     1      -2.294  13.228  20.312  0.00  0.00    +0.000 C 
BRANCH  23  24
ATOM     24  O   UNL     1      -2.160  14.478  19.820  0.00  0.00    +0.000 OA
ATOM     25  H   UNL     1      -2.911  15.064  20.034  0.00  0.00    +0.000 HD
ENDBRANCH  23  24
ENDBRANCH   1  23
TORSDOF 5
ENDMDL
MODEL 6
REMARK VINA RESULT:      -5.8      1.135      1.177
REMARK  Name = 
REMARK  5 active torsions:
REMARK  status: ('A' for Active; 'I' for Inactive)
REMARK    1  A    between atoms: C_2  and  O_3
REMARK    2  A    between atoms: C_2  and  C_4
REMARK    3  A    between atoms: C_7  and  C_8
REMARK    4  A    between atoms: C_15  and  C_17
REMARK    5  A    between atoms: C_19  and  C_20
REMARK                            x       y       z     vdW  Elec       q    Type
REMARK                         _______ _______ _______ _____ _____    ______ ____
ROOT
ATOM      1  C   UNL     1       2.574   3.826  18.958  0.00  0.00    +0.000 C 
ATOM      2  C   UNL     1       3.124   2.448  19.382  0.00  0.00    +0.000 C 
ATOM      3  C   UNL     1       4.582   2.427  18.957  0.00  0.00    +0.000 C 
ATOM      4  C   UNL     1       4.974   3.903  18.786  0.00  0.00    +0.000 C 
ATOM      5  N   UNL     1       3.765   4.674  19.135  0.00  0.00    +0.000 N 
ATOM      6  C   UNL     1       3.835   6.075  19.038  0.00  0.00    +0.000 C 
ATOM      7  O   UNL     1       4.881   6.639  18.713  0.00  0.00    +0.000 OA
ENDROOT
BRANCH   4   8
ATOM      8  C   UNL     1       5.518   4.129  17.375  0.00  0.00    +0.000 A 
ATOM      9  C   UNL     1       4.770   3.848  16.220  0.00  0.00    +0.000 A 
ATOM     10  C   UNL     1       5.312   4.038  14.947  0.00  0.00    +0.000 A 
ATOM     11  C   UNL     1       6.616   4.513  14.803  0.00  0.00    +0.000 A 
ATOM     12  C   UNL     1       7.373   4.798  15.936  0.00  0.00    +0.000 A 
ATOM     13  C   UNL     1       6.830   4.607  17.210  0.00  0.00    +0.000 A 
ENDBRANCH   4   8
BRANCH   6  14
ATOM     14  C   UNL     1       2.697   6.864  19.431  0.00  0.00    +0.000 A 
ATOM     15  C   UNL     1       2.059   7.936  18.842  0.00  0.00    +0.000 A 
ATOM     16  C   UNL     1       1.162   8.388  19.832  0.00  0.00    +0.000 A 
ATOM     17  N   UNL     1       1.235   7.647  20.938  0.00  0.00    +0.000 NA
ATOM     18  O   UNL     1       2.231   6.732  20.698  0.00  0.00    +0.000 OA
BRANCH  16  19
ATOM     19  C   UNL     1       0.265   9.607  19.705  0.00  0.00    +0.000 C 
ATOM     20  C   UNL     1      -0.255  10.278  20.962  0.00  0.00    +0.000 C 
ATOM     21  C   UNL     1       0.831  10.935  20.186  0.00  0.00    +0.000 C 
ENDBRANCH  16  19
ENDBRANCH   6  14
BRANCH   1  23
ATOM     22  O   UNL     1       0.170   3.649  19.171  0.00  0.00    +0.000 OA
ATOM     23  C   UNL     1       1.234   3.956  19.693  0.00  0.00    +0.000 C 
BRANCH  23  24
ATOM     24  O   UNL     1       1.323   4.273  21.002  0.00  0.00    +0.000 OA
ATOM     25  H   UNL     1       1.832   3.625  21.526  0.00  0.00    +0.000 HD
ENDBRANCH  23  24
ENDBRANCH   1  23
TORSDOF 5
ENDMDL
MODEL 7
REMARK VINA RESULT:      -5.8      0.873      1.397
REMARK  Name = 
REMARK  5 active torsions:
REMARK  status: ('A' for Active; 'I' for Inactive)
REMARK    1  A    between atoms: C_2  and  O_3
REMARK    2  A    between atoms: C_2  and  C_4
REMARK    3  A    between atoms: C_7  and  C_8
REMARK    4  A    between atoms: C_15  and  C_17
REMARK    5  A    between atoms: C_19  and  C_20
REMARK                            x       y       z     vdW  Elec       q    Type
REMARK                         _______ _______ _______ _____ _____    ______ ____
ROOT
ATOM      1  C   UNL     1       2.753   3.944  18.985  0.00  0.00    +0.000 C 
ATOM      2  C   UNL     1       3.361   2.610  19.467  0.00  0.00    +0.000 C 
ATOM      3  C   UNL     1       4.794   2.593  18.964  0.00  0.00    +0.000 C 
ATOM      4  C   UNL     1       5.137   4.063  18.675  0.00  0.00    +0.000 C 
ATOM      5  N   UNL     1       3.930   4.829  19.039  0.00  0.00    +0.000 N 
ATOM      6  C   UNL     1       3.958   6.221  18.847  0.00  0.00    +0.000 C 
ATOM      7  O   UNL     1       4.969   6.785  18.428  0.00  0.00    +0.000 OA
ENDROOT
BRANCH   4   8
ATOM      8  C   UNL     1       5.598   4.206  17.224  0.00  0.00    +0.000 A 
ATOM      9  C   UNL     1       6.906   4.581  16.876  0.00  0.00    +0.000 A 
ATOM     10  C   UNL     1       7.281   4.731  15.539  0.00  0.00    +0.000 A 
ATOM     11  C   UNL     1       6.353   4.510  14.521  0.00  0.00    +0.000 A 
ATOM     12  C   UNL     1       5.053   4.138  14.845  0.00  0.00    +0.000 A 
ATOM     13  C   UNL     1       4.677   3.988  16.184  0.00  0.00    +0.000 A 
ENDBRANCH   4   8
BRANCH   6  14
ATOM     14  C   UNL     1       2.822   7.009  19.251  0.00  0.00    +0.000 A 
ATOM     15  C   UNL     1       2.158   8.060  18.653  0.00  0.00    +0.000 A 
ATOM     16  C   UNL     1       1.283   8.528  19.655  0.00  0.00    +0.000 A 
ATOM     17  N   UNL     1       1.392   7.815  20.777  0.00  0.00    +0.000 NA
ATOM     18  O   UNL     1       2.391   6.904  20.532  0.00  0.00    +0.000 OA
BRANCH  16  19
ATOM     19  C   UNL     1       0.371   9.735  19.522  0.00  0.00    +0.000 C 
ATOM     20  C   UNL     1       0.805  10.899  18.652  0.00  0.00    +0.000 C 
ATOM     21  C   UNL     1      -0.256   9.981  18.157  0.00  0.00    +0.000 C 
ENDBRANCH  16  19
ENDBRANCH   6  14
BRANCH   1  23
ATOM     22  O   UNL     1       0.360   3.797  19.316  0.00  0.00    +0.000 OA
ATOM     23  C   UNL     1       1.452   4.092  19.784  0.00  0.00    +0.000 C 
BRANCH  23  24
ATOM     24  O   UNL     1       1.609   4.413  21.086  0.00  0.00    +0.000 OA
ATOM     25  H   UNL     1       0.797   4.759  21.503  0.00  0.00    +0.000 HD
ENDBRANCH  23  24
ENDBRANCH   1  23
TORSDOF 5
ENDMDL
MODEL 8
REMARK VINA RESULT:      -5.8      3.345      5.965
REMARK  Name = 
REMARK  5 active torsions:
REMARK  status: ('A' for Active; 'I' for Inactive)
REMARK    1  A    between atoms: C_2  and  O_3
REMARK    2  A    between atoms: C_2  and  C_4
REMARK    3  A    between atoms: C_7  and  C_8
REMARK    4  A    between atoms: C_15  and  C_17
REMARK    5  A    between atoms: C_19  and  C_20
REMARK                            x       y       z     vdW  Elec       q    Type
REMARK                         _______ _______ _______ _____ _____    ______ ____
ROOT
ATOM      1  C   UNL     1       5.794   4.037  17.017  0.00  0.00    +0.000 C 
ATOM      2  C   UNL     1       5.137   3.187  15.909  0.00  0.00    +0.000 C 
ATOM      3  C   UNL     1       3.662   3.102  16.264  0.00  0.00    +0.000 C 
ATOM      4  C   UNL     1       3.408   4.277  17.220  0.00  0.00    +0.000 C 
ATOM      5  N   UNL     1       4.704   4.972  17.344  0.00  0.00    +0.000 N 
ATOM      6  C   UNL     1       4.767   6.089  18.196  0.00  0.00    +0.000 C 
ATOM      7  O   UNL     1       3.765   6.497  18.784  0.00  0.00    +0.000 OA
ENDROOT
BRANCH   4   8
ATOM      8  C   UNL     1       2.811   3.755  18.527  0.00  0.00    +0.000 A 
ATOM      9  C   UNL     1       3.565   3.045  19.476  0.00  0.00    +0.000 A 
ATOM     10  C   UNL     1       2.977   2.556  20.644  0.00  0.00    +0.000 A 
ATOM     11  C   UNL     1       1.619   2.767  20.888  0.00  0.00    +0.000 A 
ATOM     12  C   UNL     1       0.855   3.468  19.960  0.00  0.00    +0.000 A 
ATOM     13  C   UNL     1       1.444   3.957  18.790  0.00  0.00    +0.000 A 
ENDBRANCH   4   8
BRANCH   6  14
ATOM     14  C   UNL     1       5.998   6.830  18.293  0.00  0.00    +0.000 A 
ATOM     15  C   UNL     1       6.407   8.029  17.747  0.00  0.00    +0.000 A 
ATOM     16  C   UNL     1       7.784   8.088  18.041  0.00  0.00    +0.000 A 
ATOM     17  N   UNL     1       8.188   7.016  18.724  0.00  0.00    +0.000 NA
ATOM     18  O   UNL     1       7.079   6.214  18.830  0.00  0.00    +0.000 OA
BRANCH  16  19
ATOM     19  C   UNL     1       8.727   9.189  17.589  0.00  0.00    +0.000 C 
ATOM     20  C   UNL     1       8.295  10.637  17.727  0.00  0.00    +0.000 C 
ATOM     21  C   UNL     1       9.308  10.089  18.669  0.00  0.00    +0.000 C 
ENDBRANCH  16  19
ENDBRANCH   6  14
BRANCH   1  23
ATOM     22  O   UNL     1       7.327   5.009  15.417  0.00  0.00    +0.000 OA
ATOM     23  C   UNL     1       7.180   4.395  16.465  0.00  0.00    +0.000 C 
BRANCH  23  24
ATOM     24  O   UNL     1       8.215   4.133  17.292  0.00  0.00    +0.000 OA
ATOM     25  H   UNL     1       8.075   4.451  18.204  0.00  0.00    +0.000 HD
ENDBRANCH  23  24
ENDBRANCH   1  23
TORSDOF 5
ENDMDL
MODEL 9
REMARK VINA RESULT:      -5.8      4.562      7.681
REMARK  Name = 
REMARK  5 active torsions:
REMARK  status: ('A' for Active; 'I' for Inactive)
REMARK    1  A    between atoms: C_2  and  O_3
REMARK    2  A    between atoms: C_2  and  C_4
REMARK    3  A    between atoms: C_7  and  C_8
REMARK    4  A    between atoms: C_15  and  C_17
REMARK    5  A    between atoms: C_19  and  C_20
REMARK                            x       y       z     vdW  Elec       q    Type
REMARK                         _______ _______ _______ _____ _____    ______ ____
ROOT
ATOM      1  C   UNL     1      -1.245  11.928  19.972  0.00  0.00    +0.000 C 
ATOM      2  C   UNL     1      -0.058  12.854  20.309  0.00  0.00    +0.000 C 
ATOM      3  C   UNL     1       1.186  12.147  19.801  0.00  0.00    +0.000 C 
ATOM      4  C   UNL     1       0.679  11.133  18.763  0.00  0.00    +0.000 C 
ATOM      5  N   UNL     1      -0.784  11.322  18.711  0.00  0.00    +0.000 N 
ATOM      6  C   UNL     1      -1.518  10.490  17.848  0.00  0.00    +0.000 C 
ATOM      7  O   UNL     1      -0.955   9.663  17.130  0.00  0.00    +0.000 OA
ENDROOT
BRANCH   4   8
ATOM      8  C   UNL     1       1.152   9.730  19.144  0.00  0.00    +0.000 A 
ATOM      9  C   UNL     1       0.892   9.156  20.399  0.00  0.00    +0.000 A 
ATOM     10  C   UNL     1       1.367   7.883  20.721  0.00  0.00    +0.000 A 
ATOM     11  C   UNL     1       2.113   7.156  19.793  0.00  0.00    +0.000 A 
ATOM     12  C   UNL     1       2.380   7.707  18.543  0.00  0.00    +0.000 A 
ATOM     13  C   UNL     1       1.905   8.982  18.221  0.00  0.00    +0.000 A 
ENDBRANCH   4   8
BRANCH   6  14
ATOM     14  C   UNL     1      -2.939  10.688  17.722  0.00  0.00    +0.000 A 
ATOM     15  C   UNL     1      -3.692  11.698  17.161  0.00  0.00    +0.000 A 
ATOM     16  C   UNL     1      -5.012  11.405  17.561  0.00  0.00    +0.000 A 
ATOM     17  N   UNL     1      -5.068  10.296  18.300  0.00  0.00    +0.000 NA
ATOM     18  O   UNL     1      -3.765   9.886  18.438  0.00  0.00    +0.000 OA
BRANCH  16  19
ATOM     19  C   UNL     1      -6.226  12.267  17.261  0.00  0.00    +0.000 C 
ATOM     20  C   UNL     1      -7.352  12.340  18.275  0.00  0.00    +0.000 C 
ATOM     21  C   UNL     1      -6.431  13.500  18.128  0.00  0.00    +0.000 C 
ENDBRANCH  16  19
ENDBRANCH   6  14
BRANCH   1  23
ATOM     22  O   UNL     1      -3.481  12.398  20.769  0.00  0.00    +0.000 OA
ATOM     23  C   UNL     1      -2.491  12.800  20.173  0.00  0.00    +0.000 C 
BRANCH  23  24
ATOM     24  O   UNL     1      -2.359  14.089  19.793  0.00  0.00    +0.000 OA
ATOM     25  H   UNL     1      -1.784  14.612  20.383  0.00  0.00    +0.000 HD
ENDBRANCH  23  24
ENDBRANCH   1  23
TORSDOF 5
ENDMDL
