MODEL 1
REMARK VINA RESULT:      -8.9      0.000      0.000
REMARK  Name = 
REMARK  5 active torsions:
REMARK  status: ('A' for Active; 'I' for Inactive)
REMARK    1  A    between atoms: C_1  and  C_2
REMARK    2  A    between atoms: C_4  and  S_5
REMARK    3  A    between atoms: S_5  and  C_6
REMARK    4  A    between atoms: C_6  and  C_7
REMARK    5  A    between atoms: C_7  and  C_8
REMARK                            x       y       z     vdW  Elec       q    Type
REMARK                         _______ _______ _______ _____ _____    ______ ____
ROOT
ATOM      1  C   UNL     1       8.209   7.157  18.677  0.00  0.00    +0.000 C 
ATOM      2  C   UNL     1       7.236   6.339  17.876  0.00  0.00    +0.000 A 
ATOM      3  N   UNL     1       6.382   5.512  18.554  0.00  0.00    +0.000 NA
ATOM      4  C   UNL     1       5.581   4.660  17.843  0.00  0.00    +0.000 A 
ATOM      5  C   UNL     1       5.801   4.597  16.472  0.00  0.00    +0.000 A 
ATOM      6  O   UNL     1       5.259   3.753  15.543  0.00  0.00    +0.000 OA
ATOM      7  C   UNL     1       5.913   3.992  14.366  0.00  0.00    +0.000 A 
ATOM      8  C   UNL     1       5.689   3.324  13.164  0.00  0.00    +0.000 A 
ATOM      9  C   UNL     1       6.507   3.683  12.084  0.00  0.00    +0.000 A 
ATOM     10  C   UNL     1       7.502   4.655  12.220  0.00  0.00    +0.000 A 
ATOM     11  C   UNL     1       7.696   5.320  13.437  0.00  0.00    +0.000 A 
ATOM     12  C   UNL     1       6.868   4.989  14.528  0.00  0.00    +0.000 A 
ATOM     13  C   UNL     1       6.755   5.406  15.876  0.00  0.00    +0.000 A 
ATOM     14  N   UNL     1       7.470   6.327  16.557  0.00  0.00    +0.000 NA
ENDROOT
BRANCH   4  15
ATOM     15  S   UNL     1       4.618   3.400  18.648  0.00  0.00    +0.000 S 
BRANCH  15  16
ATOM     16  C   UNL     1       2.916   4.098  18.774  0.00  0.00    +0.000 C 
BRANCH  16  17
ATOM     17  C   UNL     1       2.839   4.973  20.043  0.00  0.00    +0.000 C 
BRANCH  17  18
ATOM     18  C   UNL     1       2.432   6.392  19.776  0.00  0.00    +0.000 A 
ATOM     19  N   UNL     1       2.546   7.056  18.645  0.00  0.00    +0.000 NA
ATOM     20  C   UNL     1       1.984   8.294  18.875  0.00  0.00    +0.000 A 
ATOM     21  C   UNL     1       1.839   9.390  18.012  0.00  0.00    +0.000 A 
ATOM     22  C   UNL     1       1.227  10.556  18.494  0.00  0.00    +0.000 A 
ATOM     23  C   UNL     1       0.764  10.627  19.811  0.00  0.00    +0.000 A 
ATOM     24  C   UNL     1       0.893   9.540  20.685  0.00  0.00    +0.000 A 
ATOM     25  C   UNL     1       1.511   8.392  20.177  0.00  0.00    +0.000 A 
ATOM     26  N   UNL     1       1.801   7.167  20.729  0.00  0.00    +0.000 N 
ATOM     27  H   UNL     1       1.572   6.882  21.668  0.00  0.00    +0.000 HD
ENDBRANCH  17  18
ENDBRANCH  16  17
ENDBRANCH  15  16
ENDBRANCH   4  15
TORSDOF 4
ENDMDL
MODEL 2
REMARK VINA RESULT:      -8.4      0.859      1.251
REMARK  Name = 
REMARK  5 active torsions:
REMARK  status: ('A' for Active; 'I' for Inactive)
REMARK    1  A    between atoms: C_1  and  C_2
REMARK    2  A    between atoms: C_4  and  S_5
REMARK    3  A    between atoms: S_5  and  C_6
REMARK    4  A    between atoms: C_6  and  C_7
REMARK    5  A    between atoms: C_7  and  C_8
REMARK                            x       y       z     vdW  Elec       q    Type
REMARK                         _______ _______ _______ _____ _____    ______ ____
ROOT
ATOM      1  C   UNL     1       8.234   7.087  18.515  0.00  0.00    +0.000 C 
ATOM      2  C   UNL     1       7.195   6.362  17.707  0.00  0.00    +0.000 A 
ATOM      3  N   UNL     1       6.226   5.672  18.382  0.00  0.00    +0.000 NA
ATOM      4  C   UNL     1       5.350   4.895  17.672  0.00  0.00    +0.000 A 
ATOM      5  C   UNL     1       5.605   4.752  16.313  0.00  0.00    +0.000 A 
ATOM      6  O   UNL     1       4.995   3.944  15.395  0.00  0.00    +0.000 OA
ATOM      7  C   UNL     1       5.710   4.056  14.235  0.00  0.00    +0.000 A 
ATOM      8  C   UNL     1       5.445   3.373  13.050  0.00  0.00    +0.000 A 
ATOM      9  C   UNL     1       6.335   3.589  11.989  0.00  0.00    +0.000 A 
ATOM     10  C   UNL     1       7.437   4.437  12.127  0.00  0.00    +0.000 A 
ATOM     11  C   UNL     1       7.670   5.122  13.327  0.00  0.00    +0.000 A 
ATOM     12  C   UNL     1       6.774   4.936  14.397  0.00  0.00    +0.000 A 
ATOM     13  C   UNL     1       6.669   5.416  15.725  0.00  0.00    +0.000 A 
ATOM     14  N   UNL     1       7.469   6.270  16.399  0.00  0.00    +0.000 NA
ENDROOT
BRANCH   4  15
ATOM     15  S   UNL     1       4.215   3.793  18.484  0.00  0.00    +0.000 S 
BRANCH  15  16
ATOM     16  C   UNL     1       3.018   4.889  19.359  0.00  0.00    +0.000 C 
BRANCH  16  17
ATOM     17  C   UNL     1       2.998   6.258  18.647  0.00  0.00    +0.000 C 
BRANCH  17  18
ATOM     18  C   UNL     1       2.243   7.318  19.393  0.00  0.00    +0.000 A 
ATOM     19  N   UNL     1       1.657   8.384  18.890  0.00  0.00    +0.000 NA
ATOM     20  C   UNL     1       1.049   9.018  19.952  0.00  0.00    +0.000 A 
ATOM     21  C   UNL     1       0.289  10.197  19.980  0.00  0.00    +0.000 A 
ATOM     22  C   UNL     1      -0.226  10.642  21.207  0.00  0.00    +0.000 A 
ATOM     23  C   UNL     1       0.010   9.923  22.383  0.00  0.00    +0.000 A 
ATOM     24  C   UNL     1       0.760   8.741  22.373  0.00  0.00    +0.000 A 
ATOM     25  C   UNL     1       1.262   8.323  21.135  0.00  0.00    +0.000 A 
ATOM     26  N   UNL     1       2.019   7.241  20.753  0.00  0.00    +0.000 N 
ATOM     27  H   UNL     1       2.339   6.508  21.366  0.00  0.00    +0.000 HD
ENDBRANCH  17  18
ENDBRANCH  16  17
ENDBRANCH  15  16
ENDBRANCH   4  15
TORSDOF 4
ENDMDL
MODEL 3
REMARK VINA RESULT:      -8.3      0.649      1.333
REMARK  Name = 
REMARK  5 active torsions:
REMARK  status: ('A' for Active; 'I' for Inactive)
REMARK    1  A    between atoms: C_1  and  C_2
REMARK    2  A    between atoms: C_4  and  S_5
REMARK    3  A    between atoms: S_5  and  C_6
REMARK    4  A    between atoms: C_6  and  C_7
REMARK    5  A    between atoms: C_7  and  C_8
REMARK                            x       y       z     vdW  Elec       q    Type
REMARK                         _______ _______ _______ _____ _____    ______ ____
ROOT
ATOM      1  C   UNL     1       8.216   7.562  18.408  0.00  0.00    +0.000 C 
ATOM      2  C   UNL     1       7.258   6.658  17.683  0.00  0.00    +0.000 A 
ATOM      3  N   UNL     1       6.439   5.860  18.434  0.00  0.00    +0.000 NA
ATOM      4  C   UNL     1       5.654   4.935  17.799  0.00  0.00    +0.000 A 
ATOM      5  C   UNL     1       5.858   4.777  16.433  0.00  0.00    +0.000 A 
ATOM      6  O   UNL     1       5.331   3.851  15.577  0.00  0.00    +0.000 OA
ATOM      7  C   UNL     1       5.961   4.021  14.376  0.00  0.00    +0.000 A 
ATOM      8  C   UNL     1       5.742   3.260  13.230  0.00  0.00    +0.000 A 
ATOM      9  C   UNL     1       6.535   3.562  12.114  0.00  0.00    +0.000 A 
ATOM     10  C   UNL     1       7.502   4.569  12.163  0.00  0.00    +0.000 A 
ATOM     11  C   UNL     1       7.691   5.328  13.325  0.00  0.00    +0.000 A 
ATOM     12  C   UNL     1       6.888   5.055  14.449  0.00  0.00    +0.000 A 
ATOM     13  C   UNL     1       6.780   5.566  15.765  0.00  0.00    +0.000 A 
ATOM     14  N   UNL     1       7.475   6.556  16.365  0.00  0.00    +0.000 NA
ENDROOT
BRANCH   4  15
ATOM     15  S   UNL     1       4.741   3.710  18.709  0.00  0.00    +0.000 S 
BRANCH  15  16
ATOM     16  C   UNL     1       3.252   4.591  19.346  0.00  0.00    +0.000 C 
BRANCH  16  17
ATOM     17  C   UNL     1       2.911   5.740  18.374  0.00  0.00    +0.000 C 
BRANCH  17  18
ATOM     18  C   UNL     1       2.282   6.929  19.038  0.00  0.00    +0.000 A 
ATOM     19  N   UNL     1       1.949   7.052  20.306  0.00  0.00    +0.000 NA
ATOM     20  C   UNL     1       1.465   8.335  20.447  0.00  0.00    +0.000 A 
ATOM     21  C   UNL     1       0.975   8.991  21.586  0.00  0.00    +0.000 A 
ATOM     22  C   UNL     1       0.532  10.316  21.466  0.00  0.00    +0.000 A 
ATOM     23  C   UNL     1       0.580  10.977  20.235  0.00  0.00    +0.000 A 
ATOM     24  C   UNL     1       1.072  10.341  19.089  0.00  0.00    +0.000 A 
ATOM     25  C   UNL     1       1.505   9.018  19.239  0.00  0.00    +0.000 A 
ATOM     26  N   UNL     1       2.035   8.106  18.358  0.00  0.00    +0.000 N 
ATOM     27  H   UNL     1       2.225   8.277  17.384  0.00  0.00    +0.000 HD
ENDBRANCH  17  18
ENDBRANCH  16  17
ENDBRANCH  15  16
ENDBRANCH   4  15
TORSDOF 4
ENDMDL
MODEL 4
REMARK VINA RESULT:      -8.2      1.821      7.585
REMARK  Name = 
REMARK  5 active torsions:
REMARK  status: ('A' for Active; 'I' for Inactive)
REMARK    1  A    between atoms: C_1  and  C_2
REMARK    2  A    between atoms: C_4  and  S_5
REMARK    3  A    between atoms: S_5  and  C_6
REMARK    4  A    between atoms: C_6  and  C_7
REMARK    5  A    between atoms: C_7  and  C_8
REMARK                            x       y       z     vdW  Elec       q    Type
REMARK                         _______ _______ _______ _____ _____    ______ ____
ROOT
ATOM      1  C   UNL     1       1.129   9.425  18.183  0.00  0.00    +0.000 C 
ATOM      2  C   UNL     1       2.111   8.323  18.467  0.00  0.00    +0.000 A 
ATOM      3  N   UNL     1       3.244   8.262  17.701  0.00  0.00    +0.000 NA
ATOM      4  C   UNL     1       4.086   7.194  17.850  0.00  0.00    +0.000 A 
ATOM      5  C   UNL     1       3.648   6.166  18.677  0.00  0.00    +0.000 A 
ATOM      6  O   UNL     1       4.202   4.937  18.904  0.00  0.00    +0.000 OA
ATOM      7  C   UNL     1       3.313   4.240  19.673  0.00  0.00    +0.000 A 
ATOM      8  C   UNL     1       3.473   2.926  20.110  0.00  0.00    +0.000 A 
ATOM      9  C   UNL     1       2.415   2.376  20.846  0.00  0.00    +0.000 A 
ATOM     10  C   UNL     1       1.257   3.111  21.111  0.00  0.00    +0.000 A 
ATOM     11  C   UNL     1       1.129   4.435  20.671  0.00  0.00    +0.000 A 
ATOM     12  C   UNL     1       2.191   5.013  19.950  0.00  0.00    +0.000 A 
ATOM     13  C   UNL     1       2.438   6.268  19.344  0.00  0.00    +0.000 A 
ATOM     14  N   UNL     1       1.657   7.368  19.288  0.00  0.00    +0.000 NA
ENDROOT
BRANCH   4  15
ATOM     15  S   UNL     1       5.449   6.922  16.740  0.00  0.00    +0.000 S 
BRANCH  15  16
ATOM     16  C   UNL     1       6.861   6.431  17.819  0.00  0.00    +0.000 C 
BRANCH  16  17
ATOM     17  C   UNL     1       7.274   4.988  17.458  0.00  0.00    +0.000 C 
BRANCH  17  18
ATOM     18  C   UNL     1       7.046   4.636  16.017  0.00  0.00    +0.000 A 
ATOM     19  N   UNL     1       6.155   3.799  15.531  0.00  0.00    +0.000 NA
ATOM     20  C   UNL     1       6.291   3.856  14.160  0.00  0.00    +0.000 A 
ATOM     21  C   UNL     1       5.591   3.167  13.159  0.00  0.00    +0.000 A 
ATOM     22  C   UNL     1       5.924   3.402  11.816  0.00  0.00    +0.000 A 
ATOM     23  C   UNL     1       6.934   4.308  11.479  0.00  0.00    +0.000 A 
ATOM     24  C   UNL     1       7.639   5.009  12.465  0.00  0.00    +0.000 A 
ATOM     25  C   UNL     1       7.286   4.753  13.795  0.00  0.00    +0.000 A 
ATOM     26  N   UNL     1       7.748   5.243  14.993  0.00  0.00    +0.000 N 
ATOM     27  H   UNL     1       8.466   5.940  15.100  0.00  0.00    +0.000 HD
ENDBRANCH  17  18
ENDBRANCH  16  17
ENDBRANCH  15  16
ENDBRANCH   4  15
TORSDOF 4
ENDMDL
MODEL 5
REMARK VINA RESULT:      -8.1      3.528      7.060
REMARK  Name = 
REMARK  5 active torsions:
REMARK  status: ('A' for Active; 'I' for Inactive)
REMARK    1  A    between atoms: C_1  and  C_2
REMARK    2  A    between atoms: C_4  and  S_5
REMARK    3  A    between atoms: S_5  and  C_6
REMARK    4  A    between atoms: C_6  and  C_7
REMARK    5  A    between atoms: C_7  and  C_8
REMARK                            x       y       z     vdW  Elec       q    Type
REMARK                         _______ _______ _______ _____ _____    ______ ____
ROOT
ATOM      1  C   UNL     1       5.763   4.272  14.513  0.00  0.00    +0.000 C 
ATOM      2  C   UNL     1       5.327   4.688  15.890  0.00  0.00    +0.000 A 
ATOM      3  N   UNL     1       6.254   5.282  16.703  0.00  0.00    +0.000 NA
ATOM      4  C   UNL     1       5.921   5.548  18.004  0.00  0.00    +0.000 A 
ATOM      5  C   UNL     1       4.698   5.057  18.446  0.00  0.00    +0.000 A 
ATOM      6  O   UNL     1       4.169   5.047  19.706  0.00  0.00    +0.000 OA
ATOM      7  C   UNL     1       3.017   4.316  19.645  0.00  0.00    +0.000 A 
ATOM      8  C   UNL     1       2.177   4.032  20.720  0.00  0.00    +0.000 A 
ATOM      9  C   UNL     1       1.070   3.215  20.454  0.00  0.00    +0.000 A 
ATOM     10  C   UNL     1       0.835   2.707  19.174  0.00  0.00    +0.000 A 
ATOM     11  C   UNL     1       1.688   3.020  18.108  0.00  0.00    +0.000 A 
ATOM     12  C   UNL     1       2.793   3.858  18.351  0.00  0.00    +0.000 A 
ATOM     13  C   UNL     1       3.857   4.380  17.577  0.00  0.00    +0.000 A 
ATOM     14  N   UNL     1       4.132   4.214  16.265  0.00  0.00    +0.000 NA
ENDROOT
BRANCH   4  15
ATOM     15  S   UNL     1       7.134   6.102  19.180  0.00  0.00    +0.000 S 
BRANCH  15  16
ATOM     16  C   UNL     1       8.331   7.108  18.203  0.00  0.00    +0.000 C 
BRANCH  16  17
ATOM     17  C   UNL     1       7.662   8.452  17.845  0.00  0.00    +0.000 C 
BRANCH  17  18
ATOM     18  C   UNL     1       8.437   9.654  18.299  0.00  0.00    +0.000 A 
ATOM     19  N   UNL     1       9.262   9.732  19.321  0.00  0.00    +0.000 NA
ATOM     20  C   UNL     1       9.772  11.013  19.298  0.00  0.00    +0.000 A 
ATOM     21  C   UNL     1      10.693  11.629  20.158  0.00  0.00    +0.000 A 
ATOM     22  C   UNL     1      11.053  12.964  19.920  0.00  0.00    +0.000 A 
ATOM     23  C   UNL     1      10.509  13.669  18.843  0.00  0.00    +0.000 A 
ATOM     24  C   UNL     1       9.594  13.068  17.971  0.00  0.00    +0.000 A 
ATOM     25  C   UNL     1       9.251  11.737  18.234  0.00  0.00    +0.000 A 
ATOM     26  N   UNL     1       8.409  10.850  17.608  0.00  0.00    +0.000 N 
ATOM     27  H   UNL     1       7.876  11.040  16.774  0.00  0.00    +0.000 HD
ENDBRANCH  17  18
ENDBRANCH  16  17
ENDBRANCH  15  16
ENDBRANCH   4  15
TORSDOF 4
ENDMDL
MODEL 6
REMARK VINA RESULT:      -8.1      3.375      5.303
REMARK  Name = 
REMARK  5 active torsions:
REMARK  status: ('A' for Active; 'I' for Inactive)
REMARK    1  A    between atoms: C_1  and  C_2
REMARK    2  A    between atoms: C_4  and  S_5
REMARK    3  A    between atoms: S_5  and  C_6
REMARK    4  A    between atoms: C_6  and  C_7
REMARK    5  A    between atoms: C_7  and  C_8
REMARK                            x       y       z     vdW  Elec       q    Type
REMARK                         _______ _______ _______ _____ _____    ______ ____
ROOT
ATOM      1  C   UNL     1       0.966   2.736  20.569  0.00  0.00    +0.000 C 
ATOM      2  C   UNL     1       1.851   3.873  20.141  0.00  0.00    +0.000 A 
ATOM      3  N   UNL     1       1.577   5.119  20.637  0.00  0.00    +0.000 NA
ATOM      4  C   UNL     1       2.283   6.191  20.160  0.00  0.00    +0.000 A 
ATOM      5  C   UNL     1       3.137   5.947  19.090  0.00  0.00    +0.000 A 
ATOM      6  O   UNL     1       3.852   6.831  18.331  0.00  0.00    +0.000 OA
ATOM      7  C   UNL     1       4.410   6.113  17.311  0.00  0.00    +0.000 A 
ATOM      8  C   UNL     1       5.197   6.634  16.286  0.00  0.00    +0.000 A 
ATOM      9  C   UNL     1       5.627   5.732  15.304  0.00  0.00    +0.000 A 
ATOM     10  C   UNL     1       5.269   4.383  15.351  0.00  0.00    +0.000 A 
ATOM     11  C   UNL     1       4.488   3.883  16.401  0.00  0.00    +0.000 A 
ATOM     12  C   UNL     1       4.065   4.769  17.410  0.00  0.00    +0.000 A 
ATOM     13  C   UNL     1       3.284   4.665  18.586  0.00  0.00    +0.000 A 
ATOM     14  N   UNL     1       2.675   3.587  19.125  0.00  0.00    +0.000 NA
ENDROOT
BRANCH   4  15
ATOM     15  S   UNL     1       1.835   7.860  20.578  0.00  0.00    +0.000 S 
BRANCH  15  16
ATOM     16  C   UNL     1       1.384   8.655  18.976  0.00  0.00    +0.000 C 
BRANCH  16  17
ATOM     17  C   UNL     1       0.813  10.058  19.271  0.00  0.00    +0.000 C 
BRANCH  17  18
ATOM     18  C   UNL     1      -0.515  10.320  18.625  0.00  0.00    +0.000 A 
ATOM     19  N   UNL     1      -1.529  10.990  19.129  0.00  0.00    +0.000 NA
ATOM     20  C   UNL     1      -2.496  11.010  18.146  0.00  0.00    +0.000 A 
ATOM     21  C   UNL     1      -3.773  11.589  18.152  0.00  0.00    +0.000 A 
ATOM     22  C   UNL     1      -4.579  11.464  17.010  0.00  0.00    +0.000 A 
ATOM     23  C   UNL     1      -4.119  10.779  15.883  0.00  0.00    +0.000 A 
ATOM     24  C   UNL     1      -2.844  10.201  15.855  0.00  0.00    +0.000 A 
ATOM     25  C   UNL     1      -2.063  10.339  17.009  0.00  0.00    +0.000 A 
ATOM     26  N   UNL     1      -0.798   9.914  17.335  0.00  0.00    +0.000 N 
ATOM     27  H   UNL     1      -0.177   9.407  16.724  0.00  0.00    +0.000 HD
ENDBRANCH  17  18
ENDBRANCH  16  17
ENDBRANCH  15  16
ENDBRANCH   4  15
TORSDOF 4
ENDMDL
MODEL 7
REMARK VINA RESULT:      -8.0      2.987      4.753
REMARK  Name = 
REMARK  5 active torsions:
REMARK  status: ('A' for Active; 'I' for Inactive)
REMARK    1  A    between atoms: C_1  and  C_2
REMARK    2  A    between atoms: C_4  and  S_5
REMARK    3  A    between atoms: S_5  and  C_6
REMARK    4  A    between atoms: C_6  and  C_7
REMARK    5  A    between atoms: C_7  and  C_8
REMARK                            x       y       z     vdW  Elec       q    Type
REMARK                         _______ _______ _______ _____ _____    ______ ____
ROOT
ATOM      1  C   UNL     1       0.810   2.489  18.851  0.00  0.00    +0.000 C 
ATOM      2  C   UNL     1       1.903   3.517  18.761  0.00  0.00    +0.000 A 
ATOM      3  N   UNL     1       1.668   4.750  19.307  0.00  0.00    +0.000 NA
ATOM      4  C   UNL     1       2.593   5.742  19.121  0.00  0.00    +0.000 A 
ATOM      5  C   UNL     1       3.645   5.460  18.258  0.00  0.00    +0.000 A 
ATOM      6  O   UNL     1       4.624   6.286  17.782  0.00  0.00    +0.000 OA
ATOM      7  C   UNL     1       5.322   5.573  16.848  0.00  0.00    +0.000 A 
ATOM      8  C   UNL     1       6.391   6.051  16.094  0.00  0.00    +0.000 A 
ATOM      9  C   UNL     1       6.936   5.172  15.148  0.00  0.00    +0.000 A 
ATOM     10  C   UNL     1       6.417   3.887  14.970  0.00  0.00    +0.000 A 
ATOM     11  C   UNL     1       5.351   3.427  15.752  0.00  0.00    +0.000 A 
ATOM     12  C   UNL     1       4.805   4.288  16.723  0.00  0.00    +0.000 A 
ATOM     13  C   UNL     1       3.755   4.210  17.670  0.00  0.00    +0.000 A 
ATOM     14  N   UNL     1       2.909   3.193  17.938  0.00  0.00    +0.000 NA
ENDROOT
BRANCH   4  15
ATOM     15  S   UNL     1       2.260   7.423  19.597  0.00  0.00    +0.000 S 
BRANCH  15  16
ATOM     16  C   UNL     1       1.950   8.321  18.016  0.00  0.00    +0.000 C 
BRANCH  16  17
ATOM     17  C   UNL     1       1.672   9.803  18.343  0.00  0.00    +0.000 C 
BRANCH  17  18
ATOM     18  C   UNL     1       0.219  10.171  18.296  0.00  0.00    +0.000 A 
ATOM     19  N   UNL     1      -0.405  11.056  19.046  0.00  0.00    +0.000 NA
ATOM     20  C   UNL     1      -1.707  11.083  18.594  0.00  0.00    +0.000 A 
ATOM     21  C   UNL     1      -2.796  11.847  19.037  0.00  0.00    +0.000 A 
ATOM     22  C   UNL     1      -4.039  11.686  18.406  0.00  0.00    +0.000 A 
ATOM     23  C   UNL     1      -4.191  10.783  17.349  0.00  0.00    +0.000 A 
ATOM     24  C   UNL     1      -3.113  10.017  16.889  0.00  0.00    +0.000 A 
ATOM     25  C   UNL     1      -1.887  10.197  17.540  0.00  0.00    +0.000 A 
ATOM     26  N   UNL     1      -0.646   9.634  17.363  0.00  0.00    +0.000 N 
ATOM     27  H   UNL     1      -0.409   8.955  16.658  0.00  0.00    +0.000 HD
ENDBRANCH  17  18
ENDBRANCH  16  17
ENDBRANCH  15  16
ENDBRANCH   4  15
TORSDOF 4
ENDMDL
MODEL 8
REMARK VINA RESULT:      -8.0      1.920      8.288
REMARK  Name = 
REMARK  5 active torsions:
REMARK  status: ('A' for Active; 'I' for Inactive)
REMARK    1  A    between atoms: C_1  and  C_2
REMARK    2  A    between atoms: C_4  and  S_5
REMARK    3  A    between atoms: S_5  and  C_6
REMARK    4  A    between atoms: C_6  and  C_7
REMARK    5  A    between atoms: C_7  and  C_8
REMARK                            x       y       z     vdW  Elec       q    Type
REMARK                         _______ _______ _______ _____ _____    ______ ____
ROOT
ATOM      1  C   UNL     1       2.504   3.668  21.422  0.00  0.00    +0.000 C 
ATOM      2  C   UNL     1       2.363   4.866  20.525  0.00  0.00    +0.000 A 
ATOM      3  N   UNL     1       3.243   4.994  19.485  0.00  0.00    +0.000 NA
ATOM      4  C   UNL     1       3.220   6.141  18.737  0.00  0.00    +0.000 A 
ATOM      5  C   UNL     1       2.390   7.161  19.186  0.00  0.00    +0.000 A 
ATOM      6  O   UNL     1       2.266   8.444  18.732  0.00  0.00    +0.000 OA
ATOM      7  C   UNL     1       1.435   9.092  19.602  0.00  0.00    +0.000 A 
ATOM      8  C   UNL     1       1.064  10.433  19.524  0.00  0.00    +0.000 A 
ATOM      9  C   UNL     1       0.243  10.918  20.551  0.00  0.00    +0.000 A 
ATOM     10  C   UNL     1      -0.167  10.094  21.602  0.00  0.00    +0.000 A 
ATOM     11  C   UNL     1       0.210   8.745  21.647  0.00  0.00    +0.000 A 
ATOM     12  C   UNL     1       1.015   8.234  20.612  0.00  0.00    +0.000 A 
ATOM     13  C   UNL     1       1.598   6.980  20.309  0.00  0.00    +0.000 A 
ATOM     14  N   UNL     1       1.534   5.813  20.984  0.00  0.00    +0.000 NA
ENDROOT
BRANCH   4  15
ATOM     15  S   UNL     1       4.474   6.484  17.524  0.00  0.00    +0.000 S 
BRANCH  15  16
ATOM     16  C   UNL     1       6.066   6.014  18.327  0.00  0.00    +0.000 C 
BRANCH  16  17
ATOM     17  C   UNL     1       6.510   4.646  17.769  0.00  0.00    +0.000 C 
BRANCH  17  18
ATOM     18  C   UNL     1       6.628   4.611  16.274  0.00  0.00    +0.000 A 
ATOM     19  N   UNL     1       7.457   5.304  15.522  0.00  0.00    +0.000 NA
ATOM     20  C   UNL     1       7.230   4.888  14.227  0.00  0.00    +0.000 A 
ATOM     21  C   UNL     1       7.839   5.299  13.032  0.00  0.00    +0.000 A 
ATOM     22  C   UNL     1       7.422   4.718  11.825  0.00  0.00    +0.000 A 
ATOM     23  C   UNL     1       6.420   3.743  11.811  0.00  0.00    +0.000 A 
ATOM     24  C   UNL     1       5.807   3.315  12.995  0.00  0.00    +0.000 A 
ATOM     25  C   UNL     1       6.241   3.915  14.183  0.00  0.00    +0.000 A 
ATOM     26  N   UNL     1       5.878   3.749  15.498  0.00  0.00    +0.000 N 
ATOM     27  H   UNL     1       5.190   3.095  15.835  0.00  0.00    +0.000 HD
ENDBRANCH  17  18
ENDBRANCH  16  17
ENDBRANCH  15  16
ENDBRANCH   4  15
TORSDOF 4
ENDMDL
MODEL 9
REMARK VINA RESULT:      -8.0      3.265      5.308
REMARK  Name = 
REMARK  5 active torsions:
REMARK  status: ('A' for Active; 'I' for Inactive)
REMARK    1  A    between atoms: C_1  and  C_2
REMARK    2  A    between atoms: C_4  and  S_5
REMARK    3  A    between atoms: S_5  and  C_6
REMARK    4  A    between atoms: C_6  and  C_7
REMARK    5  A    between atoms: C_7  and  C_8
REMARK                            x       y       z     vdW  Elec       q    Type
REMARK                         _______ _______ _______ _____ _____    ______ ____
ROOT
ATOM      1  C   UNL     1       1.417   2.947  20.914  0.00  0.00    +0.000 C 
ATOM      2  C   UNL     1       2.171   4.080  20.276  0.00  0.00    +0.000 A 
ATOM      3  N   UNL     1       1.759   5.357  20.548  0.00  0.00    +0.000 NA
ATOM      4  C   UNL     1       2.343   6.397  19.876  0.00  0.00    +0.000 A 
ATOM      5  C   UNL     1       3.222   6.062  18.852  0.00  0.00    +0.000 A 
ATOM      6  O   UNL     1       3.836   6.870  17.936  0.00  0.00    +0.000 OA
ATOM      7  C   UNL     1       4.473   6.047  17.050  0.00  0.00    +0.000 A 
ATOM      8  C   UNL     1       5.200   6.461  15.936  0.00  0.00    +0.000 A 
ATOM      9  C   UNL     1       5.731   5.451  15.121  0.00  0.00    +0.000 A 
ATOM     10  C   UNL     1       5.524   4.100  15.414  0.00  0.00    +0.000 A 
ATOM     11  C   UNL     1       4.801   3.713  16.549  0.00  0.00    +0.000 A 
ATOM     12  C   UNL     1       4.279   4.713  17.392  0.00  0.00    +0.000 A 
ATOM     13  C   UNL     1       3.512   4.735  18.581  0.00  0.00    +0.000 A 
ATOM     14  N   UNL     1       3.025   3.710  19.313  0.00  0.00    +0.000 NA
ENDROOT
BRANCH   4  15
ATOM     15  S   UNL     1       1.711   8.054  19.999  0.00  0.00    +0.000 S 
BRANCH  15  16
ATOM     16  C   UNL     1       0.696   8.072  21.539  0.00  0.00    +0.000 C 
BRANCH  16  17
ATOM     17  C   UNL     1       0.983   9.384  22.298  0.00  0.00    +0.000 C 
BRANCH  17  18
ATOM     18  C   UNL     1      -0.160  10.357  22.280  0.00  0.00    +0.000 A 
ATOM     19  N   UNL     1      -0.938  10.692  23.286  0.00  0.00    +0.000 NA
ATOM     20  C   UNL     1      -1.795  11.655  22.797  0.00  0.00    +0.000 A 
ATOM     21  C   UNL     1      -2.825  12.355  23.443  0.00  0.00    +0.000 A 
ATOM     22  C   UNL     1      -3.565  13.297  22.713  0.00  0.00    +0.000 A 
ATOM     23  C   UNL     1      -3.282  13.540  21.366  0.00  0.00    +0.000 A 
ATOM     24  C   UNL     1      -2.253  12.856  20.707  0.00  0.00    +0.000 A 
ATOM     25  C   UNL     1      -1.533  11.921  21.459  0.00  0.00    +0.000 A 
ATOM     26  N   UNL     1      -0.484  11.088  21.154  0.00  0.00    +0.000 N 
ATOM     27  H   UNL     1      -0.021  11.036  20.261  0.00  0.00    +0.000 HD
ENDBRANCH  17  18
ENDBRANCH  16  17
ENDBRANCH  15  16
ENDBRANCH   4  15
TORSDOF 4
ENDMDL
