MODEL 1
REMARK VINA RESULT:      -9.6      0.000      0.000
REMARK  Name = 
REMARK  4 active torsions:
REMARK  status: ('A' for Active; 'I' for Inactive)
REMARK    1  A    between atoms: C_2  and  C_5
REMARK    2  A    between atoms: C_9  and  N_10
REMARK    3  A    between atoms: N_17  and  C_18
REMARK    4  A    between atoms: C_18  and  C_19
REMARK                            x       y       z     vdW  Elec       q    Type
REMARK                         _______ _______ _______ _____ _____    ______ ____
ROOT
ATOM      1  N   UNL     1       3.865   3.702  18.049  0.00  0.00    +0.000 N 
ATOM      2  N   UNL     1       3.385   2.424  17.962  0.00  0.00    +0.000 NA
ATOM      3  N   UNL     1       2.406   2.275  18.844  0.00  0.00    +0.000 NA
ATOM      4  C   UNL     1       2.208   3.475  19.449  0.00  0.00    +0.000 A 
ATOM      5  C   UNL     1       1.318   3.865  20.448  0.00  0.00    +0.000 A 
ATOM      6  C   UNL     1       1.318   5.217  20.792  0.00  0.00    +0.000 A 
ATOM      7  C   UNL     1       2.159   6.126  20.135  0.00  0.00    +0.000 A 
ATOM      8  N   UNL     1       2.079   7.501  20.351  0.00  0.00    +0.000 N 
ATOM      9  N   UNL     1       3.113   5.740  19.262  0.00  0.00    +0.000 NA
ATOM     10  C   UNL     1       3.078   4.428  18.937  0.00  0.00    +0.000 A 
ATOM     11  H   UNL     1       2.870   7.790  20.922  0.00  0.00    +0.000 HD
ENDROOT
BRANCH   1  16
ATOM     12  C   UNL     1       6.185   4.225  15.167  0.00  0.00    +0.000 A 
ATOM     13  C   UNL     1       7.345   4.634  15.836  0.00  0.00    +0.000 A 
ATOM     14  C   UNL     1       7.350   4.771  17.226  0.00  0.00    +0.000 A 
ATOM     15  C   UNL     1       6.199   4.494  17.971  0.00  0.00    +0.000 A 
ATOM     16  C   UNL     1       5.034   4.070  17.326  0.00  0.00    +0.000 A 
ATOM     17  C   UNL     1       5.033   3.950  15.922  0.00  0.00    +0.000 A 
BRANCH  12  19
ATOM     18  F   UNL     1       6.539   2.818  13.249  0.00  0.00    +0.000 F 
ATOM     19  C   UNL     1       6.153   4.056  13.668  0.00  0.00    +0.000 C 
ATOM     20  F   UNL     1       6.969   4.938  13.027  0.00  0.00    +0.000 F 
ATOM     21  F   UNL     1       4.909   4.252  13.149  0.00  0.00    +0.000 F 
ENDBRANCH  12  19
ENDBRANCH   1  16
BRANCH   8  22
ATOM     22  C   UNL     1       0.811   8.064  20.788  0.00  0.00    +0.000 C 
BRANCH  22  23
ATOM     23  C   UNL     1       0.887   9.589  20.907  0.00  0.00    +0.000 C 
ATOM     24  C   UNL     1      -0.428  10.307  20.526  0.00  0.00    +0.000 C 
ATOM     25  C   UNL     1       0.191  10.692  19.140  0.00  0.00    +0.000 C 
ATOM     26  C   UNL     1      -0.134  12.139  18.739  0.00  0.00    +0.000 C 
ATOM     27  C   UNL     1      -1.585  12.215  18.241  0.00  0.00    +0.000 C 
ATOM     28  N   UNL     1      -1.853  11.292  17.131  0.00  0.00    +0.000 NA
ATOM     29  C   UNL     1      -1.523   9.912  17.492  0.00  0.00    +0.000 C 
ATOM     30  C   UNL     1      -0.065   9.792  17.921  0.00  0.00    +0.000 C 
ATOM     31  C   UNL     1       1.583  10.432  19.795  0.00  0.00    +0.000 C 
ATOM     32  H   UNL     1      -1.282  11.565  16.330  0.00  0.00    +0.000 HD
ENDBRANCH  22  23
ENDBRANCH   8  22
TORSDOF 4
ENDMDL
MODEL 2
REMARK VINA RESULT:      -9.2      1.894      2.372
REMARK  Name = 
REMARK  4 active torsions:
REMARK  status: ('A' for Active; 'I' for Inactive)
REMARK    1  A    between atoms: C_2  and  C_5
REMARK    2  A    between atoms: C_9  and  N_10
REMARK    3  A    between atoms: N_17  and  C_18
REMARK    4  A    between atoms: C_18  and  C_19
REMARK                            x       y       z     vdW  Elec       q    Type
REMARK                         _______ _______ _______ _____ _____    ______ ____
ROOT
ATOM      1  N   UNL     1       3.830   3.945  17.931  0.00  0.00    +0.000 N 
ATOM      2  N   UNL     1       3.380   2.663  17.773  0.00  0.00    +0.000 NA
ATOM      3  N   UNL     1       2.418   2.435  18.656  0.00  0.00    +0.000 NA
ATOM      4  C   UNL     1       2.198   3.591  19.335  0.00  0.00    +0.000 A 
ATOM      5  C   UNL     1       1.312   3.897  20.367  0.00  0.00    +0.000 A 
ATOM      6  C   UNL     1       1.283   5.225  20.793  0.00  0.00    +0.000 A 
ATOM      7  C   UNL     1       2.093   6.194  20.182  0.00  0.00    +0.000 A 
ATOM      8  N   UNL     1       1.982   7.550  20.483  0.00  0.00    +0.000 N 
ATOM      9  N   UNL     1       3.044   5.886  19.276  0.00  0.00    +0.000 NA
ATOM     10  C   UNL     1       3.037   4.595  18.872  0.00  0.00    +0.000 A 
ATOM     11  H   UNL     1       2.773   7.824  21.061  0.00  0.00    +0.000 HD
ENDROOT
BRANCH   1  16
ATOM     12  C   UNL     1       6.786   6.027  16.991  0.00  0.00    +0.000 A 
ATOM     13  C   UNL     1       7.168   5.413  15.792  0.00  0.00    +0.000 A 
ATOM     14  C   UNL     1       6.475   4.297  15.316  0.00  0.00    +0.000 A 
ATOM     15  C   UNL     1       5.386   3.781  16.025  0.00  0.00    +0.000 A 
ATOM     16  C   UNL     1       4.979   4.386  17.218  0.00  0.00    +0.000 A 
ATOM     17  C   UNL     1       5.692   5.501  17.699  0.00  0.00    +0.000 A 
BRANCH  12  19
ATOM     18  F   UNL     1       8.421   7.757  16.656  0.00  0.00    +0.000 F 
ATOM     19  C   UNL     1       7.507   7.240  17.524  0.00  0.00    +0.000 C 
ATOM     20  F   UNL     1       8.188   6.979  18.673  0.00  0.00    +0.000 F 
ATOM     21  F   UNL     1       6.655   8.263  17.818  0.00  0.00    +0.000 F 
ENDBRANCH  12  19
ENDBRANCH   1  16
BRANCH   8  22
ATOM     22  C   UNL     1       0.706   8.053  20.969  0.00  0.00    +0.000 C 
BRANCH  22  23
ATOM     23  C   UNL     1       0.721   9.578  21.106  0.00  0.00    +0.000 C 
ATOM     24  C   UNL     1      -0.578  10.258  20.617  0.00  0.00    +0.000 C 
ATOM     25  C   UNL     1       0.147  10.678  19.294  0.00  0.00    +0.000 C 
ATOM     26  C   UNL     1      -0.189  12.118  18.878  0.00  0.00    +0.000 C 
ATOM     27  C   UNL     1      -1.592  12.153  18.255  0.00  0.00    +0.000 C 
ATOM     28  N   UNL     1      -1.732  11.234  17.118  0.00  0.00    +0.000 NA
ATOM     29  C   UNL     1      -1.390   9.861  17.496  0.00  0.00    +0.000 C 
ATOM     30  C   UNL     1       0.028   9.783  18.050  0.00  0.00    +0.000 C 
ATOM     31  C   UNL     1       1.484  10.455  20.067  0.00  0.00    +0.000 C 
ATOM     32  H   UNL     1      -1.103  11.534  16.373  0.00  0.00    +0.000 HD
ENDBRANCH  22  23
ENDBRANCH   8  22
TORSDOF 4
ENDMDL
MODEL 3
REMARK VINA RESULT:      -9.0      4.076      6.600
REMARK  Name = 
REMARK  4 active torsions:
REMARK  status: ('A' for Active; 'I' for Inactive)
REMARK    1  A    between atoms: C_2  and  C_5
REMARK    2  A    between atoms: C_9  and  N_10
REMARK    3  A    between atoms: N_17  and  C_18
REMARK    4  A    between atoms: C_18  and  C_19
REMARK                            x       y       z     vdW  Elec       q    Type
REMARK                         _______ _______ _______ _____ _____    ______ ____
ROOT
ATOM      1  N   UNL     1       1.365   8.412  20.644  0.00  0.00    +0.000 N 
ATOM      2  N   UNL     1       1.527   8.667  21.978  0.00  0.00    +0.000 NA
ATOM      3  N   UNL     1       1.081   9.888  22.237  0.00  0.00    +0.000 NA
ATOM      4  C   UNL     1       0.568  10.394  21.087  0.00  0.00    +0.000 A 
ATOM      5  C   UNL     1      -0.014  11.629  20.804  0.00  0.00    +0.000 A 
ATOM      6  C   UNL     1      -0.521  11.800  19.516  0.00  0.00    +0.000 A 
ATOM      7  C   UNL     1      -0.463  10.761  18.575  0.00  0.00    +0.000 A 
ATOM      8  N   UNL     1      -1.089  10.849  17.333  0.00  0.00    +0.000 N 
ATOM      9  N   UNL     1       0.211   9.613  18.795  0.00  0.00    +0.000 NA
ATOM     10  C   UNL     1       0.677   9.469  20.056  0.00  0.00    +0.000 A 
ATOM     11  H   UNL     1      -0.380  11.002  16.619  0.00  0.00    +0.000 HD
ENDROOT
BRANCH   1  16
ATOM     12  C   UNL     1       2.258   4.809  20.225  0.00  0.00    +0.000 A 
ATOM     13  C   UNL     1       3.096   4.875  19.104  0.00  0.00    +0.000 A 
ATOM     14  C   UNL     1       3.334   6.097  18.471  0.00  0.00    +0.000 A 
ATOM     15  C   UNL     1       2.747   7.272  18.950  0.00  0.00    +0.000 A 
ATOM     16  C   UNL     1       1.919   7.232  20.075  0.00  0.00    +0.000 A 
ATOM     17  C   UNL     1       1.670   5.994  20.699  0.00  0.00    +0.000 A 
BRANCH  12  19
ATOM     18  F   UNL     1       2.596   2.432  20.357  0.00  0.00    +0.000 F 
ATOM     19  C   UNL     1       1.991   3.506  20.937  0.00  0.00    +0.000 C 
ATOM     20  F   UNL     1       0.664   3.203  20.990  0.00  0.00    +0.000 F 
ATOM     21  F   UNL     1       2.423   3.522  22.229  0.00  0.00    +0.000 F 
ENDBRANCH  12  19
ENDBRANCH   1  16
BRANCH   8  22
ATOM     22  C   UNL     1      -2.248  11.718  17.197  0.00  0.00    +0.000 C 
BRANCH  22  23
ATOM     23  C   UNL     1      -3.518  10.914  16.906  0.00  0.00    +0.000 C 
ATOM     24  C   UNL     1      -4.801  11.775  16.863  0.00  0.00    +0.000 C 
ATOM     25  C   UNL     1      -5.180  11.272  18.297  0.00  0.00    +0.000 C 
ATOM     26  C   UNL     1      -6.674  10.935  18.419  0.00  0.00    +0.000 C 
ATOM     27  C   UNL     1      -7.482  12.235  18.538  0.00  0.00    +0.000 C 
ATOM     28  N   UNL     1      -7.042  13.075  19.658  0.00  0.00    +0.000 NA
ATOM     29  C   UNL     1      -5.614  13.384  19.567  0.00  0.00    +0.000 C 
ATOM     30  C   UNL     1      -4.780  12.108  19.522  0.00  0.00    +0.000 C 
ATOM     31  C   UNL     1      -4.202  10.084  18.036  0.00  0.00    +0.000 C 
ATOM     32  H   UNL     1      -7.213  12.576  20.532  0.00  0.00    +0.000 HD
ENDBRANCH  22  23
ENDBRANCH   8  22
TORSDOF 4
ENDMDL
MODEL 4
REMARK VINA RESULT:      -9.0      1.280      1.929
REMARK  Name = 
REMARK  4 active torsions:
REMARK  status: ('A' for Active; 'I' for Inactive)
REMARK    1  A    between atoms: C_2  and  C_5
REMARK    2  A    between atoms: C_9  and  N_10
REMARK    3  A    between atoms: N_17  and  C_18
REMARK    4  A    between atoms: C_18  and  C_19
REMARK                            x       y       z     vdW  Elec       q    Type
REMARK                         _______ _______ _______ _____ _____    ______ ____
ROOT
ATOM      1  N   UNL     1       3.750   3.944  18.082  0.00  0.00    +0.000 N 
ATOM      2  N   UNL     1       3.159   2.714  17.995  0.00  0.00    +0.000 NA
ATOM      3  N   UNL     1       2.151   2.662  18.854  0.00  0.00    +0.000 NA
ATOM      4  C   UNL     1       2.048   3.881  19.445  0.00  0.00    +0.000 A 
ATOM      5  C   UNL     1       1.174   4.360  20.419  0.00  0.00    +0.000 A 
ATOM      6  C   UNL     1       1.288   5.710  20.752  0.00  0.00    +0.000 A 
ATOM      7  C   UNL     1       2.223   6.534  20.107  0.00  0.00    +0.000 A 
ATOM      8  N   UNL     1       2.262   7.912  20.311  0.00  0.00    +0.000 N 
ATOM      9  N   UNL     1       3.157   6.054  19.261  0.00  0.00    +0.000 NA
ATOM     10  C   UNL     1       3.012   4.747  18.946  0.00  0.00    +0.000 A 
ATOM     11  H   UNL     1       3.063   8.134  20.898  0.00  0.00    +0.000 HD
ENDROOT
BRANCH   1  16
ATOM     12  C   UNL     1       6.172   4.229  15.251  0.00  0.00    +0.000 A 
ATOM     13  C   UNL     1       7.349   4.537  15.944  0.00  0.00    +0.000 A 
ATOM     14  C   UNL     1       7.335   4.686  17.333  0.00  0.00    +0.000 A 
ATOM     15  C   UNL     1       6.148   4.521  18.053  0.00  0.00    +0.000 A 
ATOM     16  C   UNL     1       4.964   4.199  17.384  0.00  0.00    +0.000 A 
ATOM     17  C   UNL     1       4.983   4.066  15.982  0.00  0.00    +0.000 A 
BRANCH  12  19
ATOM     18  F   UNL     1       7.065   4.831  13.102  0.00  0.00    +0.000 F 
ATOM     19  C   UNL     1       6.159   4.050  13.753  0.00  0.00    +0.000 C 
ATOM     20  F   UNL     1       4.948   4.345  13.204  0.00  0.00    +0.000 F 
ATOM     21  F   UNL     1       6.437   2.769  13.380  0.00  0.00    +0.000 F 
ENDBRANCH  12  19
ENDBRANCH   1  16
BRANCH   8  22
ATOM     22  C   UNL     1       1.040   8.591  20.713  0.00  0.00    +0.000 C 
BRANCH  22  23
ATOM     23  C   UNL     1       0.343   9.245  19.517  0.00  0.00    +0.000 C 
ATOM     24  C   UNL     1       1.178  10.360  18.845  0.00  0.00    +0.000 C 
ATOM     25  C   UNL     1       0.296  11.440  19.558  0.00  0.00    +0.000 C 
ATOM     26  C   UNL     1      -0.068  12.603  18.622  0.00  0.00    +0.000 C 
ATOM     27  C   UNL     1       1.146  13.531  18.467  0.00  0.00    +0.000 C 
ATOM     28  N   UNL     1       1.645  14.032  19.753  0.00  0.00    +0.000 NA
ATOM     29  C   UNL     1       1.973  12.933  20.664  0.00  0.00    +0.000 C 
ATOM     30  C   UNL     1       0.762  12.035  20.896  0.00  0.00    +0.000 C 
ATOM     31  C   UNL     1      -0.769  10.315  19.741  0.00  0.00    +0.000 C 
ATOM     32  H   UNL     1       0.923  14.609  20.185  0.00  0.00    +0.000 HD
ENDBRANCH  22  23
ENDBRANCH   8  22
TORSDOF 4
ENDMDL
MODEL 5
REMARK VINA RESULT:      -8.9      2.227      2.698
REMARK  Name = 
REMARK  4 active torsions:
REMARK  status: ('A' for Active; 'I' for Inactive)
REMARK    1  A    between atoms: C_2  and  C_5
REMARK    2  A    between atoms: C_9  and  N_10
REMARK    3  A    between atoms: N_17  and  C_18
REMARK    4  A    between atoms: C_18  and  C_19
REMARK                            x       y       z     vdW  Elec       q    Type
REMARK                         _______ _______ _______ _____ _____    ______ ____
ROOT
ATOM      1  N   UNL     1       3.607   3.663  18.039  0.00  0.00    +0.000 N 
ATOM      2  N   UNL     1       3.042   2.483  17.640  0.00  0.00    +0.000 NA
ATOM      3  N   UNL     1       1.922   2.293  18.322  0.00  0.00    +0.000 NA
ATOM      4  C   UNL     1       1.728   3.383  19.110  0.00  0.00    +0.000 A 
ATOM      5  C   UNL     1       0.720   3.690  20.022  0.00  0.00    +0.000 A 
ATOM      6  C   UNL     1       0.776   4.951  20.615  0.00  0.00    +0.000 A 
ATOM      7  C   UNL     1       1.789   5.861  20.276  0.00  0.00    +0.000 A 
ATOM      8  N   UNL     1       1.789   7.176  20.738  0.00  0.00    +0.000 N 
ATOM      9  N   UNL     1       2.838   5.529  19.496  0.00  0.00    +0.000 NA
ATOM     10  C   UNL     1       2.748   4.306  18.924  0.00  0.00    +0.000 A 
ATOM     11  H   UNL     1       2.496   7.268  21.464  0.00  0.00    +0.000 HD
ENDROOT
BRANCH   1  16
ATOM     12  C   UNL     1       7.084   5.030  18.074  0.00  0.00    +0.000 A 
ATOM     13  C   UNL     1       7.437   4.884  16.726  0.00  0.00    +0.000 A 
ATOM     14  C   UNL     1       6.545   4.303  15.820  0.00  0.00    +0.000 A 
ATOM     15  C   UNL     1       5.285   3.868  16.244  0.00  0.00    +0.000 A 
ATOM     16  C   UNL     1       4.907   4.018  17.581  0.00  0.00    +0.000 A 
ATOM     17  C   UNL     1       5.817   4.589  18.491  0.00  0.00    +0.000 A 
BRANCH  12  19
ATOM     18  F   UNL     1       9.134   4.921  19.325  0.00  0.00    +0.000 F 
ATOM     19  C   UNL     1       8.021   5.664  19.072  0.00  0.00    +0.000 C 
ATOM     20  F   UNL     1       7.430   5.874  20.281  0.00  0.00    +0.000 F 
ATOM     21  F   UNL     1       8.473   6.882  18.660  0.00  0.00    +0.000 F 
ENDBRANCH  12  19
ENDBRANCH   1  16
BRANCH   8  22
ATOM     22  C   UNL     1       0.518   7.793  21.082  0.00  0.00    +0.000 C 
BRANCH  22  23
ATOM     23  C   UNL     1       0.679   9.291  21.355  0.00  0.00    +0.000 C 
ATOM     24  C   UNL     1      -0.534  10.138  20.907  0.00  0.00    +0.000 C 
ATOM     25  C   UNL     1       0.262  10.597  19.639  0.00  0.00    +0.000 C 
ATOM     26  C   UNL     1       0.080  12.094  19.347  0.00  0.00    +0.000 C 
ATOM     27  C   UNL     1      -1.297  12.323  18.706  0.00  0.00    +0.000 C 
ATOM     28  N   UNL     1      -1.497  11.525  17.490  0.00  0.00    +0.000 NA
ATOM     29  C   UNL     1      -1.301  10.098  17.750  0.00  0.00    +0.000 C 
ATOM     30  C   UNL     1       0.088   9.830  18.319  0.00  0.00    +0.000 C 
ATOM     31  C   UNL     1       1.551  10.175  20.411  0.00  0.00    +0.000 C 
ATOM     32  H   UNL     1      -0.823  11.825  16.785  0.00  0.00    +0.000 HD
ENDBRANCH  22  23
ENDBRANCH   8  22
TORSDOF 4
ENDMDL
MODEL 6
REMARK VINA RESULT:      -8.9      1.520      2.213
REMARK  Name = 
REMARK  4 active torsions:
REMARK  status: ('A' for Active; 'I' for Inactive)
REMARK    1  A    between atoms: C_2  and  C_5
REMARK    2  A    between atoms: C_9  and  N_10
REMARK    3  A    between atoms: N_17  and  C_18
REMARK    4  A    between atoms: C_18  and  C_19
REMARK                            x       y       z     vdW  Elec       q    Type
REMARK                         _______ _______ _______ _____ _____    ______ ____
ROOT
ATOM      1  N   UNL     1       4.309   4.068  17.126  0.00  0.00    +0.000 N 
ATOM      2  N   UNL     1       3.965   2.786  17.457  0.00  0.00    +0.000 NA
ATOM      3  N   UNL     1       3.166   2.817  18.514  0.00  0.00    +0.000 NA
ATOM      4  C   UNL     1       2.937   4.120  18.821  0.00  0.00    +0.000 A 
ATOM      5  C   UNL     1       2.184   4.707  19.837  0.00  0.00    +0.000 A 
ATOM      6  C   UNL     1       2.090   6.099  19.821  0.00  0.00    +0.000 A 
ATOM      7  C   UNL     1       2.708   6.850  18.810  0.00  0.00    +0.000 A 
ATOM      8  N   UNL     1       2.512   8.224  18.682  0.00  0.00    +0.000 N 
ATOM      9  N   UNL     1       3.543   6.305  17.902  0.00  0.00    +0.000 NA
ATOM     10  C   UNL     1       3.602   4.955  17.932  0.00  0.00    +0.000 A 
ATOM     11  H   UNL     1       3.349   8.706  19.004  0.00  0.00    +0.000 HD
ENDROOT
BRANCH   1  16
ATOM     12  C   UNL     1       6.023   4.002  13.807  0.00  0.00    +0.000 A 
ATOM     13  C   UNL     1       7.251   4.591  14.134  0.00  0.00    +0.000 A 
ATOM     14  C   UNL     1       7.496   5.040  15.435  0.00  0.00    +0.000 A 
ATOM     15  C   UNL     1       6.523   4.900  16.430  0.00  0.00    +0.000 A 
ATOM     16  C   UNL     1       5.297   4.302  16.128  0.00  0.00    +0.000 A 
ATOM     17  C   UNL     1       5.051   3.867  14.812  0.00  0.00    +0.000 A 
BRANCH  12  19
ATOM     18  F   UNL     1       4.471   3.771  11.985  0.00  0.00    +0.000 F 
ATOM     19  C   UNL     1       5.734   3.497  12.415  0.00  0.00    +0.000 C 
ATOM     20  F   UNL     1       5.879   2.147  12.310  0.00  0.00    +0.000 F 
ATOM     21  F   UNL     1       6.569   4.036  11.483  0.00  0.00    +0.000 F 
ENDBRANCH  12  19
ENDBRANCH   1  16
BRANCH   8  22
ATOM     22  C   UNL     1       1.278   8.802  19.190  0.00  0.00    +0.000 C 
BRANCH  22  23
ATOM     23  C   UNL     1       0.737   9.882  18.250  0.00  0.00    +0.000 C 
ATOM     24  C   UNL     1       1.035  11.324  18.722  0.00  0.00    +0.000 C 
ATOM     25  C   UNL     1      -0.441  11.457  19.227  0.00  0.00    +0.000 C 
ATOM     26  C   UNL     1      -1.053  12.823  18.878  0.00  0.00    +0.000 C 
ATOM     27  C   UNL     1      -0.507  13.886  19.842  0.00  0.00    +0.000 C 
ATOM     28  N   UNL     1      -0.745  13.551  21.251  0.00  0.00    +0.000 NA
ATOM     29  C   UNL     1      -0.187  12.240  21.590  0.00  0.00    +0.000 C 
ATOM     30  C   UNL     1      -0.769  11.150  20.696  0.00  0.00    +0.000 C 
ATOM     31  C   UNL     1      -0.775  10.265  18.276  0.00  0.00    +0.000 C 
ATOM     32  H   UNL     1      -1.751  13.532  21.420  0.00  0.00    +0.000 HD
ENDBRANCH  22  23
ENDBRANCH   8  22
TORSDOF 4
ENDMDL
MODEL 7
REMARK VINA RESULT:      -8.8      1.379      2.001
REMARK  Name = 
REMARK  4 active torsions:
REMARK  status: ('A' for Active; 'I' for Inactive)
REMARK    1  A    between atoms: C_2  and  C_5
REMARK    2  A    between atoms: C_9  and  N_10
REMARK    3  A    between atoms: N_17  and  C_18
REMARK    4  A    between atoms: C_18  and  C_19
REMARK                            x       y       z     vdW  Elec       q    Type
REMARK                         _______ _______ _______ _____ _____    ______ ____
ROOT
ATOM      1  N   UNL     1       3.809   4.011  18.257  0.00  0.00    +0.000 N 
ATOM      2  N   UNL     1       3.255   2.760  18.273  0.00  0.00    +0.000 NA
ATOM      3  N   UNL     1       2.246   2.750  19.131  0.00  0.00    +0.000 NA
ATOM      4  C   UNL     1       2.103   4.010  19.617  0.00  0.00    +0.000 A 
ATOM      5  C   UNL     1       1.211   4.542  20.546  0.00  0.00    +0.000 A 
ATOM      6  C   UNL     1       1.282   5.918  20.764  0.00  0.00    +0.000 A 
ATOM      7  C   UNL     1       2.194   6.713  20.055  0.00  0.00    +0.000 A 
ATOM      8  N   UNL     1       2.190   8.104  20.141  0.00  0.00    +0.000 N 
ATOM      9  N   UNL     1       3.147   6.193  19.253  0.00  0.00    +0.000 NA
ATOM     10  C   UNL     1       3.043   4.860  19.049  0.00  0.00    +0.000 A 
ATOM     11  H   UNL     1       2.981   8.399  20.710  0.00  0.00    +0.000 HD
ENDROOT
BRANCH   1  16
ATOM     12  C   UNL     1       6.193   4.264  15.392  0.00  0.00    +0.000 A 
ATOM     13  C   UNL     1       7.388   4.538  16.068  0.00  0.00    +0.000 A 
ATOM     14  C   UNL     1       7.399   4.675  17.459  0.00  0.00    +0.000 A 
ATOM     15  C   UNL     1       6.219   4.531  18.196  0.00  0.00    +0.000 A 
ATOM     16  C   UNL     1       5.017   4.243  17.542  0.00  0.00    +0.000 A 
ATOM     17  C   UNL     1       5.011   4.123  16.139  0.00  0.00    +0.000 A 
BRANCH  12  19
ATOM     18  F   UNL     1       4.932   4.361  13.346  0.00  0.00    +0.000 F 
ATOM     19  C   UNL     1       6.152   4.099  13.892  0.00  0.00    +0.000 C 
ATOM     20  F   UNL     1       6.474   2.836  13.498  0.00  0.00    +0.000 F 
ATOM     21  F   UNL     1       7.029   4.925  13.255  0.00  0.00    +0.000 F 
ENDBRANCH  12  19
ENDBRANCH   1  16
BRANCH   8  22
ATOM     22  C   UNL     1       0.946   8.777  20.483  0.00  0.00    +0.000 C 
BRANCH  22  23
ATOM     23  C   UNL     1       0.506   9.736  19.374  0.00  0.00    +0.000 C 
ATOM     24  C   UNL     1       0.824  11.219  19.673  0.00  0.00    +0.000 C 
ATOM     25  C   UNL     1      -0.677  11.457  20.052  0.00  0.00    +0.000 C 
ATOM     26  C   UNL     1      -1.216  12.780  19.486  0.00  0.00    +0.000 C 
ATOM     27  C   UNL     1      -0.697  13.947  20.338  0.00  0.00    +0.000 C 
ATOM     28  N   UNL     1      -1.038  13.809  21.759  0.00  0.00    +0.000 NA
ATOM     29  C   UNL     1      -0.550  12.541  22.304  0.00  0.00    +0.000 C 
ATOM     30  C   UNL     1      -1.111  11.357  21.523  0.00  0.00    +0.000 C 
ATOM     31  C   UNL     1      -0.990  10.159  19.245  0.00  0.00    +0.000 C 
ATOM     32  H   UNL     1      -2.053  13.839  21.859  0.00  0.00    +0.000 HD
ENDBRANCH  22  23
ENDBRANCH   8  22
TORSDOF 4
ENDMDL
MODEL 8
REMARK VINA RESULT:      -8.8      1.519      2.070
REMARK  Name = 
REMARK  4 active torsions:
REMARK  status: ('A' for Active; 'I' for Inactive)
REMARK    1  A    between atoms: C_2  and  C_5
REMARK    2  A    between atoms: C_9  and  N_10
REMARK    3  A    between atoms: N_17  and  C_18
REMARK    4  A    between atoms: C_18  and  C_19
REMARK                            x       y       z     vdW  Elec       q    Type
REMARK                         _______ _______ _______ _____ _____    ______ ____
ROOT
ATOM      1  N   UNL     1       4.443   4.607  17.200  0.00  0.00    +0.000 N 
ATOM      2  N   UNL     1       4.190   3.408  17.807  0.00  0.00    +0.000 NA
ATOM      3  N   UNL     1       3.382   3.612  18.838  0.00  0.00    +0.000 NA
ATOM      4  C   UNL     1       3.058   4.931  18.853  0.00  0.00    +0.000 A 
ATOM      5  C   UNL     1       2.256   5.670  19.722  0.00  0.00    +0.000 A 
ATOM      6  C   UNL     1       2.063   7.014  19.402  0.00  0.00    +0.000 A 
ATOM      7  C   UNL     1       2.632   7.568  18.246  0.00  0.00    +0.000 A 
ATOM      8  N   UNL     1       2.339   8.863  17.821  0.00  0.00    +0.000 N 
ATOM      9  N   UNL     1       3.512   6.899  17.472  0.00  0.00    +0.000 NA
ATOM     10  C   UNL     1       3.667   5.595  17.797  0.00  0.00    +0.000 A 
ATOM     11  H   UNL     1       3.136   9.462  18.023  0.00  0.00    +0.000 HD
ENDROOT
BRANCH   1  16
ATOM     12  C   UNL     1       6.070   4.131  13.871  0.00  0.00    +0.000 A 
ATOM     13  C   UNL     1       7.338   4.671  14.119  0.00  0.00    +0.000 A 
ATOM     14  C   UNL     1       7.641   5.221  15.367  0.00  0.00    +0.000 A 
ATOM     15  C   UNL     1       6.685   5.234  16.388  0.00  0.00    +0.000 A 
ATOM     16  C   UNL     1       5.419   4.687  16.167  0.00  0.00    +0.000 A 
ATOM     17  C   UNL     1       5.116   4.149  14.901  0.00  0.00    +0.000 A 
BRANCH  12  19
ATOM     18  F   UNL     1       6.449   4.013  11.499  0.00  0.00    +0.000 F 
ATOM     19  C   UNL     1       5.719   3.518  12.537  0.00  0.00    +0.000 C 
ATOM     20  F   UNL     1       4.414   3.714  12.202  0.00  0.00    +0.000 F 
ATOM     21  F   UNL     1       5.912   2.170  12.518  0.00  0.00    +0.000 F 
ENDBRANCH  12  19
ENDBRANCH   1  16
BRANCH   8  22
ATOM     22  C   UNL     1       1.062   9.447  18.201  0.00  0.00    +0.000 C 
BRANCH  22  23
ATOM     23  C   UNL     1       1.247  10.603  19.188  0.00  0.00    +0.000 C 
ATOM     24  C   UNL     1       0.023  10.843  20.101  0.00  0.00    +0.000 C 
ATOM     25  C   UNL     1      -0.387  12.069  19.217  0.00  0.00    +0.000 C 
ATOM     26  C   UNL     1      -0.846  13.267  20.062  0.00  0.00    +0.000 C 
ATOM     27  C   UNL     1      -2.272  13.013  20.573  0.00  0.00    +0.000 C 
ATOM     28  N   UNL     1      -3.224  12.743  19.489  0.00  0.00    +0.000 NA
ATOM     29  C   UNL     1      -2.785  11.618  18.661  0.00  0.00    +0.000 C 
ATOM     30  C   UNL     1      -1.400  11.875  18.078  0.00  0.00    +0.000 C 
ATOM     31  C   UNL     1       1.089  12.080  18.711  0.00  0.00    +0.000 C 
ATOM     32  H   UNL     1      -3.297  13.573  18.900  0.00  0.00    +0.000 HD
ENDBRANCH  22  23
ENDBRANCH   8  22
TORSDOF 4
ENDMDL
MODEL 9
REMARK VINA RESULT:      -8.8      1.422      2.010
REMARK  Name = 
REMARK  4 active torsions:
REMARK  status: ('A' for Active; 'I' for Inactive)
REMARK    1  A    between atoms: C_2  and  C_5
REMARK    2  A    between atoms: C_9  and  N_10
REMARK    3  A    between atoms: N_17  and  C_18
REMARK    4  A    between atoms: C_18  and  C_19
REMARK                            x       y       z     vdW  Elec       q    Type
REMARK                         _______ _______ _______ _____ _____    ______ ____
ROOT
ATOM      1  N   UNL     1       4.146   4.785  18.860  0.00  0.00    +0.000 N 
ATOM      2  N   UNL     1       3.759   3.686  19.576  0.00  0.00    +0.000 NA
ATOM      3  N   UNL     1       2.759   4.028  20.376  0.00  0.00    +0.000 NA
ATOM      4  C   UNL     1       2.455   5.327  20.126  0.00  0.00    +0.000 A 
ATOM      5  C   UNL     1       1.500   6.173  20.689  0.00  0.00    +0.000 A 
ATOM      6  C   UNL     1       1.393   7.449  20.137  0.00  0.00    +0.000 A 
ATOM      7  C   UNL     1       2.195   7.834  19.053  0.00  0.00    +0.000 A 
ATOM      8  N   UNL     1       2.011   9.045  18.386  0.00  0.00    +0.000 N 
ATOM      9  N   UNL     1       3.207   7.074  18.586  0.00  0.00    +0.000 NA
ATOM     10  C   UNL     1       3.276   5.837  19.130  0.00  0.00    +0.000 A 
ATOM     11  H   UNL     1       2.757   9.683  18.654  0.00  0.00    +0.000 HD
ENDROOT
BRANCH   1  16
ATOM     12  C   UNL     1       6.289   4.456  15.817  0.00  0.00    +0.000 A 
ATOM     13  C   UNL     1       7.565   4.461  16.393  0.00  0.00    +0.000 A 
ATOM     14  C   UNL     1       7.718   4.607  17.775  0.00  0.00    +0.000 A 
ATOM     15  C   UNL     1       6.599   4.744  18.602  0.00  0.00    +0.000 A 
ATOM     16  C   UNL     1       5.315   4.729  18.050  0.00  0.00    +0.000 A 
ATOM     17  C   UNL     1       5.170   4.596  16.655  0.00  0.00    +0.000 A 
BRANCH  12  19
ATOM     18  F   UNL     1       4.835   4.596  13.907  0.00  0.00    +0.000 F 
ATOM     19  C   UNL     1       6.092   4.287  14.331  0.00  0.00    +0.000 C 
ATOM     20  F   UNL     1       6.324   3.011  13.917  0.00  0.00    +0.000 F 
ATOM     21  F   UNL     1       6.933   5.075  13.603  0.00  0.00    +0.000 F 
ENDBRANCH  12  19
ENDBRANCH   1  16
BRANCH   8  22
ATOM     22  C   UNL     1       0.690   9.654  18.403  0.00  0.00    +0.000 C 
BRANCH  22  23
ATOM     23  C   UNL     1       0.607  10.779  19.438  0.00  0.00    +0.000 C 
ATOM     24  C   UNL     1      -0.763  10.869  20.149  0.00  0.00    +0.000 C 
ATOM     25  C   UNL     1      -1.145  12.089  19.245  0.00  0.00    +0.000 C 
ATOM     26  C   UNL     1      -1.844  13.205  20.038  0.00  0.00    +0.000 C 
ATOM     27  C   UNL     1      -3.301  12.802  20.307  0.00  0.00    +0.000 C 
ATOM     28  N   UNL     1      -4.040  12.493  19.077  0.00  0.00    +0.000 NA
ATOM     29  C   UNL     1      -3.371  11.448  18.299  0.00  0.00    +0.000 C 
ATOM     30  C   UNL     1      -1.943  11.854  17.953  0.00  0.00    +0.000 C 
ATOM     31  C   UNL     1       0.385  12.255  18.984  0.00  0.00    +0.000 C 
ATOM     32  H   UNL     1      -4.099  13.337  18.507  0.00  0.00    +0.000 HD
ENDBRANCH  22  23
ENDBRANCH   8  22
TORSDOF 4
ENDMDL
