MODEL 1
REMARK VINA RESULT:      -7.4      0.000      0.000
REMARK  Name = 
REMARK  7 active torsions:
REMARK  status: ('A' for Active; 'I' for Inactive)
REMARK    1  A    between atoms: C_1  and  C_2
REMARK    2  A    between atoms: C_2  and  N_3
REMARK    3  A    between atoms: N_6  and  S_7
REMARK    4  A    between atoms: S_7  and  C_10
REMARK    5  A    between atoms: C_15  and  N_16
REMARK    6  A    between atoms: N_19  and  C_20
REMARK    7  A    between atoms: C_28  and  O_29
REMARK                            x       y       z     vdW  Elec       q    Type
REMARK                         _______ _______ _______ _____ _____    ______ ____
ROOT
ATOM      1  C   UNL     1      -0.466  11.356  21.104  0.00  0.00    +0.000 A 
ATOM      2  C   UNL     1      -1.074  11.372  22.370  0.00  0.00    +0.000 A 
ATOM      3 CL   UNL     1      -2.210  12.540  22.946  0.00  0.00    +0.000 Cl
ATOM      4  C   UNL     1      -0.768  10.372  23.300  0.00  0.00    +0.000 A 
ATOM      5  C   UNL     1       0.131   9.354  22.991  0.00  0.00    +0.000 A 
ATOM      6  C   UNL     1       0.766   9.317  21.753  0.00  0.00    +0.000 A 
ATOM      7  C   UNL     1       0.503  10.358  20.834  0.00  0.00    +0.000 A 
ENDROOT
BRANCH   6   8
ATOM      8  N   UNL     1       1.677   8.267  21.429  0.00  0.00    +0.000 N 
ATOM      9  C   UNL     1       1.273   7.028  20.952  0.00  0.00    +0.000 C 
ATOM     10  O   UNL     1       0.106   6.743  20.682  0.00  0.00    +0.000 OA
ATOM     11  N   UNL     1       2.322   6.136  20.799  0.00  0.00    +0.000 N 
ATOM     12  H   UNL     1       2.653   8.495  21.329  0.00  0.00    +0.000 HD
ATOM     13  H   UNL     1       3.047   6.203  21.506  0.00  0.00    +0.000 HD
BRANCH  11  14
ATOM     14  C   UNL     1       2.072   4.809  20.328  0.00  0.00    +0.000 A 
ATOM     15  C   UNL     1       1.772   3.771  21.225  0.00  0.00    +0.000 A 
ATOM     16  C   UNL     1       1.629   2.452  20.780  0.00  0.00    +0.000 A 
ATOM     17  C   UNL     1       1.785   2.160  19.428  0.00  0.00    +0.000 A 
ATOM     18  C   UNL     1       2.047   3.189  18.529  0.00  0.00    +0.000 A 
ATOM     19  F   UNL     1       2.210   2.876  17.234  0.00  0.00    +0.000 F 
ATOM     20  C   UNL     1       2.169   4.513  18.960  0.00  0.00    +0.000 A 
ATOM     21 CL   UNL     1       2.527   5.755  17.812  0.00  0.00    +0.000 Cl
ENDBRANCH  11  14
ENDBRANCH   6   8
BRANCH   1  22
ATOM     22  S   UNL     1      -0.878  12.584  19.870  0.00  0.00    +0.000 S 
ATOM     23  O   UNL     1      -2.307  12.827  19.909  0.00  0.00    +0.000 OA
ATOM     24  O   UNL     1      -0.286  12.214  18.603  0.00  0.00    +0.000 OA
BRANCH  22  28
ATOM     25  N   UNL     1       2.734  14.397  19.535  0.00  0.00    +0.000 NA
ATOM     26  C   UNL     1       2.352  13.567  20.698  0.00  0.00    +0.000 C 
ATOM     27  C   UNL     1       1.014  13.933  21.388  0.00  0.00    +0.000 C 
ATOM     28  N   UNL     1      -0.128  14.041  20.423  0.00  0.00    +0.000 NA
ATOM     29  C   UNL     1       0.266  14.980  19.320  0.00  0.00    +0.000 C 
ATOM     30  C   UNL     1       1.570  14.533  18.627  0.00  0.00    +0.000 C 
BRANCH  25  32
ATOM     31  C   UNL     1       3.656  16.556  18.644  0.00  0.00    +0.000 C 
ATOM     32  C   UNL     1       3.318  15.703  19.863  0.00  0.00    +0.000 C 
ENDBRANCH  25  32
ENDBRANCH  22  28
ENDBRANCH   1  22
BRANCH   7  33
ATOM     33  O   UNL     1       1.230  10.380  19.673  0.00  0.00    +0.000 OA
ATOM     34  H   UNL     1       2.020  10.926  19.796  0.00  0.00    +0.000 HD
ENDBRANCH   7  33
TORSDOF 6
ENDMDL
MODEL 2
REMARK VINA RESULT:      -7.3      2.936      4.368
REMARK  Name = 
REMARK  7 active torsions:
REMARK  status: ('A' for Active; 'I' for Inactive)
REMARK    1  A    between atoms: C_1  and  C_2
REMARK    2  A    between atoms: C_2  and  N_3
REMARK    3  A    between atoms: N_6  and  S_7
REMARK    4  A    between atoms: S_7  and  C_10
REMARK    5  A    between atoms: C_15  and  N_16
REMARK    6  A    between atoms: N_19  and  C_20
REMARK    7  A    between atoms: C_28  and  O_29
REMARK                            x       y       z     vdW  Elec       q    Type
REMARK                         _______ _______ _______ _____ _____    ______ ____
ROOT
ATOM      1  C   UNL     1       0.033  11.491  20.975  0.00  0.00    +0.000 A 
ATOM      2  C   UNL     1      -0.078  11.778  19.605  0.00  0.00    +0.000 A 
ATOM      3 CL   UNL     1      -0.760  13.205  18.910  0.00  0.00    +0.000 Cl
ATOM      4  C   UNL     1       0.389  10.855  18.662  0.00  0.00    +0.000 A 
ATOM      5  C   UNL     1       0.968   9.652  19.059  0.00  0.00    +0.000 A 
ATOM      6  C   UNL     1       1.077   9.326  20.408  0.00  0.00    +0.000 A 
ATOM      7  C   UNL     1       0.554  10.230  21.360  0.00  0.00    +0.000 A 
ENDROOT
BRANCH   6   8
ATOM      8  N   UNL     1       1.682   8.100  20.818  0.00  0.00    +0.000 N 
ATOM      9  C   UNL     1       2.186   7.163  19.926  0.00  0.00    +0.000 C 
ATOM     10  O   UNL     1       2.239   7.335  18.707  0.00  0.00    +0.000 OA
ATOM     11  N   UNL     1       2.636   6.010  20.545  0.00  0.00    +0.000 N 
ATOM     12  H   UNL     1       1.956   8.000  21.782  0.00  0.00    +0.000 HD
ATOM     13  H   UNL     1       2.089   5.713  21.346  0.00  0.00    +0.000 HD
BRANCH  11  14
ATOM     14  C   UNL     1       3.175   4.940  19.763  0.00  0.00    +0.000 A 
ATOM     15  C   UNL     1       4.478   5.012  19.244  0.00  0.00    +0.000 A 
ATOM     16  C   UNL     1       4.972   4.017  18.394  0.00  0.00    +0.000 A 
ATOM     17  C   UNL     1       4.164   2.936  18.055  0.00  0.00    +0.000 A 
ATOM     18  C   UNL     1       2.884   2.840  18.594  0.00  0.00    +0.000 A 
ATOM     19  F   UNL     1       2.120   1.796  18.236  0.00  0.00    +0.000 F 
ATOM     20  C   UNL     1       2.390   3.817  19.462  0.00  0.00    +0.000 A 
ATOM     21 CL   UNL     1       0.782   3.673  20.082  0.00  0.00    +0.000 Cl
ENDBRANCH  11  14
ENDBRANCH   6   8
BRANCH   1  22
ATOM     22  S   UNL     1      -0.499  12.672  22.209  0.00  0.00    +0.000 S 
ATOM     23  O   UNL     1       0.450  13.766  22.250  0.00  0.00    +0.000 OA
ATOM     24  O   UNL     1      -0.793  11.980  23.445  0.00  0.00    +0.000 OA
BRANCH  22  28
ATOM     25  N   UNL     1      -3.955  14.192  23.692  0.00  0.00    +0.000 NA
ATOM     26  C   UNL     1      -3.817  12.789  23.242  0.00  0.00    +0.000 C 
ATOM     27  C   UNL     1      -3.245  12.583  21.816  0.00  0.00    +0.000 C 
ATOM     28  N   UNL     1      -1.969  13.335  21.586  0.00  0.00    +0.000 NA
ATOM     29  C   UNL     1      -2.192  14.775  21.952  0.00  0.00    +0.000 C 
ATOM     30  C   UNL     1      -2.700  14.926  23.400  0.00  0.00    +0.000 C 
BRANCH  25  32
ATOM     31  C   UNL     1      -6.440  14.141  23.336  0.00  0.00    +0.000 C 
ATOM     32  C   UNL     1      -5.128  14.903  23.172  0.00  0.00    +0.000 C 
ENDBRANCH  25  32
ENDBRANCH  22  28
ENDBRANCH   1  22
BRANCH   7  33
ATOM     33  O   UNL     1       0.551   9.840  22.673  0.00  0.00    +0.000 OA
ATOM     34  H   UNL     1       0.542  10.622  23.244  0.00  0.00    +0.000 HD
ENDBRANCH   7  33
TORSDOF 6
ENDMDL
MODEL 3
REMARK VINA RESULT:      -7.2      3.048      4.037
REMARK  Name = 
REMARK  7 active torsions:
REMARK  status: ('A' for Active; 'I' for Inactive)
REMARK    1  A    between atoms: C_1  and  C_2
REMARK    2  A    between atoms: C_2  and  N_3
REMARK    3  A    between atoms: N_6  and  S_7
REMARK    4  A    between atoms: S_7  and  C_10
REMARK    5  A    between atoms: C_15  and  N_16
REMARK    6  A    between atoms: N_19  and  C_20
REMARK    7  A    between atoms: C_28  and  O_29
REMARK                            x       y       z     vdW  Elec       q    Type
REMARK                         _______ _______ _______ _____ _____    ______ ____
ROOT
ATOM      1  C   UNL     1      -0.844  10.815  20.705  0.00  0.00    +0.000 A 
ATOM      2  C   UNL     1      -1.137  11.058  22.056  0.00  0.00    +0.000 A 
ATOM      3 CL   UNL     1      -2.299  12.182  22.666  0.00  0.00    +0.000 Cl
ATOM      4  C   UNL     1      -0.452  10.355  23.054  0.00  0.00    +0.000 A 
ATOM      5  C   UNL     1       0.519   9.410  22.728  0.00  0.00    +0.000 A 
ATOM      6  C   UNL     1       0.849   9.156  21.400  0.00  0.00    +0.000 A 
ATOM      7  C   UNL     1       0.199   9.907  20.394  0.00  0.00    +0.000 A 
ENDROOT
BRANCH   6   8
ATOM      8  N   UNL     1       1.833   8.179  21.064  0.00  0.00    +0.000 N 
ATOM      9  C   UNL     1       1.524   6.863  20.750  0.00  0.00    +0.000 C 
ATOM     10  O   UNL     1       0.374   6.433  20.648  0.00  0.00    +0.000 OA
ATOM     11  N   UNL     1       2.645   6.074  20.553  0.00  0.00    +0.000 N 
ATOM     12  H   UNL     1       2.760   8.496  20.828  0.00  0.00    +0.000 HD
ATOM     13  H   UNL     1       3.430   6.287  21.159  0.00  0.00    +0.000 HD
BRANCH  11  14
ATOM     14  C   UNL     1       2.498   4.687  20.234  0.00  0.00    +0.000 A 
ATOM     15  C   UNL     1       2.167   3.751  21.227  0.00  0.00    +0.000 A 
ATOM     16  C   UNL     1       2.125   2.382  20.942  0.00  0.00    +0.000 A 
ATOM     17  C   UNL     1       2.414   1.936  19.656  0.00  0.00    +0.000 A 
ATOM     18  C   UNL     1       2.709   2.861  18.658  0.00  0.00    +0.000 A 
ATOM     19  F   UNL     1       3.001   2.401  17.432  0.00  0.00    +0.000 F 
ATOM     20  C   UNL     1       2.731   4.232  18.928  0.00  0.00    +0.000 A 
ATOM     21 CL   UNL     1       3.134   5.343  17.665  0.00  0.00    +0.000 Cl
ENDBRANCH  11  14
ENDBRANCH   6   8
BRANCH   1  22
ATOM     22  S   UNL     1      -1.742  11.653  19.404  0.00  0.00    +0.000 S 
ATOM     23  O   UNL     1      -0.792  12.306  18.525  0.00  0.00    +0.000 OA
ATOM     24  O   UNL     1      -2.795  12.457  19.984  0.00  0.00    +0.000 OA
BRANCH  22  28
ATOM     25  N   UNL     1      -3.603  11.268  15.821  0.00  0.00    +0.000 NA
ATOM     26  C   UNL     1      -4.334  11.420  17.099  0.00  0.00    +0.000 C 
ATOM     27  C   UNL     1      -3.943  10.436  18.230  0.00  0.00    +0.000 C 
ATOM     28  N   UNL     1      -2.464  10.387  18.474  0.00  0.00    +0.000 NA
ATOM     29  C   UNL     1      -1.774  10.120  17.167  0.00  0.00    +0.000 C 
ATOM     30  C   UNL     1      -2.150  11.165  16.097  0.00  0.00    +0.000 C 
BRANCH  25  32
ATOM     31  C   UNL     1      -3.188   9.926  13.739  0.00  0.00    +0.000 C 
ATOM     32  C   UNL     1      -4.067  10.172  14.962  0.00  0.00    +0.000 C 
ENDBRANCH  25  32
ENDBRANCH  22  28
ENDBRANCH   1  22
BRANCH   7  33
ATOM     33  O   UNL     1       0.624   9.741  19.102  0.00  0.00    +0.000 OA
ATOM     34  H   UNL     1       0.684   8.796  18.900  0.00  0.00    +0.000 HD
ENDBRANCH   7  33
TORSDOF 6
ENDMDL
MODEL 4
REMARK VINA RESULT:      -7.1      5.039      9.415
REMARK  Name = 
REMARK  7 active torsions:
REMARK  status: ('A' for Active; 'I' for Inactive)
REMARK    1  A    between atoms: C_1  and  C_2
REMARK    2  A    between atoms: C_2  and  N_3
REMARK    3  A    between atoms: N_6  and  S_7
REMARK    4  A    between atoms: S_7  and  C_10
REMARK    5  A    between atoms: C_15  and  N_16
REMARK    6  A    between atoms: N_19  and  C_20
REMARK    7  A    between atoms: C_28  and  O_29
REMARK                            x       y       z     vdW  Elec       q    Type
REMARK                         _______ _______ _______ _____ _____    ______ ____
ROOT
ATOM      1  C   UNL     1       4.412   5.771  18.680  0.00  0.00    +0.000 A 
ATOM      2  C   UNL     1       3.623   4.845  19.381  0.00  0.00    +0.000 A 
ATOM      3 CL   UNL     1       4.166   3.364  20.086  0.00  0.00    +0.000 Cl
ATOM      4  C   UNL     1       2.256   5.088  19.556  0.00  0.00    +0.000 A 
ATOM      5  C   UNL     1       1.661   6.241  19.048  0.00  0.00    +0.000 A 
ATOM      6  C   UNL     1       2.408   7.172  18.331  0.00  0.00    +0.000 A 
ATOM      7  C   UNL     1       3.777   6.899  18.103  0.00  0.00    +0.000 A 
ENDROOT
BRANCH   6   8
ATOM      8  N   UNL     1       1.803   8.359  17.821  0.00  0.00    +0.000 N 
ATOM      9  C   UNL     1       1.159   9.291  18.623  0.00  0.00    +0.000 C 
ATOM     10  O   UNL     1       1.120   9.229  19.852  0.00  0.00    +0.000 OA
ATOM     11  N   UNL     1       0.565  10.312  17.900  0.00  0.00    +0.000 N 
ATOM     12  H   UNL     1       2.036   8.650  16.885  0.00  0.00    +0.000 HD
ATOM     13  H   UNL     1       0.160  10.029  17.014  0.00  0.00    +0.000 HD
BRANCH  11  14
ATOM     14  C   UNL     1      -0.152  11.348  18.577  0.00  0.00    +0.000 A 
ATOM     15  C   UNL     1       0.527  12.427  19.165  0.00  0.00    +0.000 A 
ATOM     16  C   UNL     1      -0.158  13.387  19.917  0.00  0.00    +0.000 A 
ATOM     17  C   UNL     1      -1.535  13.276  20.088  0.00  0.00    +0.000 A 
ATOM     18  C   UNL     1      -2.219  12.227  19.481  0.00  0.00    +0.000 A 
ATOM     19  F   UNL     1      -3.543  12.133  19.677  0.00  0.00    +0.000 F 
ATOM     20  C   UNL     1      -1.546  11.276  18.708  0.00  0.00    +0.000 A 
ATOM     21 CL   UNL     1      -2.433   9.972  17.998  0.00  0.00    +0.000 Cl
ENDBRANCH  11  14
ENDBRANCH   6   8
BRANCH   1  22
ATOM     22  S   UNL     1       6.174   5.521  18.489  0.00  0.00    +0.000 S 
ATOM     23  O   UNL     1       6.715   5.023  19.737  0.00  0.00    +0.000 OA
ATOM     24  O   UNL     1       6.770   6.707  17.914  0.00  0.00    +0.000 OA
BRANCH  22  28
ATOM     25  N   UNL     1       6.326   5.085  14.459  0.00  0.00    +0.000 NA
ATOM     26  C   UNL     1       5.083   4.916  15.243  0.00  0.00    +0.000 C 
ATOM     27  C   UNL     1       5.160   3.940  16.444  0.00  0.00    +0.000 C 
ATOM     28  N   UNL     1       6.319   4.226  17.353  0.00  0.00    +0.000 NA
ATOM     29  C   UNL     1       7.571   4.277  16.526  0.00  0.00    +0.000 C 
ATOM     30  C   UNL     1       7.463   5.308  15.385  0.00  0.00    +0.000 C 
BRANCH  25  32
ATOM     31  C   UNL     1       5.416   3.598  12.651  0.00  0.00    +0.000 C 
ATOM     32  C   UNL     1       6.614   4.009  13.503  0.00  0.00    +0.000 C 
ENDBRANCH  25  32
ENDBRANCH  22  28
ENDBRANCH   1  22
BRANCH   7  33
ATOM     33  O   UNL     1       4.469   7.756  17.290  0.00  0.00    +0.000 OA
ATOM     34  H   UNL     1       4.359   8.664  17.607  0.00  0.00    +0.000 HD
ENDBRANCH   7  33
TORSDOF 6
ENDMDL
MODEL 5
REMARK VINA RESULT:      -7.1      4.819      9.281
REMARK  Name = 
REMARK  7 active torsions:
REMARK  status: ('A' for Active; 'I' for Inactive)
REMARK    1  A    between atoms: C_1  and  C_2
REMARK    2  A    between atoms: C_2  and  N_3
REMARK    3  A    between atoms: N_6  and  S_7
REMARK    4  A    between atoms: S_7  and  C_10
REMARK    5  A    between atoms: C_15  and  N_16
REMARK    6  A    between atoms: N_19  and  C_20
REMARK    7  A    between atoms: C_28  and  O_29
REMARK                            x       y       z     vdW  Elec       q    Type
REMARK                         _______ _______ _______ _____ _____    ______ ____
ROOT
ATOM      1  C   UNL     1       3.767   5.265  19.554  0.00  0.00    +0.000 A 
ATOM      2  C   UNL     1       3.050   4.332  20.321  0.00  0.00    +0.000 A 
ATOM      3 CL   UNL     1       3.553   2.725  20.711  0.00  0.00    +0.000 Cl
ATOM      4  C   UNL     1       1.799   4.677  20.845  0.00  0.00    +0.000 A 
ATOM      5  C   UNL     1       1.250   5.938  20.622  0.00  0.00    +0.000 A 
ATOM      6  C   UNL     1       1.924   6.882  19.851  0.00  0.00    +0.000 A 
ATOM      7  C   UNL     1       3.160   6.514  19.273  0.00  0.00    +0.000 A 
ENDROOT
BRANCH   6   8
ATOM      8  N   UNL     1       1.369   8.178  19.632  0.00  0.00    +0.000 N 
ATOM      9  C   UNL     1       1.068   9.061  20.660  0.00  0.00    +0.000 C 
ATOM     10  O   UNL     1       1.326   8.850  21.846  0.00  0.00    +0.000 OA
ATOM     11  N   UNL     1       0.450  10.219  20.218  0.00  0.00    +0.000 N 
ATOM     12  H   UNL     1       1.399   8.560  18.701  0.00  0.00    +0.000 HD
ATOM     13  H   UNL     1      -0.195  10.092  19.445  0.00  0.00    +0.000 HD
BRANCH  11  14
ATOM     14  C   UNL     1       0.062  11.228  21.155  0.00  0.00    +0.000 A 
ATOM     15  C   UNL     1      -0.903  10.963  22.141  0.00  0.00    +0.000 A 
ATOM     16  C   UNL     1      -1.361  11.974  22.992  0.00  0.00    +0.000 A 
ATOM     17  C   UNL     1      -0.855  13.264  22.866  0.00  0.00    +0.000 A 
ATOM     18  C   UNL     1       0.127  13.526  21.914  0.00  0.00    +0.000 A 
ATOM     19  F   UNL     1       0.584  14.783  21.801  0.00  0.00    +0.000 F 
ATOM     20  C   UNL     1       0.607  12.518  21.074  0.00  0.00    +0.000 A 
ATOM     21 CL   UNL     1       1.805  12.896  19.885  0.00  0.00    +0.000 Cl
ENDBRANCH  11  14
ENDBRANCH   6   8
BRANCH   1  22
ATOM     22  S   UNL     1       5.394   4.878  18.918  0.00  0.00    +0.000 S 
ATOM     23  O   UNL     1       5.484   3.448  18.702  0.00  0.00    +0.000 OA
ATOM     24  O   UNL     1       6.398   5.504  19.749  0.00  0.00    +0.000 OA
BRANCH  22  28
ATOM     25  N   UNL     1       6.833   3.952  15.241  0.00  0.00    +0.000 NA
ATOM     26  C   UNL     1       7.565   4.804  16.204  0.00  0.00    +0.000 C 
ATOM     27  C   UNL     1       6.777   6.003  16.791  0.00  0.00    +0.000 C 
ATOM     28  N   UNL     1       5.444   5.605  17.351  0.00  0.00    +0.000 NA
ATOM     29  C   UNL     1       4.695   4.839  16.299  0.00  0.00    +0.000 C 
ATOM     30  C   UNL     1       5.497   3.622  15.796  0.00  0.00    +0.000 C 
BRANCH  25  32
ATOM     31  C   UNL     1       5.914   3.622  12.927  0.00  0.00    +0.000 C 
ATOM     32  C   UNL     1       6.732   4.490  13.879  0.00  0.00    +0.000 C 
ENDBRANCH  25  32
ENDBRANCH  22  28
ENDBRANCH   1  22
BRANCH   7  33
ATOM     33  O   UNL     1       3.749   7.404  18.414  0.00  0.00    +0.000 OA
ATOM     34  H   UNL     1       4.491   7.840  18.857  0.00  0.00    +0.000 HD
ENDBRANCH   7  33
TORSDOF 6
ENDMDL
MODEL 6
REMARK VINA RESULT:      -7.1      5.088      9.500
REMARK  Name = 
REMARK  7 active torsions:
REMARK  status: ('A' for Active; 'I' for Inactive)
REMARK    1  A    between atoms: C_1  and  C_2
REMARK    2  A    between atoms: C_2  and  N_3
REMARK    3  A    between atoms: N_6  and  S_7
REMARK    4  A    between atoms: S_7  and  C_10
REMARK    5  A    between atoms: C_15  and  N_16
REMARK    6  A    between atoms: N_19  and  C_20
REMARK    7  A    between atoms: C_28  and  O_29
REMARK                            x       y       z     vdW  Elec       q    Type
REMARK                         _______ _______ _______ _____ _____    ______ ____
ROOT
ATOM      1  C   UNL     1       4.436   5.684  18.710  0.00  0.00    +0.000 A 
ATOM      2  C   UNL     1       3.681   4.744  19.430  0.00  0.00    +0.000 A 
ATOM      3 CL   UNL     1       4.272   3.286  20.144  0.00  0.00    +0.000 Cl
ATOM      4  C   UNL     1       2.310   4.952  19.619  0.00  0.00    +0.000 A 
ATOM      5  C   UNL     1       1.677   6.082  19.106  0.00  0.00    +0.000 A 
ATOM      6  C   UNL     1       2.390   7.026  18.371  0.00  0.00    +0.000 A 
ATOM      7  C   UNL     1       3.762   6.788  18.130  0.00  0.00    +0.000 A 
ENDROOT
BRANCH   6   8
ATOM      8  N   UNL     1       1.746   8.191  17.855  0.00  0.00    +0.000 N 
ATOM      9  C   UNL     1       1.273   9.218  18.660  0.00  0.00    +0.000 C 
ATOM     10  O   UNL     1       1.437   9.267  19.880  0.00  0.00    +0.000 OA
ATOM     11  N   UNL     1       0.600  10.198  17.950  0.00  0.00    +0.000 N 
ATOM     12  H   UNL     1       1.830   8.387  16.871  0.00  0.00    +0.000 HD
ATOM     13  H   UNL     1       0.045   9.857  17.171  0.00  0.00    +0.000 HD
BRANCH  11  14
ATOM     14  C   UNL     1       0.039  11.322  18.634  0.00  0.00    +0.000 A 
ATOM     15  C   UNL     1      -1.263  11.270  19.157  0.00  0.00    +0.000 A 
ATOM     16  C   UNL     1      -1.854  12.398  19.734  0.00  0.00    +0.000 A 
ATOM     17  C   UNL     1      -1.145  13.594  19.794  0.00  0.00    +0.000 A 
ATOM     18  C   UNL     1       0.159  13.644  19.309  0.00  0.00    +0.000 A 
ATOM     19  F   UNL     1       0.814  14.814  19.363  0.00  0.00    +0.000 F 
ATOM     20  C   UNL     1       0.766  12.516  18.751  0.00  0.00    +0.000 A 
ATOM     21 CL   UNL     1       2.377  12.632  18.132  0.00  0.00    +0.000 Cl
ENDBRANCH  11  14
ENDBRANCH   6   8
BRANCH   1  22
ATOM     22  S   UNL     1       6.201   5.480  18.501  0.00  0.00    +0.000 S 
ATOM     23  O   UNL     1       6.776   5.052  19.760  0.00  0.00    +0.000 OA
ATOM     24  O   UNL     1       6.751   6.659  17.868  0.00  0.00    +0.000 OA
BRANCH  22  28
ATOM     25  N   UNL     1       5.914   4.819  14.510  0.00  0.00    +0.000 NA
ATOM     26  C   UNL     1       4.808   4.550  15.454  0.00  0.00    +0.000 C 
ATOM     27  C   UNL     1       5.155   3.667  16.679  0.00  0.00    +0.000 C 
ATOM     28  N   UNL     1       6.369   4.145  17.416  0.00  0.00    +0.000 NA
ATOM     29  C   UNL     1       7.495   4.295  16.434  0.00  0.00    +0.000 C 
ATOM     30  C   UNL     1       7.118   5.234  15.270  0.00  0.00    +0.000 C 
BRANCH  25  32
ATOM     31  C   UNL     1       5.247   3.627  12.402  0.00  0.00    +0.000 C 
ATOM     32  C   UNL     1       6.218   3.728  13.575  0.00  0.00    +0.000 C 
ENDBRANCH  25  32
ENDBRANCH  22  28
ENDBRANCH   1  22
BRANCH   7  33
ATOM     33  O   UNL     1       4.421   7.656  17.300  0.00  0.00    +0.000 OA
ATOM     34  H   UNL     1       3.836   7.918  16.575  0.00  0.00    +0.000 HD
ENDBRANCH   7  33
TORSDOF 6
ENDMDL
MODEL 7
REMARK VINA RESULT:      -7.1      1.007      1.511
REMARK  Name = 
REMARK  7 active torsions:
REMARK  status: ('A' for Active; 'I' for Inactive)
REMARK    1  A    between atoms: C_1  and  C_2
REMARK    2  A    between atoms: C_2  and  N_3
REMARK    3  A    between atoms: N_6  and  S_7
REMARK    4  A    between atoms: S_7  and  C_10
REMARK    5  A    between atoms: C_15  and  N_16
REMARK    6  A    between atoms: N_19  and  C_20
REMARK    7  A    between atoms: C_28  and  O_29
REMARK                            x       y       z     vdW  Elec       q    Type
REMARK                         _______ _______ _______ _____ _____    ______ ____
ROOT
ATOM      1  C   UNL     1      -0.588  11.299  21.150  0.00  0.00    +0.000 A 
ATOM      2  C   UNL     1      -1.127  11.322  22.447  0.00  0.00    +0.000 A 
ATOM      3 CL   UNL     1      -2.272  12.461  23.060  0.00  0.00    +0.000 Cl
ATOM      4  C   UNL     1      -0.735  10.354  23.379  0.00  0.00    +0.000 A 
ATOM      5  C   UNL     1       0.183   9.361  23.041  0.00  0.00    +0.000 A 
ATOM      6  C   UNL     1       0.752   9.320  21.771  0.00  0.00    +0.000 A 
ATOM      7  C   UNL     1       0.402  10.331  20.847  0.00  0.00    +0.000 A 
ENDROOT
BRANCH   6   8
ATOM      8  N   UNL     1       1.683   8.297  21.419  0.00  0.00    +0.000 N 
ATOM      9  C   UNL     1       1.299   7.039  20.975  0.00  0.00    +0.000 C 
ATOM     10  O   UNL     1       0.131   6.713  20.760  0.00  0.00    +0.000 OA
ATOM     11  N   UNL     1       2.369   6.180  20.786  0.00  0.00    +0.000 N 
ATOM     12  H   UNL     1       2.645   8.555  21.274  0.00  0.00    +0.000 HD
ATOM     13  H   UNL     1       3.122   6.280  21.459  0.00  0.00    +0.000 HD
BRANCH  11  14
ATOM     14  C   UNL     1       2.142   4.840  20.341  0.00  0.00    +0.000 A 
ATOM     15  C   UNL     1       1.890   3.809  21.261  0.00  0.00    +0.000 A 
ATOM     16  C   UNL     1       1.771   2.480  20.840  0.00  0.00    +0.000 A 
ATOM     17  C   UNL     1       1.904   2.169  19.490  0.00  0.00    +0.000 A 
ATOM     18  C   UNL     1       2.120   3.190  18.568  0.00  0.00    +0.000 A 
ATOM     19  F   UNL     1       2.263   2.860  17.275  0.00  0.00    +0.000 F 
ATOM     20  C   UNL     1       2.217   4.523  18.977  0.00  0.00    +0.000 A 
ATOM     21 CL   UNL     1       2.518   5.756  17.801  0.00  0.00    +0.000 Cl
ENDBRANCH  11  14
ENDBRANCH   6   8
BRANCH   1  22
ATOM     22  S   UNL     1      -1.111  12.485  19.916  0.00  0.00    +0.000 S 
ATOM     23  O   UNL     1      -2.124  13.346  20.493  0.00  0.00    +0.000 OA
ATOM     24  O   UNL     1      -1.426  11.793  18.686  0.00  0.00    +0.000 OA
BRANCH  22  28
ATOM     25  N   UNL     1       0.013  16.303  20.698  0.00  0.00    +0.000 NA
ATOM     26  C   UNL     1      -0.549  15.877  19.397  0.00  0.00    +0.000 C 
ATOM     27  C   UNL     1       0.134  14.661  18.724  0.00  0.00    +0.000 C 
ATOM     28  N   UNL     1       0.273  13.486  19.645  0.00  0.00    +0.000 NA
ATOM     29  C   UNL     1       0.949  13.945  20.905  0.00  0.00    +0.000 C 
ATOM     30  C   UNL     1       0.192  15.115  21.567  0.00  0.00    +0.000 C 
BRANCH  25  32
ATOM     31  C   UNL     1       1.223  18.162  19.520  0.00  0.00    +0.000 C 
ATOM     32  C   UNL     1       1.242  17.101  20.617  0.00  0.00    +0.000 C 
ENDBRANCH  25  32
ENDBRANCH  22  28
ENDBRANCH   1  22
BRANCH   7  33
ATOM     33  O   UNL     1       1.064  10.353  19.649  0.00  0.00    +0.000 OA
ATOM     34  H   UNL     1       0.472  10.048  18.946  0.00  0.00    +0.000 HD
ENDBRANCH   7  33
TORSDOF 6
ENDMDL
MODEL 8
REMARK VINA RESULT:      -7.0      2.761      4.156
REMARK  Name = 
REMARK  7 active torsions:
REMARK  status: ('A' for Active; 'I' for Inactive)
REMARK    1  A    between atoms: C_1  and  C_2
REMARK    2  A    between atoms: C_2  and  N_3
REMARK    3  A    between atoms: N_6  and  S_7
REMARK    4  A    between atoms: S_7  and  C_10
REMARK    5  A    between atoms: C_15  and  N_16
REMARK    6  A    between atoms: N_19  and  C_20
REMARK    7  A    between atoms: C_28  and  O_29
REMARK                            x       y       z     vdW  Elec       q    Type
REMARK                         _______ _______ _______ _____ _____    ______ ____
ROOT
ATOM      1  C   UNL     1       0.263  11.785  20.309  0.00  0.00    +0.000 A 
ATOM      2  C   UNL     1      -0.228  11.771  18.993  0.00  0.00    +0.000 A 
ATOM      3 CL   UNL     1      -0.967  13.092  18.162  0.00  0.00    +0.000 Cl
ATOM      4  C   UNL     1      -0.140  10.600  18.232  0.00  0.00    +0.000 A 
ATOM      5  C   UNL     1       0.431   9.442  18.757  0.00  0.00    +0.000 A 
ATOM      6  C   UNL     1       0.910   9.414  20.063  0.00  0.00    +0.000 A 
ATOM      7  C   UNL     1       0.770  10.578  20.853  0.00  0.00    +0.000 A 
ENDROOT
BRANCH   6   8
ATOM      8  N   UNL     1       1.507   8.234  20.599  0.00  0.00    +0.000 N 
ATOM      9  C   UNL     1       2.120   7.267  19.814  0.00  0.00    +0.000 C 
ATOM     10  O   UNL     1       2.284   7.372  18.597  0.00  0.00    +0.000 OA
ATOM     11  N   UNL     1       2.542   6.165  20.539  0.00  0.00    +0.000 N 
ATOM     12  H   UNL     1       1.691   8.198  21.588  0.00  0.00    +0.000 HD
ATOM     13  H   UNL     1       1.930   5.896  21.302  0.00  0.00    +0.000 HD
BRANCH  11  14
ATOM     14  C   UNL     1       3.183   5.072  19.875  0.00  0.00    +0.000 A 
ATOM     15  C   UNL     1       4.515   5.174  19.441  0.00  0.00    +0.000 A 
ATOM     16  C   UNL     1       5.112   4.148  18.701  0.00  0.00    +0.000 A 
ATOM     17  C   UNL     1       4.380   3.007  18.387  0.00  0.00    +0.000 A 
ATOM     18  C   UNL     1       3.071   2.885  18.843  0.00  0.00    +0.000 A 
ATOM     19  F   UNL     1       2.382   1.782  18.511  0.00  0.00    +0.000 F 
ATOM     20  C   UNL     1       2.473   3.894  19.603  0.00  0.00    +0.000 A 
ATOM     21 CL   UNL     1       0.832   3.712  20.122  0.00  0.00    +0.000 Cl
ENDBRANCH  11  14
ENDBRANCH   6   8
BRANCH   1  22
ATOM     22  S   UNL     1       0.220  13.280  21.291  0.00  0.00    +0.000 S 
ATOM     23  O   UNL     1      -0.458  14.316  20.537  0.00  0.00    +0.000 OA
ATOM     24  O   UNL     1       1.546  13.564  21.795  0.00  0.00    +0.000 OA
BRANCH  22  28
ATOM     25  N   UNL     1      -3.547  14.173  22.500  0.00  0.00    +0.000 NA
ATOM     26  C   UNL     1      -2.350  14.895  22.986  0.00  0.00    +0.000 C 
ATOM     27  C   UNL     1      -1.207  14.017  23.554  0.00  0.00    +0.000 C 
ATOM     28  N   UNL     1      -0.810  12.907  22.628  0.00  0.00    +0.000 NA
ATOM     29  C   UNL     1      -2.042  12.136  22.251  0.00  0.00    +0.000 C 
ATOM     30  C   UNL     1      -3.121  13.047  21.633  0.00  0.00    +0.000 C 
BRANCH  25  32
ATOM     31  C   UNL     1      -5.736  13.052  23.010  0.00  0.00    +0.000 C 
ATOM     32  C   UNL     1      -4.476  13.726  23.545  0.00  0.00    +0.000 C 
ENDBRANCH  25  32
ENDBRANCH  22  28
ENDBRANCH   1  22
BRANCH   7  33
ATOM     33  O   UNL     1       1.127  10.498  22.173  0.00  0.00    +0.000 OA
ATOM     34  H   UNL     1       0.498   9.934  22.645  0.00  0.00    +0.000 HD
ENDBRANCH   7  33
TORSDOF 6
ENDMDL
MODEL 9
REMARK VINA RESULT:      -7.0      2.486      3.114
REMARK  Name = 
REMARK  7 active torsions:
REMARK  status: ('A' for Active; 'I' for Inactive)
REMARK    1  A    between atoms: C_1  and  C_2
REMARK    2  A    between atoms: C_2  and  N_3
REMARK    3  A    between atoms: N_6  and  S_7
REMARK    4  A    between atoms: S_7  and  C_10
REMARK    5  A    between atoms: C_15  and  N_16
REMARK    6  A    between atoms: N_19  and  C_20
REMARK    7  A    between atoms: C_28  and  O_29
REMARK                            x       y       z     vdW  Elec       q    Type
REMARK                         _______ _______ _______ _____ _____    ______ ____
ROOT
ATOM      1  C   UNL     1       0.492  12.038  20.853  0.00  0.00    +0.000 A 
ATOM      2  C   UNL     1      -0.383  11.417  21.759  0.00  0.00    +0.000 A 
ATOM      3 CL   UNL     1      -1.176  12.171  23.097  0.00  0.00    +0.000 Cl
ATOM      4  C   UNL     1      -0.679  10.057  21.619  0.00  0.00    +0.000 A 
ATOM      5  C   UNL     1      -0.120   9.303  20.589  0.00  0.00    +0.000 A 
ATOM      6  C   UNL     1       0.766   9.880  19.684  0.00  0.00    +0.000 A 
ATOM      7  C   UNL     1       1.111  11.239  19.859  0.00  0.00    +0.000 A 
ENDROOT
BRANCH   6   8
ATOM      8  N   UNL     1       1.329   9.113  18.620  0.00  0.00    +0.000 N 
ATOM      9  C   UNL     1       2.182   8.037  18.826  0.00  0.00    +0.000 C 
ATOM     10  O   UNL     1       2.467   7.589  19.937  0.00  0.00    +0.000 OA
ATOM     11  N   UNL     1       2.680   7.506  17.648  0.00  0.00    +0.000 N 
ATOM     12  H   UNL     1       0.929   9.205  17.701  0.00  0.00    +0.000 HD
ATOM     13  H   UNL     1       2.877   8.186  16.921  0.00  0.00    +0.000 HD
BRANCH  11  14
ATOM     14  C   UNL     1       3.585   6.399  17.687  0.00  0.00    +0.000 A 
ATOM     15  C   UNL     1       4.974   6.603  17.679  0.00  0.00    +0.000 A 
ATOM     16  C   UNL     1       5.862   5.524  17.612  0.00  0.00    +0.000 A 
ATOM     17  C   UNL     1       5.366   4.225  17.552  0.00  0.00    +0.000 A 
ATOM     18  C   UNL     1       3.990   4.013  17.594  0.00  0.00    +0.000 A 
ATOM     19  F   UNL     1       3.539   2.752  17.516  0.00  0.00    +0.000 F 
ATOM     20  C   UNL     1       3.097   5.084  17.684  0.00  0.00    +0.000 A 
ATOM     21 CL   UNL     1       1.395   4.775  17.701  0.00  0.00    +0.000 Cl
ENDBRANCH  11  14
ENDBRANCH   6   8
BRANCH   1  22
ATOM     22  S   UNL     1       0.847  13.788  20.968  0.00  0.00    +0.000 S 
ATOM     23  O   UNL     1       2.144  13.963  21.590  0.00  0.00    +0.000 OA
ATOM     24  O   UNL     1      -0.286  14.472  21.553  0.00  0.00    +0.000 OA
BRANCH  22  28
ATOM     25  N   UNL     1       0.749  17.294  18.933  0.00  0.00    +0.000 NA
ATOM     26  C   UNL     1      -0.416  16.388  19.035  0.00  0.00    +0.000 C 
ATOM     27  C   UNL     1      -0.168  14.910  18.641  0.00  0.00    +0.000 C 
ATOM     28  N   UNL     1       1.023  14.315  19.331  0.00  0.00    +0.000 NA
ATOM     29  C   UNL     1       2.204  15.214  19.104  0.00  0.00    +0.000 C 
ATOM     30  C   UNL     1       1.925  16.656  19.572  0.00  0.00    +0.000 C 
BRANCH  25  32
ATOM     31  C   UNL     1      -0.120  18.399  16.851  0.00  0.00    +0.000 C 
ATOM     32  C   UNL     1       1.061  17.760  17.576  0.00  0.00    +0.000 C 
ENDBRANCH  25  32
ENDBRANCH  22  28
ENDBRANCH   1  22
BRANCH   7  33
ATOM     33  O   UNL     1       2.080  11.759  19.043  0.00  0.00    +0.000 OA
ATOM     34  H   UNL     1       2.122  11.248  18.222  0.00  0.00    +0.000 HD
ENDBRANCH   7  33
TORSDOF 6
ENDMDL
