MODEL 1
REMARK VINA RESULT:      -7.8      0.000      0.000
REMARK  Name = 
REMARK  4 active torsions:
REMARK  status: ('A' for Active; 'I' for Inactive)
REMARK    1  A    between atoms: C_1  and  C_2
REMARK    2  A    between atoms: C_4  and  C_5
REMARK    3  A    between atoms: C_5  and  C_6
REMARK    4  A    between atoms: C_16  and  O_17
REMARK                            x       y       z     vdW  Elec       q    Type
REMARK                         _______ _______ _______ _____ _____    ______ ____
ROOT
ATOM      1  C   UNL     1       5.939   3.903  14.926  0.00  0.00    +0.000 C 
ATOM      2  C   UNL     1       5.369   4.442  16.185  0.00  0.00    +0.000 A 
ATOM      3  N   UNL     1       4.099   4.756  16.375  0.00  0.00    +0.000 NA
ATOM      4  C   UNL     1       4.009   5.228  17.672  0.00  0.00    +0.000 A 
ATOM      5  C   UNL     1       5.255   5.209  18.275  0.00  0.00    +0.000 A 
ATOM      6  N   UNL     1       5.739   5.584  19.491  0.00  0.00    +0.000 NA
ATOM      7  C   UNL     1       7.020   5.448  19.687  0.00  0.00    +0.000 A 
ATOM      8  N   UNL     1       7.935   4.965  18.771  0.00  0.00    +0.000 NA
ATOM      9  C   UNL     1       7.445   4.623  17.632  0.00  0.00    +0.000 A 
ATOM     10  N   UNL     1       6.105   4.714  17.314  0.00  0.00    +0.000 N 
ENDROOT
BRANCH   9  11
ATOM     11  O   UNL     1       8.222   4.153  16.643  0.00  0.00    +0.000 OA
ATOM     12  H   UNL     1       7.667   4.050  15.851  0.00  0.00    +0.000 HD
ENDBRANCH   9  11
BRANCH   4  13
ATOM     13  C   UNL     1       2.731   5.779  18.196  0.00  0.00    +0.000 C 
BRANCH  13  14
ATOM     14  C   UNL     1       2.129   4.762  19.134  0.00  0.00    +0.000 A 
ATOM     15  C   UNL     1       1.430   3.652  18.633  0.00  0.00    +0.000 A 
ATOM     16  C   UNL     1       0.959   2.660  19.495  0.00  0.00    +0.000 A 
ATOM     17  C   UNL     1       1.174   2.767  20.869  0.00  0.00    +0.000 A 
ATOM     18  C   UNL     1       1.844   3.876  21.382  0.00  0.00    +0.000 A 
ATOM     19  C   UNL     1       2.315   4.871  20.521  0.00  0.00    +0.000 A 
ENDBRANCH  13  14
ENDBRANCH   4  13
TORSDOF 3
ENDMDL
MODEL 2
REMARK VINA RESULT:      -7.7      0.154      1.142
REMARK  Name = 
REMARK  4 active torsions:
REMARK  status: ('A' for Active; 'I' for Inactive)
REMARK    1  A    between atoms: C_1  and  C_2
REMARK    2  A    between atoms: C_4  and  C_5
REMARK    3  A    between atoms: C_5  and  C_6
REMARK    4  A    between atoms: C_16  and  O_17
REMARK                            x       y       z     vdW  Elec       q    Type
REMARK                         _______ _______ _______ _____ _____    ______ ____
ROOT
ATOM      1  C   UNL     1       5.907   3.921  14.882  0.00  0.00    +0.000 C 
ATOM      2  C   UNL     1       5.366   4.424  16.169  0.00  0.00    +0.000 A 
ATOM      3  N   UNL     1       4.096   4.702  16.406  0.00  0.00    +0.000 NA
ATOM      4  C   UNL     1       4.037   5.150  17.714  0.00  0.00    +0.000 A 
ATOM      5  C   UNL     1       5.302   5.152  18.275  0.00  0.00    +0.000 A 
ATOM      6  N   UNL     1       5.818   5.519  19.481  0.00  0.00    +0.000 NA
ATOM      7  C   UNL     1       7.107   5.411  19.632  0.00  0.00    +0.000 A 
ATOM      8  N   UNL     1       8.003   4.967  18.678  0.00  0.00    +0.000 NA
ATOM      9  C   UNL     1       7.484   4.632  17.550  0.00  0.00    +0.000 A 
ATOM     10  N   UNL     1       6.133   4.695  17.278  0.00  0.00    +0.000 N 
ENDROOT
BRANCH   9  11
ATOM     11  O   UNL     1       8.239   4.199  16.528  0.00  0.00    +0.000 OA
ATOM     12  H   UNL     1       8.518   4.975  16.014  0.00  0.00    +0.000 HD
ENDBRANCH   9  11
BRANCH   4  13
ATOM     13  C   UNL     1       2.765   5.660  18.288  0.00  0.00    +0.000 C 
BRANCH  13  14
ATOM     14  C   UNL     1       2.226   4.618  19.238  0.00  0.00    +0.000 A 
ATOM     15  C   UNL     1       2.536   4.669  20.606  0.00  0.00    +0.000 A 
ATOM     16  C   UNL     1       1.958   3.766  21.501  0.00  0.00    +0.000 A 
ATOM     17  C   UNL     1       1.069   2.796  21.039  0.00  0.00    +0.000 A 
ATOM     18  C   UNL     1       0.773   2.718  19.679  0.00  0.00    +0.000 A 
ATOM     19  C   UNL     1       1.351   3.619  18.783  0.00  0.00    +0.000 A 
ENDBRANCH  13  14
ENDBRANCH   4  13
TORSDOF 3
ENDMDL
MODEL 3
REMARK VINA RESULT:      -7.5      0.896      2.441
REMARK  Name = 
REMARK  4 active torsions:
REMARK  status: ('A' for Active; 'I' for Inactive)
REMARK    1  A    between atoms: C_1  and  C_2
REMARK    2  A    between atoms: C_4  and  C_5
REMARK    3  A    between atoms: C_5  and  C_6
REMARK    4  A    between atoms: C_16  and  O_17
REMARK                            x       y       z     vdW  Elec       q    Type
REMARK                         _______ _______ _______ _____ _____    ______ ____
ROOT
ATOM      1  C   UNL     1       7.428   5.440  19.671  0.00  0.00    +0.000 C 
ATOM      2  C   UNL     1       6.232   5.493  18.793  0.00  0.00    +0.000 A 
ATOM      3  N   UNL     1       5.053   5.979  19.139  0.00  0.00    +0.000 NA
ATOM      4  C   UNL     1       4.233   5.821  18.035  0.00  0.00    +0.000 A 
ATOM      5  C   UNL     1       4.931   5.217  17.004  0.00  0.00    +0.000 A 
ATOM      6  N   UNL     1       4.618   4.804  15.745  0.00  0.00    +0.000 NA
ATOM      7  C   UNL     1       5.561   4.221  15.060  0.00  0.00    +0.000 A 
ATOM      8  N   UNL     1       6.848   3.973  15.498  0.00  0.00    +0.000 NA
ATOM      9  C   UNL     1       7.109   4.374  16.692  0.00  0.00    +0.000 A 
ATOM     10  N   UNL     1       6.195   5.010  17.506  0.00  0.00    +0.000 N 
ENDROOT
BRANCH   9  11
ATOM     11  O   UNL     1       8.315   4.184  17.251  0.00  0.00    +0.000 OA
ATOM     12  H   UNL     1       8.188   4.089  18.209  0.00  0.00    +0.000 HD
ENDBRANCH   9  11
BRANCH   4  13
ATOM     13  C   UNL     1       2.788   6.163  18.105  0.00  0.00    +0.000 C 
BRANCH  13  14
ATOM     14  C   UNL     1       2.060   5.007  18.745  0.00  0.00    +0.000 A 
ATOM     15  C   UNL     1       1.650   3.906  17.977  0.00  0.00    +0.000 A 
ATOM     16  C   UNL     1       1.066   2.793  18.585  0.00  0.00    +0.000 A 
ATOM     17  C   UNL     1       0.877   2.769  19.966  0.00  0.00    +0.000 A 
ATOM     18  C   UNL     1       1.256   3.866  20.738  0.00  0.00    +0.000 A 
ATOM     19  C   UNL     1       1.839   4.981  20.131  0.00  0.00    +0.000 A 
ENDBRANCH  13  14
ENDBRANCH   4  13
TORSDOF 3
ENDMDL
MODEL 4
REMARK VINA RESULT:      -7.4      0.902      2.683
REMARK  Name = 
REMARK  4 active torsions:
REMARK  status: ('A' for Active; 'I' for Inactive)
REMARK    1  A    between atoms: C_1  and  C_2
REMARK    2  A    between atoms: C_4  and  C_5
REMARK    3  A    between atoms: C_5  and  C_6
REMARK    4  A    between atoms: C_16  and  O_17
REMARK                            x       y       z     vdW  Elec       q    Type
REMARK                         _______ _______ _______ _____ _____    ______ ____
ROOT
ATOM      1  C   UNL     1       7.487   5.474  19.623  0.00  0.00    +0.000 C 
ATOM      2  C   UNL     1       6.278   5.502  18.763  0.00  0.00    +0.000 A 
ATOM      3  N   UNL     1       5.090   5.947  19.132  0.00  0.00    +0.000 NA
ATOM      4  C   UNL     1       4.259   5.780  18.038  0.00  0.00    +0.000 A 
ATOM      5  C   UNL     1       4.961   5.212  16.989  0.00  0.00    +0.000 A 
ATOM      6  N   UNL     1       4.643   4.807  15.728  0.00  0.00    +0.000 NA
ATOM      7  C   UNL     1       5.593   4.262  15.023  0.00  0.00    +0.000 A 
ATOM      8  N   UNL     1       6.893   4.048  15.438  0.00  0.00    +0.000 NA
ATOM      9  C   UNL     1       7.159   4.440  16.635  0.00  0.00    +0.000 A 
ATOM     10  N   UNL     1       6.238   5.037  17.470  0.00  0.00    +0.000 N 
ENDROOT
BRANCH   9  11
ATOM     11  O   UNL     1       8.378   4.279  17.174  0.00  0.00    +0.000 OA
ATOM     12  H   UNL     1       8.504   4.977  17.838  0.00  0.00    +0.000 HD
ENDBRANCH   9  11
BRANCH   4  13
ATOM     13  C   UNL     1       2.806   6.077  18.132  0.00  0.00    +0.000 C 
BRANCH  13  14
ATOM     14  C   UNL     1       2.124   4.896  18.780  0.00  0.00    +0.000 A 
ATOM     15  C   UNL     1       1.866   4.887  20.159  0.00  0.00    +0.000 A 
ATOM     16  C   UNL     1       1.148   3.842  20.742  0.00  0.00    +0.000 A 
ATOM     17  C   UNL     1       0.684   2.788  19.955  0.00  0.00    +0.000 A 
ATOM     18  C   UNL     1       0.955   2.772  18.588  0.00  0.00    +0.000 A 
ATOM     19  C   UNL     1       1.675   3.816  18.003  0.00  0.00    +0.000 A 
ENDBRANCH  13  14
ENDBRANCH   4  13
TORSDOF 3
ENDMDL
MODEL 5
REMARK VINA RESULT:      -7.2      2.965      5.835
REMARK  Name = 
REMARK  4 active torsions:
REMARK  status: ('A' for Active; 'I' for Inactive)
REMARK    1  A    between atoms: C_1  and  C_2
REMARK    2  A    between atoms: C_4  and  C_5
REMARK    3  A    between atoms: C_5  and  C_6
REMARK    4  A    between atoms: C_16  and  O_17
REMARK                            x       y       z     vdW  Elec       q    Type
REMARK                         _______ _______ _______ _____ _____    ______ ____
ROOT
ATOM      1  C   UNL     1       1.491   6.229  20.712  0.00  0.00    +0.000 C 
ATOM      2  C   UNL     1       2.277   5.644  19.597  0.00  0.00    +0.000 A 
ATOM      3  N   UNL     1       3.143   6.302  18.846  0.00  0.00    +0.000 NA
ATOM      4  C   UNL     1       3.632   5.387  17.930  0.00  0.00    +0.000 A 
ATOM      5  C   UNL     1       3.040   4.151  18.127  0.00  0.00    +0.000 A 
ATOM      6  N   UNL     1       3.118   2.939  17.511  0.00  0.00    +0.000 NA
ATOM      7  C   UNL     1       2.353   1.990  17.970  0.00  0.00    +0.000 A 
ATOM      8  N   UNL     1       1.461   2.101  19.020  0.00  0.00    +0.000 NA
ATOM      9  C   UNL     1       1.410   3.260  19.578  0.00  0.00    +0.000 A 
ATOM     10  N   UNL     1       2.178   4.335  19.184  0.00  0.00    +0.000 N 
ENDROOT
BRANCH   9  11
ATOM     11  O   UNL     1       0.576   3.513  20.599  0.00  0.00    +0.000 OA
ATOM     12  H   UNL     1       1.116   3.693  21.386  0.00  0.00    +0.000 HD
ENDBRANCH   9  11
BRANCH   4  13
ATOM     13  C   UNL     1       4.557   5.812  16.848  0.00  0.00    +0.000 C 
BRANCH  13  14
ATOM     14  C   UNL     1       5.883   6.169  17.474  0.00  0.00    +0.000 A 
ATOM     15  C   UNL     1       6.576   7.322  17.076  0.00  0.00    +0.000 A 
ATOM     16  C   UNL     1       7.751   7.706  17.723  0.00  0.00    +0.000 A 
ATOM     17  C   UNL     1       8.254   6.938  18.774  0.00  0.00    +0.000 A 
ATOM     18  C   UNL     1       7.590   5.777  19.163  0.00  0.00    +0.000 A 
ATOM     19  C   UNL     1       6.414   5.390  18.515  0.00  0.00    +0.000 A 
ENDBRANCH  13  14
ENDBRANCH   4  13
TORSDOF 3
ENDMDL
MODEL 6
REMARK VINA RESULT:      -7.2      1.630      3.010
REMARK  Name = 
REMARK  4 active torsions:
REMARK  status: ('A' for Active; 'I' for Inactive)
REMARK    1  A    between atoms: C_1  and  C_2
REMARK    2  A    between atoms: C_4  and  C_5
REMARK    3  A    between atoms: C_5  and  C_6
REMARK    4  A    between atoms: C_16  and  O_17
REMARK                            x       y       z     vdW  Elec       q    Type
REMARK                         _______ _______ _______ _____ _____    ______ ____
ROOT
ATOM      1  C   UNL     1       7.263   5.727  19.384  0.00  0.00    +0.000 C 
ATOM      2  C   UNL     1       6.320   4.944  18.548  0.00  0.00    +0.000 A 
ATOM      3  N   UNL     1       5.482   4.026  18.997  0.00  0.00    +0.000 NA
ATOM      4  C   UNL     1       4.809   3.543  17.889  0.00  0.00    +0.000 A 
ATOM      5  C   UNL     1       5.260   4.176  16.743  0.00  0.00    +0.000 A 
ATOM      6  N   UNL     1       4.982   4.069  15.414  0.00  0.00    +0.000 NA
ATOM      7  C   UNL     1       5.660   4.830  14.604  0.00  0.00    +0.000 A 
ATOM      8  N   UNL     1       6.643   5.731  14.966  0.00  0.00    +0.000 NA
ATOM      9  C   UNL     1       6.883   5.805  16.229  0.00  0.00    +0.000 A 
ATOM     10  N   UNL     1       6.223   5.056  17.180  0.00  0.00    +0.000 N 
ENDROOT
BRANCH   9  11
ATOM     11  O   UNL     1       7.824   6.626  16.720  0.00  0.00    +0.000 OA
ATOM     12  H   UNL     1       8.690   6.215  16.561  0.00  0.00    +0.000 HD
ENDBRANCH   9  11
BRANCH   4  13
ATOM     13  C   UNL     1       3.856   2.409  18.011  0.00  0.00    +0.000 C 
BRANCH  13  14
ATOM     14  C   UNL     1       2.917   2.704  19.155  0.00  0.00    +0.000 A 
ATOM     15  C   UNL     1       3.252   2.339  20.468  0.00  0.00    +0.000 A 
ATOM     16  C   UNL     1       2.431   2.699  21.538  0.00  0.00    +0.000 A 
ATOM     17  C   UNL     1       1.261   3.424  21.310  0.00  0.00    +0.000 A 
ATOM     18  C   UNL     1       0.904   3.771  20.008  0.00  0.00    +0.000 A 
ATOM     19  C   UNL     1       1.723   3.409  18.936  0.00  0.00    +0.000 A 
ENDBRANCH  13  14
ENDBRANCH   4  13
TORSDOF 3
ENDMDL
MODEL 7
REMARK VINA RESULT:      -7.2      1.623      2.890
REMARK  Name = 
REMARK  4 active torsions:
REMARK  status: ('A' for Active; 'I' for Inactive)
REMARK    1  A    between atoms: C_1  and  C_2
REMARK    2  A    between atoms: C_4  and  C_5
REMARK    3  A    between atoms: C_5  and  C_6
REMARK    4  A    between atoms: C_16  and  O_17
REMARK                            x       y       z     vdW  Elec       q    Type
REMARK                         _______ _______ _______ _____ _____    ______ ____
ROOT
ATOM      1  C   UNL     1       7.348   5.724  19.307  0.00  0.00    +0.000 C 
ATOM      2  C   UNL     1       6.373   4.941  18.508  0.00  0.00    +0.000 A 
ATOM      3  N   UNL     1       5.532   4.046  18.995  0.00  0.00    +0.000 NA
ATOM      4  C   UNL     1       4.824   3.553  17.913  0.00  0.00    +0.000 A 
ATOM      5  C   UNL     1       5.256   4.158  16.745  0.00  0.00    +0.000 A 
ATOM      6  N   UNL     1       4.944   4.032  15.425  0.00  0.00    +0.000 NA
ATOM      7  C   UNL     1       5.614   4.767  14.584  0.00  0.00    +0.000 A 
ATOM      8  N   UNL     1       6.620   5.658  14.906  0.00  0.00    +0.000 NA
ATOM      9  C   UNL     1       6.892   5.751  16.161  0.00  0.00    +0.000 A 
ATOM     10  N   UNL     1       6.243   5.030  17.142  0.00  0.00    +0.000 N 
ENDROOT
BRANCH   9  11
ATOM     11  O   UNL     1       7.858   6.565  16.614  0.00  0.00    +0.000 OA
ATOM     12  H   UNL     1       8.579   6.011  16.956  0.00  0.00    +0.000 HD
ENDBRANCH   9  11
BRANCH   4  13
ATOM     13  C   UNL     1       3.856   2.438  18.079  0.00  0.00    +0.000 C 
BRANCH  13  14
ATOM     14  C   UNL     1       2.945   2.773  19.235  0.00  0.00    +0.000 A 
ATOM     15  C   UNL     1       1.687   3.352  19.010  0.00  0.00    +0.000 A 
ATOM     16  C   UNL     1       0.805   3.570  20.070  0.00  0.00    +0.000 A 
ATOM     17  C   UNL     1       1.170   3.218  21.369  0.00  0.00    +0.000 A 
ATOM     18  C   UNL     1       2.427   2.664  21.610  0.00  0.00    +0.000 A 
ATOM     19  C   UNL     1       3.312   2.448  20.551  0.00  0.00    +0.000 A 
ENDBRANCH  13  14
ENDBRANCH   4  13
TORSDOF 3
ENDMDL
MODEL 8
REMARK VINA RESULT:      -7.1      1.531      2.882
REMARK  Name = 
REMARK  4 active torsions:
REMARK  status: ('A' for Active; 'I' for Inactive)
REMARK    1  A    between atoms: C_1  and  C_2
REMARK    2  A    between atoms: C_4  and  C_5
REMARK    3  A    between atoms: C_5  and  C_6
REMARK    4  A    between atoms: C_16  and  O_17
REMARK                            x       y       z     vdW  Elec       q    Type
REMARK                         _______ _______ _______ _____ _____    ______ ____
ROOT
ATOM      1  C   UNL     1       8.017   6.302  19.091  0.00  0.00    +0.000 C 
ATOM      2  C   UNL     1       6.925   5.381  18.690  0.00  0.00    +0.000 A 
ATOM      3  N   UNL     1       6.270   4.573  19.506  0.00  0.00    +0.000 NA
ATOM      4  C   UNL     1       5.356   3.892  18.721  0.00  0.00    +0.000 A 
ATOM      5  C   UNL     1       5.470   4.291  17.401  0.00  0.00    +0.000 A 
ATOM      6  N   UNL     1       4.864   3.934  16.234  0.00  0.00    +0.000 NA
ATOM      7  C   UNL     1       5.279   4.521  15.147  0.00  0.00    +0.000 A 
ATOM      8  N   UNL     1       6.283   5.467  15.066  0.00  0.00    +0.000 NA
ATOM      9  C   UNL     1       6.836   5.778  16.186  0.00  0.00    +0.000 A 
ATOM     10  N   UNL     1       6.474   5.230  17.399  0.00  0.00    +0.000 N 
ENDROOT
BRANCH   9  11
ATOM     11  O   UNL     1       7.836   6.671  16.253  0.00  0.00    +0.000 OA
ATOM     12  H   UNL     1       7.925   7.085  15.379  0.00  0.00    +0.000 HD
ENDBRANCH   9  11
BRANCH   4  13
ATOM     13  C   UNL     1       4.514   2.811  19.296  0.00  0.00    +0.000 C 
BRANCH  13  14
ATOM     14  C   UNL     1       3.163   3.392  19.632  0.00  0.00    +0.000 A 
ATOM     15  C   UNL     1       2.002   2.612  19.526  0.00  0.00    +0.000 A 
ATOM     16  C   UNL     1       0.765   3.118  19.931  0.00  0.00    +0.000 A 
ATOM     17  C   UNL     1       0.672   4.412  20.440  0.00  0.00    +0.000 A 
ATOM     18  C   UNL     1       1.813   5.208  20.527  0.00  0.00    +0.000 A 
ATOM     19  C   UNL     1       3.051   4.704  20.121  0.00  0.00    +0.000 A 
ENDBRANCH  13  14
ENDBRANCH   4  13
TORSDOF 3
ENDMDL
MODEL 9
REMARK VINA RESULT:      -7.1      1.678      1.867
REMARK  Name = 
REMARK  4 active torsions:
REMARK  status: ('A' for Active; 'I' for Inactive)
REMARK    1  A    between atoms: C_1  and  C_2
REMARK    2  A    between atoms: C_4  and  C_5
REMARK    3  A    between atoms: C_5  and  C_6
REMARK    4  A    between atoms: C_16  and  O_17
REMARK                            x       y       z     vdW  Elec       q    Type
REMARK                         _______ _______ _______ _____ _____    ______ ____
ROOT
ATOM      1  C   UNL     1       5.109   6.652  15.397  0.00  0.00    +0.000 C 
ATOM      2  C   UNL     1       5.327   5.741  16.548  0.00  0.00    +0.000 A 
ATOM      3  N   UNL     1       4.602   4.670  16.821  0.00  0.00    +0.000 NA
ATOM      4  C   UNL     1       5.137   4.127  17.976  0.00  0.00    +0.000 A 
ATOM      5  C   UNL     1       6.203   4.894  18.414  0.00  0.00    +0.000 A 
ATOM      6  N   UNL     1       7.045   4.847  19.484  0.00  0.00    +0.000 NA
ATOM      7  C   UNL     1       7.929   5.798  19.585  0.00  0.00    +0.000 A 
ATOM      8  N   UNL     1       8.087   6.857  18.712  0.00  0.00    +0.000 NA
ATOM      9  C   UNL     1       7.273   6.874  17.715  0.00  0.00    +0.000 A 
ATOM     10  N   UNL     1       6.303   5.917  17.500  0.00  0.00    +0.000 N 
ENDROOT
BRANCH   9  11
ATOM     11  O   UNL     1       7.303   7.854  16.798  0.00  0.00    +0.000 OA
ATOM     12  H   UNL     1       8.230   8.112  16.668  0.00  0.00    +0.000 HD
ENDBRANCH   9  11
BRANCH   4  13
ATOM     13  C   UNL     1       4.495   2.962  18.639  0.00  0.00    +0.000 C 
BRANCH  13  14
ATOM     14  C   UNL     1       3.177   3.417  19.218  0.00  0.00    +0.000 A 
ATOM     15  C   UNL     1       1.998   2.700  18.961  0.00  0.00    +0.000 A 
ATOM     16  C   UNL     1       0.798   3.062  19.576  0.00  0.00    +0.000 A 
ATOM     17  C   UNL     1       0.759   4.147  20.451  0.00  0.00    +0.000 A 
ATOM     18  C   UNL     1       1.918   4.883  20.695  0.00  0.00    +0.000 A 
ATOM     19  C   UNL     1       3.119   4.524  20.079  0.00  0.00    +0.000 A 
ENDBRANCH  13  14
ENDBRANCH   4  13
TORSDOF 3
ENDMDL
