MODEL 1
REMARK VINA RESULT:      -9.4      0.000      0.000
REMARK  Name = 
REMARK  9 active torsions:
REMARK  status: ('A' for Active; 'I' for Inactive)
REMARK    1  A    between atoms: C_1  and  C_2
REMARK    2  A    between atoms: C_2  and  C_3
REMARK    3  A    between atoms: C_2  and  C_4
REMARK    4  A    between atoms: C_2  and  O_5
REMARK    5  A    between atoms: O_5  and  C_6
REMARK    6  A    between atoms: N_8  and  C_9
REMARK    7  A    between atoms: C_9  and  C_10
REMARK    8  A    between atoms: C_13  and  C_14
REMARK    9  A    between atoms: C_20  and  C_21
REMARK                            x       y       z     vdW  Elec       q    Type
REMARK                         _______ _______ _______ _____ _____    ______ ____
ROOT
ATOM      1  C   UNL     1       1.016  10.339  19.291  0.00  0.00    +0.000 A 
ATOM      2  C   UNL     1       0.875   9.704  20.531  0.00  0.00    +0.000 A 
ATOM      3  C   UNL     1       1.322   8.394  20.710  0.00  0.00    +0.000 A 
ATOM      4  C   UNL     1       1.905   7.698  19.646  0.00  0.00    +0.000 A 
ATOM      5  C   UNL     1       2.094   8.346  18.419  0.00  0.00    +0.000 A 
ATOM      6  C   UNL     1       1.651   9.660  18.243  0.00  0.00    +0.000 A 
ENDROOT
BRANCH   4   7
ATOM      7  C   UNL     1       2.341   6.280  19.793  0.00  0.00    +0.000 A 
ATOM      8  C   UNL     1       1.596   5.452  20.791  0.00  0.00    +0.000 A 
ATOM      9  C   UNL     1       1.981   4.182  20.960  0.00  0.00    +0.000 A 
ATOM     10  C   UNL     1       3.052   3.672  20.192  0.00  0.00    +0.000 A 
ATOM     11  N   UNL     1       3.589   2.475  20.169  0.00  0.00    +0.000 NA
ATOM     12  C   UNL     1       4.574   2.554  19.220  0.00  0.00    +0.000 A 
ATOM     13  C   UNL     1       4.659   3.817  18.653  0.00  0.00    +0.000 A 
ATOM     14  N   UNL     1       3.652   4.531  19.287  0.00  0.00    +0.000 N 
ATOM     15  N   UNL     1       3.315   5.838  19.054  0.00  0.00    +0.000 NA
BRANCH  13  16
ATOM     16  C   UNL     1       5.553   4.331  17.609  0.00  0.00    +0.000 A 
ATOM     17  C   UNL     1       5.426   3.889  16.288  0.00  0.00    +0.000 A 
ATOM     18  C   UNL     1       6.278   4.407  15.323  0.00  0.00    +0.000 A 
ATOM     19  N   UNL     1       7.239   5.318  15.577  0.00  0.00    +0.000 NA
ATOM     20  C   UNL     1       7.357   5.723  16.857  0.00  0.00    +0.000 A 
ATOM     21  C   UNL     1       6.558   5.260  17.891  0.00  0.00    +0.000 A 
ENDBRANCH  13  16
ENDBRANCH   4   7
BRANCH   1  22
ATOM     22  C   UNL     1       0.465  11.721  19.088  0.00  0.00    +0.000 C 
BRANCH  22  25
ATOM     23  C   UNL     1      -1.784  11.837  18.247  0.00  0.00    +0.000 C 
ATOM     24  O   UNL     1      -2.237  11.768  19.382  0.00  0.00    +0.000 OA
ATOM     25  N   UNL     1      -0.447  11.818  17.983  0.00  0.00    +0.000 N 
ATOM     26  H   UNL     1      -0.133  11.877  17.023  0.00  0.00    +0.000 HD
BRANCH  23  27
ATOM     27  O   UNL     1      -2.513  11.950  17.108  0.00  0.00    +0.000 OA
BRANCH  27  29
ATOM     28  C   UNL     1      -3.051   9.590  17.576  0.00  0.00    +0.000 C 
ATOM     29  C   UNL     1      -3.349  10.827  16.715  0.00  0.00    +0.000 C 
ATOM     30  C   UNL     1      -3.216  10.533  15.212  0.00  0.00    +0.000 C 
ATOM     31  C   UNL     1      -4.803  11.247  16.987  0.00  0.00    +0.000 C 
ENDBRANCH  27  29
ENDBRANCH  23  27
ENDBRANCH  22  25
ENDBRANCH   1  22
TORSDOF 6
ENDMDL
MODEL 2
REMARK VINA RESULT:      -9.3      0.204      1.155
REMARK  Name = 
REMARK  9 active torsions:
REMARK  status: ('A' for Active; 'I' for Inactive)
REMARK    1  A    between atoms: C_1  and  C_2
REMARK    2  A    between atoms: C_2  and  C_3
REMARK    3  A    between atoms: C_2  and  C_4
REMARK    4  A    between atoms: C_2  and  O_5
REMARK    5  A    between atoms: O_5  and  C_6
REMARK    6  A    between atoms: N_8  and  C_9
REMARK    7  A    between atoms: C_9  and  C_10
REMARK    8  A    between atoms: C_13  and  C_14
REMARK    9  A    between atoms: C_20  and  C_21
REMARK                            x       y       z     vdW  Elec       q    Type
REMARK                         _______ _______ _______ _____ _____    ______ ____
ROOT
ATOM      1  C   UNL     1       0.965  10.442  19.149  0.00  0.00    +0.000 A 
ATOM      2  C   UNL     1       0.772   9.811  20.384  0.00  0.00    +0.000 A 
ATOM      3  C   UNL     1       1.232   8.510  20.593  0.00  0.00    +0.000 A 
ATOM      4  C   UNL     1       1.879   7.818  19.563  0.00  0.00    +0.000 A 
ATOM      5  C   UNL     1       2.118   8.463  18.343  0.00  0.00    +0.000 A 
ATOM      6  C   UNL     1       1.663   9.769  18.138  0.00  0.00    +0.000 A 
ENDROOT
BRANCH   4   7
ATOM      7  C   UNL     1       2.331   6.408  19.741  0.00  0.00    +0.000 A 
ATOM      8  C   UNL     1       1.607   5.599  20.769  0.00  0.00    +0.000 A 
ATOM      9  C   UNL     1       2.007   4.338  20.965  0.00  0.00    +0.000 A 
ATOM     10  C   UNL     1       3.072   3.818  20.196  0.00  0.00    +0.000 A 
ATOM     11  N   UNL     1       3.620   2.626  20.196  0.00  0.00    +0.000 NA
ATOM     12  C   UNL     1       4.592   2.690  19.232  0.00  0.00    +0.000 A 
ATOM     13  C   UNL     1       4.656   3.939  18.632  0.00  0.00    +0.000 A 
ATOM     14  N   UNL     1       3.651   4.659  19.261  0.00  0.00    +0.000 N 
ATOM     15  N   UNL     1       3.299   5.957  18.999  0.00  0.00    +0.000 NA
BRANCH  13  16
ATOM     16  C   UNL     1       5.532   4.434  17.563  0.00  0.00    +0.000 A 
ATOM     17  C   UNL     1       6.445   5.462  17.817  0.00  0.00    +0.000 A 
ATOM     18  C   UNL     1       7.268   5.896  16.788  0.00  0.00    +0.000 A 
ATOM     19  N   UNL     1       7.245   5.388  15.539  0.00  0.00    +0.000 NA
ATOM     20  C   UNL     1       6.350   4.407  15.308  0.00  0.00    +0.000 A 
ATOM     21  C   UNL     1       5.482   3.912  16.268  0.00  0.00    +0.000 A 
ENDBRANCH  13  16
ENDBRANCH   4   7
BRANCH   1  22
ATOM     22  C   UNL     1       0.402  11.813  18.911  0.00  0.00    +0.000 C 
BRANCH  22  25
ATOM     23  C   UNL     1      -1.909  11.878  18.254  0.00  0.00    +0.000 C 
ATOM     24  O   UNL     1      -2.267  11.864  19.424  0.00  0.00    +0.000 OA
ATOM     25  N   UNL     1      -0.599  11.852  17.881  0.00  0.00    +0.000 N 
ATOM     26  H   UNL     1      -0.365  11.863  16.897  0.00  0.00    +0.000 HD
BRANCH  23  27
ATOM     27  O   UNL     1      -2.731  11.932  17.174  0.00  0.00    +0.000 OA
BRANCH  27  29
ATOM     28  C   UNL     1      -5.058  11.143  17.386  0.00  0.00    +0.000 C 
ATOM     29  C   UNL     1      -3.626  10.810  16.938  0.00  0.00    +0.000 C 
ATOM     30  C   UNL     1      -3.096   9.527  17.599  0.00  0.00    +0.000 C 
ATOM     31  C   UNL     1      -3.652  10.582  15.418  0.00  0.00    +0.000 C 
ENDBRANCH  27  29
ENDBRANCH  23  27
ENDBRANCH  22  25
ENDBRANCH   1  22
TORSDOF 6
ENDMDL
MODEL 3
REMARK VINA RESULT:      -8.7      0.741      1.223
REMARK  Name = 
REMARK  9 active torsions:
REMARK  status: ('A' for Active; 'I' for Inactive)
REMARK    1  A    between atoms: C_1  and  C_2
REMARK    2  A    between atoms: C_2  and  C_3
REMARK    3  A    between atoms: C_2  and  C_4
REMARK    4  A    between atoms: C_2  and  O_5
REMARK    5  A    between atoms: O_5  and  C_6
REMARK    6  A    between atoms: N_8  and  C_9
REMARK    7  A    between atoms: C_9  and  C_10
REMARK    8  A    between atoms: C_13  and  C_14
REMARK    9  A    between atoms: C_20  and  C_21
REMARK                            x       y       z     vdW  Elec       q    Type
REMARK                         _______ _______ _______ _____ _____    ______ ____
ROOT
ATOM      1  C   UNL     1       0.715  10.314  19.748  0.00  0.00    +0.000 A 
ATOM      2  C   UNL     1       0.606   9.596  20.946  0.00  0.00    +0.000 A 
ATOM      3  C   UNL     1       1.111   8.298  21.041  0.00  0.00    +0.000 A 
ATOM      4  C   UNL     1       1.720   7.697  19.934  0.00  0.00    +0.000 A 
ATOM      5  C   UNL     1       1.876   8.429  18.751  0.00  0.00    +0.000 A 
ATOM      6  C   UNL     1       1.375   9.731  18.659  0.00  0.00    +0.000 A 
ENDROOT
BRANCH   4   7
ATOM      7  C   UNL     1       2.218   6.293  19.991  0.00  0.00    +0.000 A 
ATOM      8  C   UNL     1       1.462   5.351  20.872  0.00  0.00    +0.000 A 
ATOM      9  C   UNL     1       1.900   4.090  20.960  0.00  0.00    +0.000 A 
ATOM     10  C   UNL     1       3.036   3.696  20.217  0.00  0.00    +0.000 A 
ATOM     11  N   UNL     1       3.633   2.531  20.128  0.00  0.00    +0.000 NA
ATOM     12  C   UNL     1       4.664   2.735  19.249  0.00  0.00    +0.000 A 
ATOM     13  C   UNL     1       4.716   4.043  18.793  0.00  0.00    +0.000 A 
ATOM     14  N   UNL     1       3.641   4.655  19.422  0.00  0.00    +0.000 N 
ATOM     15  N   UNL     1       3.252   5.960  19.277  0.00  0.00    +0.000 NA
BRANCH  13  16
ATOM     16  C   UNL     1       5.640   4.684  17.849  0.00  0.00    +0.000 A 
ATOM     17  C   UNL     1       5.598   4.361  16.490  0.00  0.00    +0.000 A 
ATOM     18  C   UNL     1       6.475   4.996  15.622  0.00  0.00    +0.000 A 
ATOM     19  N   UNL     1       7.383   5.915  16.009  0.00  0.00    +0.000 NA
ATOM     20  C   UNL     1       7.420   6.205  17.324  0.00  0.00    +0.000 A 
ATOM     21  C   UNL     1       6.590   5.620  18.267  0.00  0.00    +0.000 A 
ENDBRANCH  13  16
ENDBRANCH   4   7
BRANCH   1  22
ATOM     22  C   UNL     1       0.104  11.680  19.634  0.00  0.00    +0.000 C 
BRANCH  22  25
ATOM     23  C   UNL     1      -2.008  11.897  18.505  0.00  0.00    +0.000 C 
ATOM     24  O   UNL     1      -1.443  12.113  17.442  0.00  0.00    +0.000 OA
ATOM     25  N   UNL     1      -1.332  11.671  19.667  0.00  0.00    +0.000 N 
ATOM     26  H   UNL     1      -1.855  11.500  20.516  0.00  0.00    +0.000 HD
BRANCH  23  27
ATOM     27  O   UNL     1      -3.351  11.839  18.692  0.00  0.00    +0.000 OA
BRANCH  27  29
ATOM     28  C   UNL     1      -4.175  11.489  16.395  0.00  0.00    +0.000 C 
ATOM     29  C   UNL     1      -4.124  10.954  17.835  0.00  0.00    +0.000 C 
ATOM     30  C   UNL     1      -5.527  10.708  18.411  0.00  0.00    +0.000 C 
ATOM     31  C   UNL     1      -3.380   9.609  17.808  0.00  0.00    +0.000 C 
ENDBRANCH  27  29
ENDBRANCH  23  27
ENDBRANCH  22  25
ENDBRANCH   1  22
TORSDOF 6
ENDMDL
MODEL 4
REMARK VINA RESULT:      -8.7      2.129      2.972
REMARK  Name = 
REMARK  9 active torsions:
REMARK  status: ('A' for Active; 'I' for Inactive)
REMARK    1  A    between atoms: C_1  and  C_2
REMARK    2  A    between atoms: C_2  and  C_3
REMARK    3  A    between atoms: C_2  and  C_4
REMARK    4  A    between atoms: C_2  and  O_5
REMARK    5  A    between atoms: O_5  and  C_6
REMARK    6  A    between atoms: N_8  and  C_9
REMARK    7  A    between atoms: C_9  and  C_10
REMARK    8  A    between atoms: C_13  and  C_14
REMARK    9  A    between atoms: C_20  and  C_21
REMARK                            x       y       z     vdW  Elec       q    Type
REMARK                         _______ _______ _______ _____ _____    ______ ____
ROOT
ATOM      1  C   UNL     1       1.087  10.283  19.131  0.00  0.00    +0.000 A 
ATOM      2  C   UNL     1       0.905   9.697  20.389  0.00  0.00    +0.000 A 
ATOM      3  C   UNL     1       1.319   8.385  20.626  0.00  0.00    +0.000 A 
ATOM      4  C   UNL     1       1.911   7.639  19.601  0.00  0.00    +0.000 A 
ATOM      5  C   UNL     1       2.141   8.237  18.356  0.00  0.00    +0.000 A 
ATOM      6  C   UNL     1       1.731   9.553  18.123  0.00  0.00    +0.000 A 
ENDROOT
BRANCH   4   7
ATOM      7  C   UNL     1       2.313   6.218  19.810  0.00  0.00    +0.000 A 
ATOM      8  C   UNL     1       1.553   5.454  20.846  0.00  0.00    +0.000 A 
ATOM      9  C   UNL     1       1.907   4.184  21.070  0.00  0.00    +0.000 A 
ATOM     10  C   UNL     1       2.961   3.613  20.321  0.00  0.00    +0.000 A 
ATOM     11  N   UNL     1       3.468   2.404  20.349  0.00  0.00    +0.000 NA
ATOM     12  C   UNL     1       4.451   2.416  19.394  0.00  0.00    +0.000 A 
ATOM     13  C   UNL     1       4.563   3.650  18.771  0.00  0.00    +0.000 A 
ATOM     14  N   UNL     1       3.578   4.416  19.377  0.00  0.00    +0.000 N 
ATOM     15  N   UNL     1       3.272   5.720  19.087  0.00  0.00    +0.000 NA
BRANCH  13  16
ATOM     16  C   UNL     1       5.465   4.095  17.702  0.00  0.00    +0.000 A 
ATOM     17  C   UNL     1       6.667   4.739  18.013  0.00  0.00    +0.000 A 
ATOM     18  C   UNL     1       7.504   5.132  16.978  0.00  0.00    +0.000 A 
ATOM     19  N   UNL     1       7.230   4.937  15.672  0.00  0.00    +0.000 NA
ATOM     20  C   UNL     1       6.062   4.327  15.389  0.00  0.00    +0.000 A 
ATOM     21  C   UNL     1       5.159   3.904  16.352  0.00  0.00    +0.000 A 
ENDBRANCH  13  16
ENDBRANCH   4   7
BRANCH   1  22
ATOM     22  C   UNL     1       0.571  11.667  18.866  0.00  0.00    +0.000 C 
BRANCH  22  25
ATOM     23  C   UNL     1      -0.509  12.959  20.581  0.00  0.00    +0.000 C 
ATOM     24  O   UNL     1       0.535  13.549  20.827  0.00  0.00    +0.000 OA
ATOM     25  N   UNL     1      -0.605  11.996  19.622  0.00  0.00    +0.000 N 
ATOM     26  H   UNL     1      -1.495  11.542  19.466  0.00  0.00    +0.000 HD
BRANCH  23  27
ATOM     27  O   UNL     1      -1.702  13.170  21.194  0.00  0.00    +0.000 OA
BRANCH  27  29
ATOM     28  C   UNL     1      -1.358  13.904  23.523  0.00  0.00    +0.000 C 
ATOM     29  C   UNL     1      -1.833  12.780  22.589  0.00  0.00    +0.000 C 
ATOM     30  C   UNL     1      -1.111  11.452  22.866  0.00  0.00    +0.000 C 
ATOM     31  C   UNL     1      -3.334  12.564  22.844  0.00  0.00    +0.000 C 
ENDBRANCH  27  29
ENDBRANCH  23  27
ENDBRANCH  22  25
ENDBRANCH   1  22
TORSDOF 6
ENDMDL
MODEL 5
REMARK VINA RESULT:      -8.5      2.106      2.944
REMARK  Name = 
REMARK  9 active torsions:
REMARK  status: ('A' for Active; 'I' for Inactive)
REMARK    1  A    between atoms: C_1  and  C_2
REMARK    2  A    between atoms: C_2  and  C_3
REMARK    3  A    between atoms: C_2  and  C_4
REMARK    4  A    between atoms: C_2  and  O_5
REMARK    5  A    between atoms: O_5  and  C_6
REMARK    6  A    between atoms: N_8  and  C_9
REMARK    7  A    between atoms: C_9  and  C_10
REMARK    8  A    between atoms: C_13  and  C_14
REMARK    9  A    between atoms: C_20  and  C_21
REMARK                            x       y       z     vdW  Elec       q    Type
REMARK                         _______ _______ _______ _____ _____    ______ ____
ROOT
ATOM      1  C   UNL     1       0.906  10.400  19.273  0.00  0.00    +0.000 A 
ATOM      2  C   UNL     1       0.783   9.764  20.514  0.00  0.00    +0.000 A 
ATOM      3  C   UNL     1       1.256   8.463  20.692  0.00  0.00    +0.000 A 
ATOM      4  C   UNL     1       1.848   7.777  19.627  0.00  0.00    +0.000 A 
ATOM      5  C   UNL     1       2.019   8.427  18.398  0.00  0.00    +0.000 A 
ATOM      6  C   UNL     1       1.550   9.732  18.223  0.00  0.00    +0.000 A 
ENDROOT
BRANCH   4   7
ATOM      7  C   UNL     1       2.312   6.367  19.774  0.00  0.00    +0.000 A 
ATOM      8  C   UNL     1       1.576   5.521  20.762  0.00  0.00    +0.000 A 
ATOM      9  C   UNL     1       1.985   4.259  20.931  0.00  0.00    +0.000 A 
ATOM     10  C   UNL     1       3.073   3.773  20.171  0.00  0.00    +0.000 A 
ATOM     11  N   UNL     1       3.635   2.588  20.149  0.00  0.00    +0.000 NA
ATOM     12  C   UNL     1       4.627   2.691  19.209  0.00  0.00    +0.000 A 
ATOM     13  C   UNL     1       4.690   3.957  18.646  0.00  0.00    +0.000 A 
ATOM     14  N   UNL     1       3.663   4.648  19.273  0.00  0.00    +0.000 N 
ATOM     15  N   UNL     1       3.301   5.949  19.041  0.00  0.00    +0.000 NA
BRANCH  13  16
ATOM     16  C   UNL     1       5.583   4.493  17.612  0.00  0.00    +0.000 A 
ATOM     17  C   UNL     1       5.512   4.015  16.300  0.00  0.00    +0.000 A 
ATOM     18  C   UNL     1       6.360   4.554  15.343  0.00  0.00    +0.000 A 
ATOM     19  N   UNL     1       7.266   5.519  15.598  0.00  0.00    +0.000 NA
ATOM     20  C   UNL     1       7.331   5.959  16.870  0.00  0.00    +0.000 A 
ATOM     21  C   UNL     1       6.532   5.479  17.895  0.00  0.00    +0.000 A 
ENDBRANCH  13  16
ENDBRANCH   4   7
BRANCH   1  22
ATOM     22  C   UNL     1       0.328  11.770  19.072  0.00  0.00    +0.000 C 
BRANCH  22  25
ATOM     23  C   UNL     1      -0.872  13.098  20.676  0.00  0.00    +0.000 C 
ATOM     24  O   UNL     1       0.075  13.865  20.785  0.00  0.00    +0.000 OA
ATOM     25  N   UNL     1      -0.854  12.014  19.850  0.00  0.00    +0.000 N 
ATOM     26  H   UNL     1      -1.668  11.416  19.804  0.00  0.00    +0.000 HD
BRANCH  23  27
ATOM     27  O   UNL     1      -2.058  13.206  21.329  0.00  0.00    +0.000 OA
BRANCH  27  29
ATOM     28  C   UNL     1      -3.534  12.659  23.227  0.00  0.00    +0.000 C 
ATOM     29  C   UNL     1      -2.091  12.885  22.747  0.00  0.00    +0.000 C 
ATOM     30  C   UNL     1      -1.365  13.956  23.576  0.00  0.00    +0.000 C 
ATOM     31  C   UNL     1      -1.330  11.560  22.914  0.00  0.00    +0.000 C 
ENDBRANCH  27  29
ENDBRANCH  23  27
ENDBRANCH  22  25
ENDBRANCH   1  22
TORSDOF 6
ENDMDL
MODEL 6
REMARK VINA RESULT:      -8.5      2.390      3.778
REMARK  Name = 
REMARK  9 active torsions:
REMARK  status: ('A' for Active; 'I' for Inactive)
REMARK    1  A    between atoms: C_1  and  C_2
REMARK    2  A    between atoms: C_2  and  C_3
REMARK    3  A    between atoms: C_2  and  C_4
REMARK    4  A    between atoms: C_2  and  O_5
REMARK    5  A    between atoms: O_5  and  C_6
REMARK    6  A    between atoms: N_8  and  C_9
REMARK    7  A    between atoms: C_9  and  C_10
REMARK    8  A    between atoms: C_13  and  C_14
REMARK    9  A    between atoms: C_20  and  C_21
REMARK                            x       y       z     vdW  Elec       q    Type
REMARK                         _______ _______ _______ _____ _____    ______ ____
ROOT
ATOM      1  C   UNL     1       1.157  10.342  19.059  0.00  0.00    +0.000 A 
ATOM      2  C   UNL     1       0.920   9.762  20.312  0.00  0.00    +0.000 A 
ATOM      3  C   UNL     1       1.310   8.446  20.567  0.00  0.00    +0.000 A 
ATOM      4  C   UNL     1       1.930   7.689  19.567  0.00  0.00    +0.000 A 
ATOM      5  C   UNL     1       2.213   8.281  18.330  0.00  0.00    +0.000 A 
ATOM      6  C   UNL     1       1.828   9.601  18.078  0.00  0.00    +0.000 A 
ENDROOT
BRANCH   4   7
ATOM      7  C   UNL     1       2.306   6.264  19.794  0.00  0.00    +0.000 A 
ATOM      8  C   UNL     1       1.512   5.518  20.817  0.00  0.00    +0.000 A 
ATOM      9  C   UNL     1       1.843   4.245  21.058  0.00  0.00    +0.000 A 
ATOM     10  C   UNL     1       2.905   3.654  20.337  0.00  0.00    +0.000 A 
ATOM     11  N   UNL     1       3.394   2.438  20.385  0.00  0.00    +0.000 NA
ATOM     12  C   UNL     1       4.398   2.430  19.453  0.00  0.00    +0.000 A 
ATOM     13  C   UNL     1       4.543   3.658  18.824  0.00  0.00    +0.000 A 
ATOM     14  N   UNL     1       3.555   4.442  19.402  0.00  0.00    +0.000 N 
ATOM     15  N   UNL     1       3.274   5.748  19.096  0.00  0.00    +0.000 NA
BRANCH  13  16
ATOM     16  C   UNL     1       5.475   4.082  17.773  0.00  0.00    +0.000 A 
ATOM     17  C   UNL     1       5.181   3.841  16.428  0.00  0.00    +0.000 A 
ATOM     18  C   UNL     1       6.077   4.270  15.459  0.00  0.00    +0.000 A 
ATOM     19  N   UNL     1       7.233   4.908  15.731  0.00  0.00    +0.000 NA
ATOM     20  C   UNL     1       7.508   5.121  17.033  0.00  0.00    +0.000 A 
ATOM     21  C   UNL     1       6.679   4.726  18.072  0.00  0.00    +0.000 A 
ENDBRANCH  13  16
ENDBRANCH   4   7
BRANCH   1  22
ATOM     22  C   UNL     1       0.668  11.732  18.772  0.00  0.00    +0.000 C 
BRANCH  22  25
ATOM     23  C   UNL     1       1.631  13.913  18.464  0.00  0.00    +0.000 C 
ATOM     24  O   UNL     1       0.784  14.414  19.191  0.00  0.00    +0.000 OA
ATOM     25  N   UNL     1       1.665  12.580  18.181  0.00  0.00    +0.000 N 
ATOM     26  H   UNL     1       2.389  12.224  17.571  0.00  0.00    +0.000 HD
BRANCH  23  27
ATOM     27  O   UNL     1       2.643  14.577  17.850  0.00  0.00    +0.000 OA
BRANCH  27  29
ATOM     28  C   UNL     1       3.790  14.418  20.027  0.00  0.00    +0.000 C 
ATOM     29  C   UNL     1       3.688  15.153  18.682  0.00  0.00    +0.000 C 
ATOM     30  C   UNL     1       3.484  16.666  18.862  0.00  0.00    +0.000 C 
ATOM     31  C   UNL     1       5.013  14.941  17.931  0.00  0.00    +0.000 C 
ENDBRANCH  27  29
ENDBRANCH  23  27
ENDBRANCH  22  25
ENDBRANCH   1  22
TORSDOF 6
ENDMDL
MODEL 7
REMARK VINA RESULT:      -8.4      2.060      2.975
REMARK  Name = 
REMARK  9 active torsions:
REMARK  status: ('A' for Active; 'I' for Inactive)
REMARK    1  A    between atoms: C_1  and  C_2
REMARK    2  A    between atoms: C_2  and  C_3
REMARK    3  A    between atoms: C_2  and  C_4
REMARK    4  A    between atoms: C_2  and  O_5
REMARK    5  A    between atoms: O_5  and  C_6
REMARK    6  A    between atoms: N_8  and  C_9
REMARK    7  A    between atoms: C_9  and  C_10
REMARK    8  A    between atoms: C_13  and  C_14
REMARK    9  A    between atoms: C_20  and  C_21
REMARK                            x       y       z     vdW  Elec       q    Type
REMARK                         _______ _______ _______ _____ _____    ______ ____
ROOT
ATOM      1  C   UNL     1       1.242  10.459  18.996  0.00  0.00    +0.000 A 
ATOM      2  C   UNL     1       1.757   9.673  17.957  0.00  0.00    +0.000 A 
ATOM      3  C   UNL     1       2.082   8.334  18.178  0.00  0.00    +0.000 A 
ATOM      4  C   UNL     1       1.907   7.766  19.444  0.00  0.00    +0.000 A 
ATOM      5  C   UNL     1       1.346   8.533  20.472  0.00  0.00    +0.000 A 
ATOM      6  C   UNL     1       1.015   9.873  20.248  0.00  0.00    +0.000 A 
ENDROOT
BRANCH   4   7
ATOM      7  C   UNL     1       2.298   6.354  19.722  0.00  0.00    +0.000 A 
ATOM      8  C   UNL     1       1.516   5.640  20.778  0.00  0.00    +0.000 A 
ATOM      9  C   UNL     1       1.860   4.379  21.063  0.00  0.00    +0.000 A 
ATOM     10  C   UNL     1       2.922   3.771  20.357  0.00  0.00    +0.000 A 
ATOM     11  N   UNL     1       3.421   2.561  20.446  0.00  0.00    +0.000 NA
ATOM     12  C   UNL     1       4.418   2.526  19.507  0.00  0.00    +0.000 A 
ATOM     13  C   UNL     1       4.548   3.731  18.832  0.00  0.00    +0.000 A 
ATOM     14  N   UNL     1       3.558   4.528  19.388  0.00  0.00    +0.000 N 
ATOM     15  N   UNL     1       3.265   5.820  19.036  0.00  0.00    +0.000 NA
BRANCH  13  16
ATOM     16  C   UNL     1       5.469   4.123  17.759  0.00  0.00    +0.000 A 
ATOM     17  C   UNL     1       6.665   4.783  18.060  0.00  0.00    +0.000 A 
ATOM     18  C   UNL     1       7.520   5.126  17.022  0.00  0.00    +0.000 A 
ATOM     19  N   UNL     1       7.271   4.866  15.723  0.00  0.00    +0.000 NA
ATOM     20  C   UNL     1       6.108   4.241  15.449  0.00  0.00    +0.000 A 
ATOM     21  C   UNL     1       5.188   3.865  16.415  0.00  0.00    +0.000 A 
ENDBRANCH  13  16
ENDBRANCH   4   7
BRANCH   1  22
ATOM     22  C   UNL     1       0.965  11.916  18.768  0.00  0.00    +0.000 C 
BRANCH  22  25
ATOM     23  C   UNL     1      -0.721  12.977  20.113  0.00  0.00    +0.000 C 
ATOM     24  O   UNL     1      -1.579  12.727  19.276  0.00  0.00    +0.000 OA
ATOM     25  N   UNL     1       0.585  12.621  19.961  0.00  0.00    +0.000 N 
ATOM     26  H   UNL     1       1.248  12.857  20.687  0.00  0.00    +0.000 HD
BRANCH  23  27
ATOM     27  O   UNL     1      -0.928  13.617  21.292  0.00  0.00    +0.000 OA
BRANCH  27  29
ATOM     28  C   UNL     1      -1.196  11.515  22.554  0.00  0.00    +0.000 C 
ATOM     29  C   UNL     1      -1.716  12.941  22.310  0.00  0.00    +0.000 C 
ATOM     30  C   UNL     1      -3.212  12.960  21.958  0.00  0.00    +0.000 C 
ATOM     31  C   UNL     1      -1.526  13.736  23.612  0.00  0.00    +0.000 C 
ENDBRANCH  27  29
ENDBRANCH  23  27
ENDBRANCH  22  25
ENDBRANCH   1  22
TORSDOF 6
ENDMDL
MODEL 8
REMARK VINA RESULT:      -8.4      2.489      4.067
REMARK  Name = 
REMARK  9 active torsions:
REMARK  status: ('A' for Active; 'I' for Inactive)
REMARK    1  A    between atoms: C_1  and  C_2
REMARK    2  A    between atoms: C_2  and  C_3
REMARK    3  A    between atoms: C_2  and  C_4
REMARK    4  A    between atoms: C_2  and  O_5
REMARK    5  A    between atoms: O_5  and  C_6
REMARK    6  A    between atoms: N_8  and  C_9
REMARK    7  A    between atoms: C_9  and  C_10
REMARK    8  A    between atoms: C_13  and  C_14
REMARK    9  A    between atoms: C_20  and  C_21
REMARK                            x       y       z     vdW  Elec       q    Type
REMARK                         _______ _______ _______ _____ _____    ______ ____
ROOT
ATOM      1  C   UNL     1       1.107  10.478  19.075  0.00  0.00    +0.000 A 
ATOM      2  C   UNL     1       1.690   9.762  18.022  0.00  0.00    +0.000 A 
ATOM      3  C   UNL     1       2.073   8.432  18.198  0.00  0.00    +0.000 A 
ATOM      4  C   UNL     1       1.889   7.804  19.434  0.00  0.00    +0.000 A 
ATOM      5  C   UNL     1       1.261   8.500  20.474  0.00  0.00    +0.000 A 
ATOM      6  C   UNL     1       0.873   9.830  20.295  0.00  0.00    +0.000 A 
ENDROOT
BRANCH   4   7
ATOM      7  C   UNL     1       2.339   6.401  19.666  0.00  0.00    +0.000 A 
ATOM      8  C   UNL     1       1.611   5.632  20.721  0.00  0.00    +0.000 A 
ATOM      9  C   UNL     1       2.008   4.378  20.966  0.00  0.00    +0.000 A 
ATOM     10  C   UNL     1       3.076   3.829  20.220  0.00  0.00    +0.000 A 
ATOM     11  N   UNL     1       3.622   2.637  20.266  0.00  0.00    +0.000 NA
ATOM     12  C   UNL     1       4.598   2.664  19.305  0.00  0.00    +0.000 A 
ATOM     13  C   UNL     1       4.666   3.890  18.658  0.00  0.00    +0.000 A 
ATOM     14  N   UNL     1       3.660   4.634  19.257  0.00  0.00    +0.000 N 
ATOM     15  N   UNL     1       3.309   5.922  18.945  0.00  0.00    +0.000 NA
BRANCH  13  16
ATOM     16  C   UNL     1       5.546   4.344  17.575  0.00  0.00    +0.000 A 
ATOM     17  C   UNL     1       6.561   5.270  17.831  0.00  0.00    +0.000 A 
ATOM     18  C   UNL     1       7.385   5.667  16.787  0.00  0.00    +0.000 A 
ATOM     19  N   UNL     1       7.268   5.215  15.522  0.00  0.00    +0.000 NA
ATOM     20  C   UNL     1       6.276   4.333  15.289  0.00  0.00    +0.000 A 
ATOM     21  C   UNL     1       5.400   3.883  16.264  0.00  0.00    +0.000 A 
ENDBRANCH  13  16
ENDBRANCH   4   7
BRANCH   1  22
ATOM     22  C   UNL     1       0.767  11.929  18.898  0.00  0.00    +0.000 C 
BRANCH  22  25
ATOM     23  C   UNL     1       1.833  14.037  18.450  0.00  0.00    +0.000 C 
ATOM     24  O   UNL     1       1.009  14.626  19.137  0.00  0.00    +0.000 OA
ATOM     25  N   UNL     1       1.806  12.688  18.258  0.00  0.00    +0.000 N 
ATOM     26  H   UNL     1       2.513  12.258  17.678  0.00  0.00    +0.000 HD
BRANCH  23  27
ATOM     27  O   UNL     1       2.878  14.610  17.800  0.00  0.00    +0.000 OA
BRANCH  27  29
ATOM     28  C   UNL     1       4.009  14.518  19.990  0.00  0.00    +0.000 C 
ATOM     29  C   UNL     1       3.959  15.168  18.597  0.00  0.00    +0.000 C 
ATOM     30  C   UNL     1       3.859  16.699  18.675  0.00  0.00    +0.000 C 
ATOM     31  C   UNL     1       5.267  14.815  17.870  0.00  0.00    +0.000 C 
ENDBRANCH  27  29
ENDBRANCH  23  27
ENDBRANCH  22  25
ENDBRANCH   1  22
TORSDOF 6
ENDMDL
MODEL 9
REMARK VINA RESULT:      -8.4      2.630      3.846
REMARK  Name = 
REMARK  9 active torsions:
REMARK  status: ('A' for Active; 'I' for Inactive)
REMARK    1  A    between atoms: C_1  and  C_2
REMARK    2  A    between atoms: C_2  and  C_3
REMARK    3  A    between atoms: C_2  and  C_4
REMARK    4  A    between atoms: C_2  and  O_5
REMARK    5  A    between atoms: O_5  and  C_6
REMARK    6  A    between atoms: N_8  and  C_9
REMARK    7  A    between atoms: C_9  and  C_10
REMARK    8  A    between atoms: C_13  and  C_14
REMARK    9  A    between atoms: C_20  and  C_21
REMARK                            x       y       z     vdW  Elec       q    Type
REMARK                         _______ _______ _______ _____ _____    ______ ____
ROOT
ATOM      1  C   UNL     1       0.917  10.380  19.944  0.00  0.00    +0.000 A 
ATOM      2  C   UNL     1       1.424   9.795  18.777  0.00  0.00    +0.000 A 
ATOM      3  C   UNL     1       1.836   8.462  18.776  0.00  0.00    +0.000 A 
ATOM      4  C   UNL     1       1.758   7.700  19.946  0.00  0.00    +0.000 A 
ATOM      5  C   UNL     1       1.205   8.266  21.102  0.00  0.00    +0.000 A 
ATOM      6  C   UNL     1       0.787   9.599  21.100  0.00  0.00    +0.000 A 
ENDROOT
BRANCH   4   7
ATOM      7  C   UNL     1       2.243   6.290  19.987  0.00  0.00    +0.000 A 
ATOM      8  C   UNL     1       1.477   5.346  20.858  0.00  0.00    +0.000 A 
ATOM      9  C   UNL     1       1.903   4.080  20.932  0.00  0.00    +0.000 A 
ATOM     10  C   UNL     1       3.035   3.682  20.184  0.00  0.00    +0.000 A 
ATOM     11  N   UNL     1       3.620   2.513  20.082  0.00  0.00    +0.000 NA
ATOM     12  C   UNL     1       4.652   2.716  19.204  0.00  0.00    +0.000 A 
ATOM     13  C   UNL     1       4.717   4.029  18.762  0.00  0.00    +0.000 A 
ATOM     14  N   UNL     1       3.649   4.644  19.399  0.00  0.00    +0.000 N 
ATOM     15  N   UNL     1       3.273   5.955  19.269  0.00  0.00    +0.000 NA
BRANCH  13  16
ATOM     16  C   UNL     1       5.647   4.670  17.825  0.00  0.00    +0.000 A 
ATOM     17  C   UNL     1       5.714   4.246  16.495  0.00  0.00    +0.000 A 
ATOM     18  C   UNL     1       6.593   4.884  15.631  0.00  0.00    +0.000 A 
ATOM     19  N   UNL     1       7.403   5.899  15.995  0.00  0.00    +0.000 NA
ATOM     20  C   UNL     1       7.334   6.288  17.284  0.00  0.00    +0.000 A 
ATOM     21  C   UNL     1       6.494   5.709  18.221  0.00  0.00    +0.000 A 
ENDBRANCH  13  16
ENDBRANCH   4   7
BRANCH   1  22
ATOM     22  C   UNL     1       0.546  11.834  19.954  0.00  0.00    +0.000 C 
BRANCH  22  25
ATOM     23  C   UNL     1       2.405  13.350  19.791  0.00  0.00    +0.000 C 
ATOM     24  O   UNL     1       2.574  13.309  21.002  0.00  0.00    +0.000 OA
ATOM     25  N   UNL     1       1.417  12.655  19.160  0.00  0.00    +0.000 N 
ATOM     26  H   UNL     1       1.325  12.730  18.155  0.00  0.00    +0.000 HD
BRANCH  23  27
ATOM     27  O   UNL     1       3.153  14.061  18.909  0.00  0.00    +0.000 OA
BRANCH  27  29
ATOM     28  C   UNL     1       3.909  16.195  19.885  0.00  0.00    +0.000 C 
ATOM     29  C   UNL     1       2.982  15.504  18.873  0.00  0.00    +0.000 C 
ATOM     30  C   UNL     1       1.509  15.895  19.075  0.00  0.00    +0.000 C 
ATOM     31  C   UNL     1       3.403  15.960  17.466  0.00  0.00    +0.000 C 
ENDBRANCH  27  29
ENDBRANCH  23  27
ENDBRANCH  22  25
ENDBRANCH   1  22
TORSDOF 6
ENDMDL
