MODEL 1
REMARK VINA RESULT:      -7.9      0.000      0.000
REMARK  Name = 
REMARK  5 active torsions:
REMARK  status: ('A' for Active; 'I' for Inactive)
REMARK    1  A    between atoms: C_1  and  C_2
REMARK    2  A    between atoms: N_5  and  C_6
REMARK    3  A    between atoms: C_10  and  C_11
REMARK    4  A    between atoms: N_13  and  C_14
REMARK    5  A    between atoms: N_23  and  C_24
REMARK                            x       y       z     vdW  Elec       q    Type
REMARK                         _______ _______ _______ _____ _____    ______ ____
ROOT
ATOM      1  C   UNL     1      -1.653  13.228  20.693  0.00  0.00    +0.000 C 
ATOM      2  C   UNL     1      -1.077  11.820  20.794  0.00  0.00    +0.000 C 
ATOM      3  C   UNL     1      -0.731  11.479  22.254  0.00  0.00    +0.000 C 
ATOM      4  O   UNL     1      -1.043  12.201  23.202  0.00  0.00    +0.000 OA
ATOM      5  N   UNL     1      -0.161  10.212  22.419  0.00  0.00    +0.000 N 
ATOM      6  C   UNL     1      -0.203   9.603  23.734  0.00  0.00    +0.000 C 
ATOM      7  C   UNL     1       0.478   9.558  21.320  0.00  0.00    +0.000 A 
ATOM      8  C   UNL     1       1.079   8.291  21.468  0.00  0.00    +0.000 A 
ATOM      9  C   UNL     1       1.781   7.686  20.415  0.00  0.00    +0.000 A 
ATOM     10  C   UNL     1       1.862   8.332  19.184  0.00  0.00    +0.000 A 
ATOM     11  C   UNL     1       1.254   9.588  19.028  0.00  0.00    +0.000 A 
ATOM     12  C   UNL     1       0.581  10.231  20.078  0.00  0.00    +0.000 A 
ATOM     13  N   UNL     1       0.094  11.565  19.932  0.00  0.00    +0.000 N 
ENDROOT
BRANCH  10  14
ATOM     14  C   UNL     1       2.683   7.828  18.050  0.00  0.00    +0.000 C 
ATOM     15  O   UNL     1       2.616   8.443  16.990  0.00  0.00    +0.000 OA
ATOM     16  N   UNL     1       3.399   6.658  18.265  0.00  0.00    +0.000 N 
ATOM     17  H   UNL     1       3.223   6.149  19.121  0.00  0.00    +0.000 HD
BRANCH  16  18
ATOM     18  C   UNL     1       4.173   5.987  17.281  0.00  0.00    +0.000 A 
ATOM     19  C   UNL     1       4.988   6.654  16.360  0.00  0.00    +0.000 A 
ATOM     20  C   UNL     1       5.653   5.954  15.347  0.00  0.00    +0.000 A 
ATOM     21  C   UNL     1       5.514   4.575  15.257  0.00  0.00    +0.000 A 
ATOM     22 CL   UNL     1       6.277   3.722  13.974  0.00  0.00    +0.000 Cl
ATOM     23  C   UNL     1       4.748   3.889  16.195  0.00  0.00    +0.000 A 
ATOM     24  C   UNL     1       4.089   4.591  17.214  0.00  0.00    +0.000 A 
ENDBRANCH  16  18
ENDBRANCH  10  14
BRANCH  13  25
ATOM     25  C   UNL     1       0.316  12.321  18.689  0.00  0.00    +0.000 C 
ATOM     26  C   UNL     1       0.436  13.823  18.650  0.00  0.00    +0.000 C 
ATOM     27  C   UNL     1       1.661  12.989  18.478  0.00  0.00    +0.000 C 
ENDBRANCH  13  25
TORSDOF 3
ENDMDL
MODEL 2
REMARK VINA RESULT:      -7.7      3.948      9.064
REMARK  Name = 
REMARK  5 active torsions:
REMARK  status: ('A' for Active; 'I' for Inactive)
REMARK    1  A    between atoms: C_1  and  C_2
REMARK    2  A    between atoms: N_5  and  C_6
REMARK    3  A    between atoms: C_10  and  C_11
REMARK    4  A    between atoms: N_13  and  C_14
REMARK    5  A    between atoms: N_23  and  C_24
REMARK                            x       y       z     vdW  Elec       q    Type
REMARK                         _______ _______ _______ _____ _____    ______ ____
ROOT
ATOM      1  C   UNL     1       3.604   1.905  17.844  0.00  0.00    +0.000 C 
ATOM      2  C   UNL     1       3.376   3.403  17.665  0.00  0.00    +0.000 C 
ATOM      3  C   UNL     1       4.551   4.042  16.903  0.00  0.00    +0.000 C 
ATOM      4  O   UNL     1       5.450   3.380  16.382  0.00  0.00    +0.000 OA
ATOM      5  N   UNL     1       4.429   5.425  16.733  0.00  0.00    +0.000 N 
ATOM      6  C   UNL     1       5.202   6.062  15.685  0.00  0.00    +0.000 C 
ATOM      7  C   UNL     1       3.588   6.189  17.601  0.00  0.00    +0.000 A 
ATOM      8  C   UNL     1       3.467   7.587  17.463  0.00  0.00    +0.000 A 
ATOM      9  C   UNL     1       2.711   8.349  18.366  0.00  0.00    +0.000 A 
ATOM     10  C   UNL     1       2.037   7.711  19.405  0.00  0.00    +0.000 A 
ATOM     11  C   UNL     1       2.145   6.319  19.539  0.00  0.00    +0.000 A 
ATOM     12  C   UNL     1       2.927   5.540  18.672  0.00  0.00    +0.000 A 
ATOM     13  N   UNL     1       3.130   4.148  18.915  0.00  0.00    +0.000 N 
ENDROOT
BRANCH  10  14
ATOM     14  C   UNL     1       1.313   8.445  20.479  0.00  0.00    +0.000 C 
ATOM     15  O   UNL     1       1.305   7.940  21.598  0.00  0.00    +0.000 OA
ATOM     16  N   UNL     1       0.642   9.602  20.107  0.00  0.00    +0.000 N 
ATOM     17  H   UNL     1       0.573   9.809  19.120  0.00  0.00    +0.000 HD
BRANCH  16  18
ATOM     18  C   UNL     1      -0.162  10.388  20.973  0.00  0.00    +0.000 A 
ATOM     19  C   UNL     1      -0.299  10.128  22.341  0.00  0.00    +0.000 A 
ATOM     20  C   UNL     1      -1.182  10.871  23.132  0.00  0.00    +0.000 A 
ATOM     21  C   UNL     1      -1.928  11.892  22.558  0.00  0.00    +0.000 A 
ATOM     22 CL   UNL     1      -3.061  12.763  23.513  0.00  0.00    +0.000 Cl
ATOM     23  C   UNL     1      -1.768  12.200  21.209  0.00  0.00    +0.000 A 
ATOM     24  C   UNL     1      -0.877  11.458  20.420  0.00  0.00    +0.000 A 
ENDBRANCH  16  18
ENDBRANCH  10  14
BRANCH  13  25
ATOM     25  C   UNL     1       2.556   3.493  20.102  0.00  0.00    +0.000 C 
ATOM     26  C   UNL     1       1.419   4.083  20.898  0.00  0.00    +0.000 C 
ATOM     27  C   UNL     1       1.158   2.916  20.006  0.00  0.00    +0.000 C 
ENDBRANCH  13  25
TORSDOF 3
ENDMDL
MODEL 3
REMARK VINA RESULT:      -7.6      3.888      8.866
REMARK  Name = 
REMARK  5 active torsions:
REMARK  status: ('A' for Active; 'I' for Inactive)
REMARK    1  A    between atoms: C_1  and  C_2
REMARK    2  A    between atoms: N_5  and  C_6
REMARK    3  A    between atoms: C_10  and  C_11
REMARK    4  A    between atoms: N_13  and  C_14
REMARK    5  A    between atoms: N_23  and  C_24
REMARK                            x       y       z     vdW  Elec       q    Type
REMARK                         _______ _______ _______ _____ _____    ______ ____
ROOT
ATOM      1  C   UNL     1       2.717   2.020  17.823  0.00  0.00    +0.000 C 
ATOM      2  C   UNL     1       2.905   3.502  17.515  0.00  0.00    +0.000 C 
ATOM      3  C   UNL     1       4.387   3.817  17.250  0.00  0.00    +0.000 C 
ATOM      4  O   UNL     1       5.249   2.942  17.145  0.00  0.00    +0.000 OA
ATOM      5  N   UNL     1       4.642   5.169  16.996  0.00  0.00    +0.000 N 
ATOM      6  C   UNL     1       5.870   5.522  16.311  0.00  0.00    +0.000 C 
ATOM      7  C   UNL     1       3.725   6.173  17.439  0.00  0.00    +0.000 A 
ATOM      8  C   UNL     1       3.972   7.543  17.214  0.00  0.00    +0.000 A 
ATOM      9  C   UNL     1       3.118   8.533  17.722  0.00  0.00    +0.000 A 
ATOM     10  C   UNL     1       1.983   8.159  18.438  0.00  0.00    +0.000 A 
ATOM     11  C   UNL     1       1.727   6.796  18.653  0.00  0.00    +0.000 A 
ATOM     12  C   UNL     1       2.588   5.788  18.190  0.00  0.00    +0.000 A 
ATOM     13  N   UNL     1       2.377   4.421  18.542  0.00  0.00    +0.000 N 
ENDROOT
BRANCH  10  14
ATOM     14  C   UNL     1       1.088   9.135  19.116  0.00  0.00    +0.000 C 
ATOM     15  O   UNL     1       0.355   9.814  18.404  0.00  0.00    +0.000 OA
ATOM     16  N   UNL     1       1.212   9.249  20.495  0.00  0.00    +0.000 N 
ATOM     17  H   UNL     1       1.982   8.766  20.939  0.00  0.00    +0.000 HD
BRANCH  16  18
ATOM     18  C   UNL     1       0.502  10.177  21.300  0.00  0.00    +0.000 A 
ATOM     19  C   UNL     1      -0.313   9.797  22.372  0.00  0.00    +0.000 A 
ATOM     20  C   UNL     1      -1.072  10.741  23.072  0.00  0.00    +0.000 A 
ATOM     21  C   UNL     1      -1.009  12.081  22.709  0.00  0.00    +0.000 A 
ATOM     22 CL   UNL     1      -1.988  13.234  23.525  0.00  0.00    +0.000 Cl
ATOM     23  C   UNL     1      -0.163  12.485  21.679  0.00  0.00    +0.000 A 
ATOM     24  C   UNL     1       0.600  11.537  20.984  0.00  0.00    +0.000 A 
ENDBRANCH  16  18
ENDBRANCH  10  14
BRANCH  13  25
ATOM     25  C   UNL     1       1.273   4.029  19.433  0.00  0.00    +0.000 C 
ATOM     26  C   UNL     1       1.291   2.769  20.260  0.00  0.00    +0.000 C 
ATOM     27  C   UNL     1       1.498   4.085  20.931  0.00  0.00    +0.000 C 
ENDBRANCH  13  25
TORSDOF 3
ENDMDL
MODEL 4
REMARK VINA RESULT:      -7.4      1.170      1.402
REMARK  Name = 
REMARK  5 active torsions:
REMARK  status: ('A' for Active; 'I' for Inactive)
REMARK    1  A    between atoms: C_1  and  C_2
REMARK    2  A    between atoms: N_5  and  C_6
REMARK    3  A    between atoms: C_10  and  C_11
REMARK    4  A    between atoms: N_13  and  C_14
REMARK    5  A    between atoms: N_23  and  C_24
REMARK                            x       y       z     vdW  Elec       q    Type
REMARK                         _______ _______ _______ _____ _____    ______ ____
ROOT
ATOM      1  C   UNL     1      -1.112  14.975  20.107  0.00  0.00    +0.000 C 
ATOM      2  C   UNL     1      -0.959  13.467  20.275  0.00  0.00    +0.000 C 
ATOM      3  C   UNL     1      -1.053  13.076  21.760  0.00  0.00    +0.000 C 
ATOM      4  O   UNL     1      -1.374  13.873  22.644  0.00  0.00    +0.000 OA
ATOM      5  N   UNL     1      -0.885  11.707  21.997  0.00  0.00    +0.000 N 
ATOM      6  C   UNL     1      -1.380  11.156  23.243  0.00  0.00    +0.000 C 
ATOM      7  C   UNL     1      -0.206  10.887  21.042  0.00  0.00    +0.000 A 
ATOM      8  C   UNL     1      -0.004   9.510  21.269  0.00  0.00    +0.000 A 
ATOM      9  C   UNL     1       0.736   8.722  20.375  0.00  0.00    +0.000 A 
ATOM     10  C   UNL     1       1.259   9.301  19.221  0.00  0.00    +0.000 A 
ATOM     11  C   UNL     1       1.050  10.668  18.985  0.00  0.00    +0.000 A 
ATOM     12  C   UNL     1       0.347  11.486  19.884  0.00  0.00    +0.000 A 
ATOM     13  N   UNL     1       0.269  12.898  19.688  0.00  0.00    +0.000 N 
ENDROOT
BRANCH  10  14
ATOM     14  C   UNL     1       2.155   8.577  18.280  0.00  0.00    +0.000 C 
ATOM     15  O   UNL     1       2.292   9.052  17.156  0.00  0.00    +0.000 OA
ATOM     16  N   UNL     1       2.704   7.382  18.727  0.00  0.00    +0.000 N 
ATOM     17  H   UNL     1       2.365   7.009  19.604  0.00  0.00    +0.000 HD
BRANCH  16  18
ATOM     18  C   UNL     1       3.516   6.519  17.947  0.00  0.00    +0.000 A 
ATOM     19  C   UNL     1       4.671   6.944  17.281  0.00  0.00    +0.000 A 
ATOM     20  C   UNL     1       5.381   6.078  16.443  0.00  0.00    +0.000 A 
ATOM     21  C   UNL     1       4.945   4.770  16.276  0.00  0.00    +0.000 A 
ATOM     22 CL   UNL     1       5.778   3.723  15.197  0.00  0.00    +0.000 Cl
ATOM     23  C   UNL     1       3.828   4.313  16.971  0.00  0.00    +0.000 A 
ATOM     24  C   UNL     1       3.122   5.181  17.815  0.00  0.00    +0.000 A 
ENDBRANCH  16  18
ENDBRANCH  10  14
BRANCH  13  25
ATOM     25  C   UNL     1       0.956  13.545  18.558  0.00  0.00    +0.000 C 
ATOM     26  C   UNL     1       1.645  14.881  18.670  0.00  0.00    +0.000 C 
ATOM     27  C   UNL     1       2.468  13.640  18.588  0.00  0.00    +0.000 C 
ENDBRANCH  13  25
TORSDOF 3
ENDMDL
MODEL 5
REMARK VINA RESULT:      -7.4      2.661      3.385
REMARK  Name = 
REMARK  5 active torsions:
REMARK  status: ('A' for Active; 'I' for Inactive)
REMARK    1  A    between atoms: C_1  and  C_2
REMARK    2  A    between atoms: N_5  and  C_6
REMARK    3  A    between atoms: C_10  and  C_11
REMARK    4  A    between atoms: N_13  and  C_14
REMARK    5  A    between atoms: N_23  and  C_24
REMARK                            x       y       z     vdW  Elec       q    Type
REMARK                         _______ _______ _______ _____ _____    ______ ____
ROOT
ATOM      1  C   UNL     1      -5.390  11.579  18.445  0.00  0.00    +0.000 C 
ATOM      2  C   UNL     1      -4.034  11.405  19.121  0.00  0.00    +0.000 C 
ATOM      3  C   UNL     1      -3.661  12.666  19.919  0.00  0.00    +0.000 C 
ATOM      4  O   UNL     1      -4.444  13.599  20.101  0.00  0.00    +0.000 OA
ATOM      5  N   UNL     1      -2.409  12.594  20.540  0.00  0.00    +0.000 N 
ATOM      6  C   UNL     1      -2.136  13.486  21.649  0.00  0.00    +0.000 C 
ATOM      7  C   UNL     1      -1.416  11.684  20.058  0.00  0.00    +0.000 A 
ATOM      8  C   UNL     1      -0.139  11.609  20.653  0.00  0.00    +0.000 A 
ATOM      9  C   UNL     1       0.865  10.781  20.129  0.00  0.00    +0.000 A 
ATOM     10  C   UNL     1       0.589   9.988  19.017  0.00  0.00    +0.000 A 
ATOM     11  C   UNL     1      -0.684  10.050  18.430  0.00  0.00    +0.000 A 
ATOM     12  C   UNL     1      -1.692  10.901  18.911  0.00  0.00    +0.000 A 
ATOM     13  N   UNL     1      -2.928  11.046  18.212  0.00  0.00    +0.000 N 
ENDROOT
BRANCH  10  14
ATOM     14  C   UNL     1       1.620   9.173  18.321  0.00  0.00    +0.000 C 
ATOM     15  O   UNL     1       2.122   9.648  17.306  0.00  0.00    +0.000 OA
ATOM     16  N   UNL     1       1.876   7.909  18.836  0.00  0.00    +0.000 N 
ATOM     17  H   UNL     1       1.264   7.565  19.564  0.00  0.00    +0.000 HD
BRANCH  16  18
ATOM     18  C   UNL     1       2.766   6.963  18.263  0.00  0.00    +0.000 A 
ATOM     19  C   UNL     1       3.950   7.321  17.610  0.00  0.00    +0.000 A 
ATOM     20  C   UNL     1       4.743   6.359  16.975  0.00  0.00    +0.000 A 
ATOM     21  C   UNL     1       4.359   5.024  17.000  0.00  0.00    +0.000 A 
ATOM     22 CL   UNL     1       5.296   3.849  16.166  0.00  0.00    +0.000 Cl
ATOM     23  C   UNL     1       3.211   4.642  17.689  0.00  0.00    +0.000 A 
ATOM     24  C   UNL     1       2.422   5.607  18.331  0.00  0.00    +0.000 A 
ENDBRANCH  16  18
ENDBRANCH  10  14
BRANCH  13  25
ATOM     25  C   UNL     1      -3.170  10.337  16.945  0.00  0.00    +0.000 C 
ATOM     26  C   UNL     1      -4.101  10.853  15.878  0.00  0.00    +0.000 C 
ATOM     27  C   UNL     1      -2.628  10.938  15.664  0.00  0.00    +0.000 C 
ENDBRANCH  13  25
TORSDOF 3
ENDMDL
MODEL 6
REMARK VINA RESULT:      -7.3      3.962      9.011
REMARK  Name = 
REMARK  5 active torsions:
REMARK  status: ('A' for Active; 'I' for Inactive)
REMARK    1  A    between atoms: C_1  and  C_2
REMARK    2  A    between atoms: N_5  and  C_6
REMARK    3  A    between atoms: C_10  and  C_11
REMARK    4  A    between atoms: N_13  and  C_14
REMARK    5  A    between atoms: N_23  and  C_24
REMARK                            x       y       z     vdW  Elec       q    Type
REMARK                         _______ _______ _______ _____ _____    ______ ____
ROOT
ATOM      1  C   UNL     1       3.611   1.868  18.085  0.00  0.00    +0.000 C 
ATOM      2  C   UNL     1       3.387   3.356  17.833  0.00  0.00    +0.000 C 
ATOM      3  C   UNL     1       4.558   3.952  17.033  0.00  0.00    +0.000 C 
ATOM      4  O   UNL     1       5.451   3.262  16.538  0.00  0.00    +0.000 OA
ATOM      5  N   UNL     1       4.440   5.326  16.795  0.00  0.00    +0.000 N 
ATOM      6  C   UNL     1       5.207   5.907  15.712  0.00  0.00    +0.000 C 
ATOM      7  C   UNL     1       3.608   6.135  17.632  0.00  0.00    +0.000 A 
ATOM      8  C   UNL     1       3.491   7.525  17.426  0.00  0.00    +0.000 A 
ATOM      9  C   UNL     1       2.744   8.333  18.296  0.00  0.00    +0.000 A 
ATOM     10  C   UNL     1       2.076   7.749  19.370  0.00  0.00    +0.000 A 
ATOM     11  C   UNL     1       2.180   6.365  19.571  0.00  0.00    +0.000 A 
ATOM     12  C   UNL     1       2.953   5.541  18.738  0.00  0.00    +0.000 A 
ATOM     13  N   UNL     1       3.152   4.162  19.047  0.00  0.00    +0.000 N 
ENDROOT
BRANCH  10  14
ATOM     14  C   UNL     1       1.363   8.537  20.411  0.00  0.00    +0.000 C 
ATOM     15  O   UNL     1       1.076   7.959  21.456  0.00  0.00    +0.000 OA
ATOM     16  N   UNL     1       1.014   9.841  20.084  0.00  0.00    +0.000 N 
ATOM     17  H   UNL     1       1.143  10.136  19.126  0.00  0.00    +0.000 HD
BRANCH  16  18
ATOM     18  C   UNL     1       0.266  10.714  20.916  0.00  0.00    +0.000 A 
ATOM     19  C   UNL     1       0.242  12.103  20.746  0.00  0.00    +0.000 A 
ATOM     20  C   UNL     1      -0.430  12.929  21.654  0.00  0.00    +0.000 A 
ATOM     21  C   UNL     1      -1.097  12.366  22.734  0.00  0.00    +0.000 A 
ATOM     22 CL   UNL     1      -1.869  13.383  23.886  0.00  0.00    +0.000 Cl
ATOM     23  C   UNL     1      -1.128  10.983  22.890  0.00  0.00    +0.000 A 
ATOM     24  C   UNL     1      -0.459  10.157  21.977  0.00  0.00    +0.000 A 
ENDBRANCH  16  18
ENDBRANCH  10  14
BRANCH  13  25
ATOM     25  C   UNL     1       2.585   3.569  20.269  0.00  0.00    +0.000 C 
ATOM     26  C   UNL     1       1.259   3.990  20.849  0.00  0.00    +0.000 C 
ATOM     27  C   UNL     1       1.364   2.680  20.143  0.00  0.00    +0.000 C 
ENDBRANCH  13  25
TORSDOF 3
ENDMDL
MODEL 7
REMARK VINA RESULT:      -7.3      3.913      8.795
REMARK  Name = 
REMARK  5 active torsions:
REMARK  status: ('A' for Active; 'I' for Inactive)
REMARK    1  A    between atoms: C_1  and  C_2
REMARK    2  A    between atoms: N_5  and  C_6
REMARK    3  A    between atoms: C_10  and  C_11
REMARK    4  A    between atoms: N_13  and  C_14
REMARK    5  A    between atoms: N_23  and  C_24
REMARK                            x       y       z     vdW  Elec       q    Type
REMARK                         _______ _______ _______ _____ _____    ______ ____
ROOT
ATOM      1  C   UNL     1       2.399   1.838  18.505  0.00  0.00    +0.000 C 
ATOM      2  C   UNL     1       2.675   3.250  17.998  0.00  0.00    +0.000 C 
ATOM      3  C   UNL     1       4.144   3.393  17.566  0.00  0.00    +0.000 C 
ATOM      4  O   UNL     1       4.918   2.436  17.496  0.00  0.00    +0.000 OA
ATOM      5  N   UNL     1       4.482   4.676  17.123  0.00  0.00    +0.000 N 
ATOM      6  C   UNL     1       5.660   4.832  16.293  0.00  0.00    +0.000 C 
ATOM      7  C   UNL     1       3.697   5.806  17.515  0.00  0.00    +0.000 A 
ATOM      8  C   UNL     1       4.031   7.111  17.100  0.00  0.00    +0.000 A 
ATOM      9  C   UNL     1       3.315   8.229  17.553  0.00  0.00    +0.000 A 
ATOM     10  C   UNL     1       2.229   8.048  18.407  0.00  0.00    +0.000 A 
ATOM     11  C   UNL     1       1.886   6.749  18.813  0.00  0.00    +0.000 A 
ATOM     12  C   UNL     1       2.612   5.619  18.406  0.00  0.00    +0.000 A 
ATOM     13  N   UNL     1       2.326   4.328  18.943  0.00  0.00    +0.000 N 
ENDROOT
BRANCH  10  14
ATOM     14  C   UNL     1       1.488   9.175  19.033  0.00  0.00    +0.000 C 
ATOM     15  O   UNL     1       1.697  10.301  18.591  0.00  0.00    +0.000 OA
ATOM     16  N   UNL     1       0.676   8.869  20.118  0.00  0.00    +0.000 N 
ATOM     17  H   UNL     1       0.735   7.934  20.500  0.00  0.00    +0.000 HD
BRANCH  16  18
ATOM     18  C   UNL     1      -0.043   9.819  20.888  0.00  0.00    +0.000 A 
ATOM     19  C   UNL     1      -0.616  10.974  20.343  0.00  0.00    +0.000 A 
ATOM     20  C   UNL     1      -1.229  11.930  21.161  0.00  0.00    +0.000 A 
ATOM     21  C   UNL     1      -1.284  11.729  22.534  0.00  0.00    +0.000 A 
ATOM     22 CL   UNL     1      -1.978  12.932  23.547  0.00  0.00    +0.000 Cl
ATOM     23  C   UNL     1      -0.766  10.561  23.089  0.00  0.00    +0.000 A 
ATOM     24  C   UNL     1      -0.158   9.602  22.267  0.00  0.00    +0.000 A 
ENDBRANCH  16  18
ENDBRANCH  10  14
BRANCH  13  25
ATOM     25  C   UNL     1       1.288   4.147  19.971  0.00  0.00    +0.000 C 
ATOM     26  C   UNL     1       1.148   2.887  20.786  0.00  0.00    +0.000 C 
ATOM     27  C   UNL     1       1.708   4.112  21.427  0.00  0.00    +0.000 C 
ENDBRANCH  13  25
TORSDOF 3
ENDMDL
MODEL 8
REMARK VINA RESULT:      -7.3      3.994      8.948
REMARK  Name = 
REMARK  5 active torsions:
REMARK  status: ('A' for Active; 'I' for Inactive)
REMARK    1  A    between atoms: C_1  and  C_2
REMARK    2  A    between atoms: N_5  and  C_6
REMARK    3  A    between atoms: C_10  and  C_11
REMARK    4  A    between atoms: N_13  and  C_14
REMARK    5  A    between atoms: N_23  and  C_24
REMARK                            x       y       z     vdW  Elec       q    Type
REMARK                         _______ _______ _______ _____ _____    ______ ____
ROOT
ATOM      1  C   UNL     1       2.717   2.001  18.261  0.00  0.00    +0.000 C 
ATOM      2  C   UNL     1       2.757   3.491  17.934  0.00  0.00    +0.000 C 
ATOM      3  C   UNL     1       4.115   3.875  17.322  0.00  0.00    +0.000 C 
ATOM      4  O   UNL     1       4.964   3.042  17.001  0.00  0.00    +0.000 OA
ATOM      5  N   UNL     1       4.239   5.237  17.029  0.00  0.00    +0.000 N 
ATOM      6  C   UNL     1       5.246   5.648  16.071  0.00  0.00    +0.000 C 
ATOM      7  C   UNL     1       3.412   6.197  17.693  0.00  0.00    +0.000 A 
ATOM      8  C   UNL     1       3.535   7.577  17.431  0.00  0.00    +0.000 A 
ATOM      9  C   UNL     1       2.786   8.526  18.142  0.00  0.00    +0.000 A 
ATOM     10  C   UNL     1       1.876   8.099  19.107  0.00  0.00    +0.000 A 
ATOM     11  C   UNL     1       1.742   6.726  19.362  0.00  0.00    +0.000 A 
ATOM     12  C   UNL     1       2.509   5.760  18.692  0.00  0.00    +0.000 A 
ATOM     13  N   UNL     1       2.452   4.384  19.069  0.00  0.00    +0.000 N 
ENDROOT
BRANCH  10  14
ATOM     14  C   UNL     1       1.129   9.032  19.993  0.00  0.00    +0.000 C 
ATOM     15  O   UNL     1       0.833   8.628  21.114  0.00  0.00    +0.000 OA
ATOM     16  N   UNL     1       0.763  10.257  19.451  0.00  0.00    +0.000 N 
ATOM     17  H   UNL     1       0.906  10.394  18.459  0.00  0.00    +0.000 HD
BRANCH  16  18
ATOM     18  C   UNL     1      -0.016  11.240  20.116  0.00  0.00    +0.000 A 
ATOM     19  C   UNL     1       0.460  11.998  21.192  0.00  0.00    +0.000 A 
ATOM     20  C   UNL     1      -0.380  12.882  21.878  0.00  0.00    +0.000 A 
ATOM     21  C   UNL     1      -1.703  13.023  21.481  0.00  0.00    +0.000 A 
ATOM     22 CL   UNL     1      -2.753  14.061  22.362  0.00  0.00    +0.000 Cl
ATOM     23  C   UNL     1      -2.180  12.317  20.380  0.00  0.00    +0.000 A 
ATOM     24  C   UNL     1      -1.335  11.436  19.690  0.00  0.00    +0.000 A 
ENDBRANCH  16  18
ENDBRANCH  10  14
BRANCH  13  25
ATOM     25  C   UNL     1       1.616   3.941  20.197  0.00  0.00    +0.000 C 
ATOM     26  C   UNL     1       1.780   2.600  20.865  0.00  0.00    +0.000 C 
ATOM     27  C   UNL     1       2.252   3.828  21.568  0.00  0.00    +0.000 C 
ENDBRANCH  13  25
TORSDOF 3
ENDMDL
MODEL 9
REMARK VINA RESULT:      -7.2      3.905      8.898
REMARK  Name = 
REMARK  5 active torsions:
REMARK  status: ('A' for Active; 'I' for Inactive)
REMARK    1  A    between atoms: C_1  and  C_2
REMARK    2  A    between atoms: N_5  and  C_6
REMARK    3  A    between atoms: C_10  and  C_11
REMARK    4  A    between atoms: N_13  and  C_14
REMARK    5  A    between atoms: N_23  and  C_24
REMARK                            x       y       z     vdW  Elec       q    Type
REMARK                         _______ _______ _______ _____ _____    ______ ____
ROOT
ATOM      1  C   UNL     1       2.684   1.990  17.927  0.00  0.00    +0.000 C 
ATOM      2  C   UNL     1       2.833   3.473  17.602  0.00  0.00    +0.000 C 
ATOM      3  C   UNL     1       4.269   3.786  17.146  0.00  0.00    +0.000 C 
ATOM      4  O   UNL     1       5.107   2.911  16.926  0.00  0.00    +0.000 OA
ATOM      5  N   UNL     1       4.491   5.139  16.864  0.00  0.00    +0.000 N 
ATOM      6  C   UNL     1       5.619   5.492  16.026  0.00  0.00    +0.000 C 
ATOM      7  C   UNL     1       3.642   6.143  17.427  0.00  0.00    +0.000 A 
ATOM      8  C   UNL     1       3.860   7.513  17.177  0.00  0.00    +0.000 A 
ATOM      9  C   UNL     1       3.083   8.503  17.796  0.00  0.00    +0.000 A 
ATOM     10  C   UNL     1       2.050   8.128  18.653  0.00  0.00    +0.000 A 
ATOM     11  C   UNL     1       1.822   6.765  18.896  0.00  0.00    +0.000 A 
ATOM     12  C   UNL     1       2.612   5.758  18.320  0.00  0.00    +0.000 A 
ATOM     13  N   UNL     1       2.446   4.390  18.692  0.00  0.00    +0.000 N 
ENDROOT
BRANCH  10  14
ATOM     14  C   UNL     1       1.255   9.103  19.446  0.00  0.00    +0.000 C 
ATOM     15  O   UNL     1       1.025   8.820  20.619  0.00  0.00    +0.000 OA
ATOM     16  N   UNL     1       0.774  10.218  18.772  0.00  0.00    +0.000 N 
ATOM     17  H   UNL     1       0.876  10.240  17.766  0.00  0.00    +0.000 HD
BRANCH  16  18
ATOM     18  C   UNL     1      -0.065  11.212  19.341  0.00  0.00    +0.000 A 
ATOM     19  C   UNL     1      -1.460  11.191  19.237  0.00  0.00    +0.000 A 
ATOM     20  C   UNL     1      -2.236  12.247  19.728  0.00  0.00    +0.000 A 
ATOM     21  C   UNL     1      -1.617  13.329  20.342  0.00  0.00    +0.000 A 
ATOM     22 CL   UNL     1      -2.563  14.656  20.889  0.00  0.00    +0.000 Cl
ATOM     23  C   UNL     1      -0.234  13.342  20.501  0.00  0.00    +0.000 A 
ATOM     24  C   UNL     1       0.540  12.281  20.014  0.00  0.00    +0.000 A 
ENDBRANCH  16  18
ENDBRANCH  10  14
BRANCH  13  25
ATOM     25  C   UNL     1       1.468   3.996  19.719  0.00  0.00    +0.000 C 
ATOM     26  C   UNL     1       1.570   2.714  20.504  0.00  0.00    +0.000 C 
ATOM     27  C   UNL     1       1.900   4.006  21.172  0.00  0.00    +0.000 C 
ENDBRANCH  13  25
TORSDOF 3
ENDMDL
