MODEL 1
REMARK VINA RESULT:      -7.4      0.000      0.000
REMARK  Name = 
REMARK  10 active torsions:
REMARK  status: ('A' for Active; 'I' for Inactive)
REMARK    1  A    between atoms: C_1  and  C_2
REMARK    2  A    between atoms: C_2  and  C_3
REMARK    3  A    between atoms: C_2  and  C_4
REMARK    4  A    between atoms: C_7  and  C_8
REMARK    5  A    between atoms: C_8  and  C_9
REMARK    6  A    between atoms: C_9  and  N_10
REMARK    7  A    between atoms: N_10  and  C_11
REMARK    8  A    between atoms: N_10  and  C_12
REMARK    9  A    between atoms: N_15  and  S_16
REMARK   10  A    between atoms: S_16  and  C_17
REMARK                            x       y       z     vdW  Elec       q    Type
REMARK                         _______ _______ _______ _____ _____    ______ ____
ROOT
ATOM      1  N   UNL     1       2.305   3.918  19.705  0.00  0.00    +0.000 NA
ATOM      2  C   UNL     1       1.090   3.139  19.905  0.00  0.00    +0.000 C 
ENDROOT
BRANCH   1   3
ATOM      3  C   UNL     1       3.332   3.260  18.838  0.00  0.00    +0.000 C 
ATOM      4  C   UNL     1       4.802   3.291  19.321  0.00  0.00    +0.000 C 
ATOM      5  C   UNL     1       5.692   4.368  18.707  0.00  0.00    +0.000 C 
ATOM      6  N   UNL     1       5.535   4.398  17.229  0.00  0.00    +0.000 NA
ATOM      7  C   UNL     1       4.128   4.731  16.874  0.00  0.00    +0.000 C 
ATOM      8  C   UNL     1       3.225   3.597  17.338  0.00  0.00    +0.000 C 
BRANCH   6   9
ATOM      9  S   UNL     1       6.692   5.350  16.399  0.00  0.00    +0.000 S 
ATOM     10  C   UNL     1       7.091   6.590  17.613  0.00  0.00    +0.000 C 
ATOM     11  O   UNL     1       7.879   4.547  16.202  0.00  0.00    +0.000 OA
ATOM     12  O   UNL     1       6.022   5.984  15.283  0.00  0.00    +0.000 OA
ENDBRANCH   6   9
ENDBRANCH   1   3
BRANCH   1  13
ATOM     13  C   UNL     1       2.032   5.290  19.208  0.00  0.00    +0.000 C 
BRANCH  13  14
ATOM     14  C   UNL     1       2.841   6.478  19.773  0.00  0.00    +0.000 C 
BRANCH  14  18
ATOM     15  C   UNL     1       0.423  10.006  18.961  0.00  0.00    +0.000 A 
ATOM     16  C   UNL     1       0.510   9.472  20.254  0.00  0.00    +0.000 A 
ATOM     17  C   UNL     1       1.328   8.367  20.522  0.00  0.00    +0.000 A 
ATOM     18  C   UNL     1       2.074   7.765  19.503  0.00  0.00    +0.000 A 
ATOM     19  C   UNL     1       2.008   8.305  18.216  0.00  0.00    +0.000 A 
ATOM     20  C   UNL     1       1.190   9.413  17.950  0.00  0.00    +0.000 A 
BRANCH  15  22
ATOM     21  C   UNL     1      -1.666  10.801  17.783  0.00  0.00    +0.000 C 
ATOM     22  C   UNL     1      -0.496  11.188  18.690  0.00  0.00    +0.000 C 
ATOM     23  C   UNL     1      -1.012  11.825  19.986  0.00  0.00    +0.000 C 
ENDBRANCH  15  22
ENDBRANCH  14  18
ENDBRANCH  13  14
ENDBRANCH   1  13
TORSDOF 6
ENDMDL
MODEL 2
REMARK VINA RESULT:      -7.3      3.041      4.390
REMARK  Name = 
REMARK  10 active torsions:
REMARK  status: ('A' for Active; 'I' for Inactive)
REMARK    1  A    between atoms: C_1  and  C_2
REMARK    2  A    between atoms: C_2  and  C_3
REMARK    3  A    between atoms: C_2  and  C_4
REMARK    4  A    between atoms: C_7  and  C_8
REMARK    5  A    between atoms: C_8  and  C_9
REMARK    6  A    between atoms: C_9  and  N_10
REMARK    7  A    between atoms: N_10  and  C_11
REMARK    8  A    between atoms: N_10  and  C_12
REMARK    9  A    between atoms: N_15  and  S_16
REMARK   10  A    between atoms: S_16  and  C_17
REMARK                            x       y       z     vdW  Elec       q    Type
REMARK                         _______ _______ _______ _____ _____    ______ ____
ROOT
ATOM      1  N   UNL     1       5.566   5.446  17.347  0.00  0.00    +0.000 NA
ATOM      2  C   UNL     1       6.991   5.576  17.623  0.00  0.00    +0.000 C 
ENDROOT
BRANCH   1   3
ATOM      3  C   UNL     1       4.989   4.101  17.662  0.00  0.00    +0.000 C 
ATOM      4  C   UNL     1       3.675   3.702  16.949  0.00  0.00    +0.000 C 
ATOM      5  C   UNL     1       2.389   3.892  17.747  0.00  0.00    +0.000 C 
ATOM      6  N   UNL     1       2.534   3.332  19.116  0.00  0.00    +0.000 NA
ATOM      7  C   UNL     1       3.617   4.047  19.846  0.00  0.00    +0.000 C 
ATOM      8  C   UNL     1       4.944   3.751  19.162  0.00  0.00    +0.000 C 
BRANCH   6   9
ATOM      9  S   UNL     1       1.075   3.213  20.007  0.00  0.00    +0.000 S 
ATOM     10  C   UNL     1       1.626   2.453  21.520  0.00  0.00    +0.000 C 
ATOM     11  O   UNL     1       0.639   4.553  20.337  0.00  0.00    +0.000 OA
ATOM     12  O   UNL     1       0.206   2.292  19.307  0.00  0.00    +0.000 OA
ENDBRANCH   6   9
ENDBRANCH   1   3
BRANCH   1  13
ATOM     13  C   UNL     1       4.756   6.506  17.999  0.00  0.00    +0.000 C 
BRANCH  13  14
ATOM     14  C   UNL     1       3.719   7.290  17.167  0.00  0.00    +0.000 C 
BRANCH  14  18
ATOM     15  C   UNL     1       0.928   9.143  19.947  0.00  0.00    +0.000 A 
ATOM     16  C   UNL     1       1.094   9.645  18.649  0.00  0.00    +0.000 A 
ATOM     17  C   UNL     1       1.956   9.017  17.740  0.00  0.00    +0.000 A 
ATOM     18  C   UNL     1       2.676   7.875  18.109  0.00  0.00    +0.000 A 
ATOM     19  C   UNL     1       2.499   7.358  19.395  0.00  0.00    +0.000 A 
ATOM     20  C   UNL     1       1.635   7.987  20.303  0.00  0.00    +0.000 A 
BRANCH  15  22
ATOM     21  C   UNL     1      -0.096   9.116  22.258  0.00  0.00    +0.000 C 
ATOM     22  C   UNL     1       0.010   9.861  20.925  0.00  0.00    +0.000 C 
ATOM     23  C   UNL     1       0.440  11.315  21.158  0.00  0.00    +0.000 C 
ENDBRANCH  15  22
ENDBRANCH  14  18
ENDBRANCH  13  14
ENDBRANCH   1  13
TORSDOF 6
ENDMDL
MODEL 3
REMARK VINA RESULT:      -7.3      0.862      1.430
REMARK  Name = 
REMARK  10 active torsions:
REMARK  status: ('A' for Active; 'I' for Inactive)
REMARK    1  A    between atoms: C_1  and  C_2
REMARK    2  A    between atoms: C_2  and  C_3
REMARK    3  A    between atoms: C_2  and  C_4
REMARK    4  A    between atoms: C_7  and  C_8
REMARK    5  A    between atoms: C_8  and  C_9
REMARK    6  A    between atoms: C_9  and  N_10
REMARK    7  A    between atoms: N_10  and  C_11
REMARK    8  A    between atoms: N_10  and  C_12
REMARK    9  A    between atoms: N_15  and  S_16
REMARK   10  A    between atoms: S_16  and  C_17
REMARK                            x       y       z     vdW  Elec       q    Type
REMARK                         _______ _______ _______ _____ _____    ______ ____
ROOT
ATOM      1  N   UNL     1       2.237   4.113  19.540  0.00  0.00    +0.000 NA
ATOM      2  C   UNL     1       0.964   3.432  19.733  0.00  0.00    +0.000 C 
ENDROOT
BRANCH   1   3
ATOM      3  C   UNL     1       3.279   3.300  18.838  0.00  0.00    +0.000 C 
ATOM      4  C   UNL     1       4.737   3.416  19.345  0.00  0.00    +0.000 C 
ATOM      5  C   UNL     1       5.651   4.355  18.564  0.00  0.00    +0.000 C 
ATOM      6  N   UNL     1       5.531   4.108  17.103  0.00  0.00    +0.000 NA
ATOM      7  C   UNL     1       4.136   4.374  16.655  0.00  0.00    +0.000 C 
ATOM      8  C   UNL     1       3.213   3.350  17.300  0.00  0.00    +0.000 C 
BRANCH   6   9
ATOM      9  S   UNL     1       6.717   4.884  16.139  0.00  0.00    +0.000 S 
ATOM     10  C   UNL     1       6.381   4.208  14.526  0.00  0.00    +0.000 C 
ATOM     11  O   UNL     1       6.401   6.294  16.086  0.00  0.00    +0.000 OA
ATOM     12  O   UNL     1       8.015   4.422  16.582  0.00  0.00    +0.000 OA
ENDBRANCH   6   9
ENDBRANCH   1   3
BRANCH   1  13
ATOM     13  C   UNL     1       2.087   5.428  18.867  0.00  0.00    +0.000 C 
BRANCH  13  14
ATOM     14  C   UNL     1       2.949   6.622  19.332  0.00  0.00    +0.000 C 
BRANCH  14  18
ATOM     15  C   UNL     1       0.202   9.993  19.551  0.00  0.00    +0.000 A 
ATOM     16  C   UNL     1       0.487   9.219  20.685  0.00  0.00    +0.000 A 
ATOM     17  C   UNL     1       1.409   8.166  20.623  0.00  0.00    +0.000 A 
ATOM     18  C   UNL     1       2.064   7.857  19.426  0.00  0.00    +0.000 A 
ATOM     19  C   UNL     1       1.800   8.638  18.298  0.00  0.00    +0.000 A 
ATOM     20  C   UNL     1       0.877   9.693  18.361  0.00  0.00    +0.000 A 
BRANCH  15  22
ATOM     21  C   UNL     1      -0.791  11.812  20.997  0.00  0.00    +0.000 C 
ATOM     22  C   UNL     1      -0.826  11.111  19.637  0.00  0.00    +0.000 C 
ATOM     23  C   UNL     1      -0.663  12.132  18.505  0.00  0.00    +0.000 C 
ENDBRANCH  15  22
ENDBRANCH  14  18
ENDBRANCH  13  14
ENDBRANCH   1  13
TORSDOF 6
ENDMDL
MODEL 4
REMARK VINA RESULT:      -7.3      1.259      1.612
REMARK  Name = 
REMARK  10 active torsions:
REMARK  status: ('A' for Active; 'I' for Inactive)
REMARK    1  A    between atoms: C_1  and  C_2
REMARK    2  A    between atoms: C_2  and  C_3
REMARK    3  A    between atoms: C_2  and  C_4
REMARK    4  A    between atoms: C_7  and  C_8
REMARK    5  A    between atoms: C_8  and  C_9
REMARK    6  A    between atoms: C_9  and  N_10
REMARK    7  A    between atoms: N_10  and  C_11
REMARK    8  A    between atoms: N_10  and  C_12
REMARK    9  A    between atoms: N_15  and  S_16
REMARK   10  A    between atoms: S_16  and  C_17
REMARK                            x       y       z     vdW  Elec       q    Type
REMARK                         _______ _______ _______ _____ _____    ______ ____
ROOT
ATOM      1  N   UNL     1       1.949   4.153  18.897  0.00  0.00    +0.000 NA
ATOM      2  C   UNL     1       1.132   4.363  17.710  0.00  0.00    +0.000 C 
ENDROOT
BRANCH   1   3
ATOM      3  C   UNL     1       3.218   3.397  18.655  0.00  0.00    +0.000 C 
ATOM      4  C   UNL     1       4.386   3.626  19.645  0.00  0.00    +0.000 C 
ATOM      5  C   UNL     1       5.467   4.607  19.199  0.00  0.00    +0.000 C 
ATOM      6  N   UNL     1       5.896   4.317  17.806  0.00  0.00    +0.000 NA
ATOM      7  C   UNL     1       4.744   4.474  16.876  0.00  0.00    +0.000 C 
ATOM      8  C   UNL     1       3.708   3.405  17.195  0.00  0.00    +0.000 C 
BRANCH   6   9
ATOM      9  S   UNL     1       7.304   5.148  17.295  0.00  0.00    +0.000 S 
ATOM     10  C   UNL     1       7.735   6.075  18.753  0.00  0.00    +0.000 C 
ATOM     11  O   UNL     1       8.351   4.172  17.084  0.00  0.00    +0.000 OA
ATOM     12  O   UNL     1       6.916   6.070  16.249  0.00  0.00    +0.000 OA
ENDBRANCH   6   9
ENDBRANCH   1   3
BRANCH   1  13
ATOM     13  C   UNL     1       2.246   5.415  19.620  0.00  0.00    +0.000 C 
BRANCH  13  14
ATOM     14  C   UNL     1       2.468   6.717  18.820  0.00  0.00    +0.000 C 
BRANCH  14  18
ATOM     15  C   UNL     1       0.496   9.936  20.988  0.00  0.00    +0.000 A 
ATOM     16  C   UNL     1       0.832   8.735  21.627  0.00  0.00    +0.000 A 
ATOM     17  C   UNL     1       1.511   7.720  20.940  0.00  0.00    +0.000 A 
ATOM     18  C   UNL     1       1.866   7.879  19.596  0.00  0.00    +0.000 A 
ATOM     19  C   UNL     1       1.552   9.082  18.959  0.00  0.00    +0.000 A 
ATOM     20  C   UNL     1       0.873  10.098  19.648  0.00  0.00    +0.000 A 
BRANCH  15  22
ATOM     21  C   UNL     1      -1.335  11.674  20.873  0.00  0.00    +0.000 C 
ATOM     22  C   UNL     1      -0.268  11.010  21.747  0.00  0.00    +0.000 C 
ATOM     23  C   UNL     1      -0.896  10.467  23.037  0.00  0.00    +0.000 C 
ENDBRANCH  15  22
ENDBRANCH  14  18
ENDBRANCH  13  14
ENDBRANCH   1  13
TORSDOF 6
ENDMDL
MODEL 5
REMARK VINA RESULT:      -7.2      1.106      1.593
REMARK  Name = 
REMARK  10 active torsions:
REMARK  status: ('A' for Active; 'I' for Inactive)
REMARK    1  A    between atoms: C_1  and  C_2
REMARK    2  A    between atoms: C_2  and  C_3
REMARK    3  A    between atoms: C_2  and  C_4
REMARK    4  A    between atoms: C_7  and  C_8
REMARK    5  A    between atoms: C_8  and  C_9
REMARK    6  A    between atoms: C_9  and  N_10
REMARK    7  A    between atoms: N_10  and  C_11
REMARK    8  A    between atoms: N_10  and  C_12
REMARK    9  A    between atoms: N_15  and  S_16
REMARK   10  A    between atoms: S_16  and  C_17
REMARK                            x       y       z     vdW  Elec       q    Type
REMARK                         _______ _______ _______ _____ _____    ______ ____
ROOT
ATOM      1  N   UNL     1       2.772   4.437  19.708  0.00  0.00    +0.000 NA
ATOM      2  C   UNL     1       1.463   4.064  19.189  0.00  0.00    +0.000 C 
ENDROOT
BRANCH   1   3
ATOM      3  C   UNL     1       3.919   3.686  19.108  0.00  0.00    +0.000 C 
ATOM      4  C   UNL     1       5.331   4.306  19.244  0.00  0.00    +0.000 C 
ATOM      5  C   UNL     1       5.848   5.079  18.035  0.00  0.00    +0.000 C 
ATOM      6  N   UNL     1       5.642   4.299  16.787  0.00  0.00    +0.000 NA
ATOM      7  C   UNL     1       4.189   4.058  16.570  0.00  0.00    +0.000 C 
ATOM      8  C   UNL     1       3.672   3.157  17.682  0.00  0.00    +0.000 C 
BRANCH   6   9
ATOM      9  S   UNL     1       6.444   4.919  15.406  0.00  0.00    +0.000 S 
ATOM     10  C   UNL     1       5.851   3.842  14.118  0.00  0.00    +0.000 C 
ATOM     11  O   UNL     1       5.917   6.239  15.135  0.00  0.00    +0.000 OA
ATOM     12  O   UNL     1       7.863   4.700  15.585  0.00  0.00    +0.000 OA
ENDBRANCH   6   9
ENDBRANCH   1   3
BRANCH   1  13
ATOM     13  C   UNL     1       3.029   5.897  19.624  0.00  0.00    +0.000 C 
BRANCH  13  14
ATOM     14  C   UNL     1       2.517   6.690  18.403  0.00  0.00    +0.000 C 
BRANCH  14  18
ATOM     15  C   UNL     1       0.669  10.398  19.742  0.00  0.00    +0.000 A 
ATOM     16  C   UNL     1       0.946   9.362  20.645  0.00  0.00    +0.000 A 
ATOM     17  C   UNL     1       1.586   8.190  20.220  0.00  0.00    +0.000 A 
ATOM     18  C   UNL     1       1.959   8.023  18.882  0.00  0.00    +0.000 A 
ATOM     19  C   UNL     1       1.704   9.060  17.981  0.00  0.00    +0.000 A 
ATOM     20  C   UNL     1       1.064  10.233  18.408  0.00  0.00    +0.000 A 
BRANCH  15  22
ATOM     21  C   UNL     1      -0.895  12.280  19.110  0.00  0.00    +0.000 C 
ATOM     22  C   UNL     1      -0.054  11.647  20.222  0.00  0.00    +0.000 C 
ATOM     23  C   UNL     1      -0.922  11.372  21.457  0.00  0.00    +0.000 C 
ENDBRANCH  15  22
ENDBRANCH  14  18
ENDBRANCH  13  14
ENDBRANCH   1  13
TORSDOF 6
ENDMDL
MODEL 6
REMARK VINA RESULT:      -7.2      0.824      1.380
REMARK  Name = 
REMARK  10 active torsions:
REMARK  status: ('A' for Active; 'I' for Inactive)
REMARK    1  A    between atoms: C_1  and  C_2
REMARK    2  A    between atoms: C_2  and  C_3
REMARK    3  A    between atoms: C_2  and  C_4
REMARK    4  A    between atoms: C_7  and  C_8
REMARK    5  A    between atoms: C_8  and  C_9
REMARK    6  A    between atoms: C_9  and  N_10
REMARK    7  A    between atoms: N_10  and  C_11
REMARK    8  A    between atoms: N_10  and  C_12
REMARK    9  A    between atoms: N_15  and  S_16
REMARK   10  A    between atoms: S_16  and  C_17
REMARK                            x       y       z     vdW  Elec       q    Type
REMARK                         _______ _______ _______ _____ _____    ______ ____
ROOT
ATOM      1  N   UNL     1       2.032   3.590  19.408  0.00  0.00    +0.000 NA
ATOM      2  C   UNL     1       0.792   2.869  19.150  0.00  0.00    +0.000 C 
ENDROOT
BRANCH   1   3
ATOM      3  C   UNL     1       3.243   3.002  18.754  0.00  0.00    +0.000 C 
ATOM      4  C   UNL     1       4.594   3.138  19.498  0.00  0.00    +0.000 C 
ATOM      5  C   UNL     1       5.506   4.272  19.039  0.00  0.00    +0.000 C 
ATOM      6  N   UNL     1       5.621   4.285  17.557  0.00  0.00    +0.000 NA
ATOM      7  C   UNL     1       4.284   4.517  16.945  0.00  0.00    +0.000 C 
ATOM      8  C   UNL     1       3.391   3.325  17.255  0.00  0.00    +0.000 C 
BRANCH   6   9
ATOM      9  S   UNL     1       6.843   5.313  16.937  0.00  0.00    +0.000 S 
ATOM     10  C   UNL     1       7.416   6.137  18.408  0.00  0.00    +0.000 C 
ATOM     11  O   UNL     1       7.930   4.484  16.462  0.00  0.00    +0.000 OA
ATOM     12  O   UNL     1       6.206   6.283  16.072  0.00  0.00    +0.000 OA
ENDBRANCH   6   9
ENDBRANCH   1   3
BRANCH   1  13
ATOM     13  C   UNL     1       1.935   5.034  19.080  0.00  0.00    +0.000 C 
BRANCH  13  14
ATOM     14  C   UNL     1       2.469   6.079  20.083  0.00  0.00    +0.000 C 
BRANCH  14  18
ATOM     15  C   UNL     1       1.154  10.099  19.051  0.00  0.00    +0.000 A 
ATOM     16  C   UNL     1       1.747   9.265  18.093  0.00  0.00    +0.000 A 
ATOM     17  C   UNL     1       2.124   7.954  18.415  0.00  0.00    +0.000 A 
ATOM     18  C   UNL     1       1.923   7.448  19.704  0.00  0.00    +0.000 A 
ATOM     19  C   UNL     1       1.314   8.267  20.658  0.00  0.00    +0.000 A 
ATOM     20  C   UNL     1       0.936   9.579  20.334  0.00  0.00    +0.000 A 
BRANCH  15  22
ATOM     21  C   UNL     1      -0.617  11.897  19.183  0.00  0.00    +0.000 C 
ATOM     22  C   UNL     1       0.782  11.527  18.685  0.00  0.00    +0.000 C 
ATOM     23  C   UNL     1       1.816  12.540  19.194  0.00  0.00    +0.000 C 
ENDBRANCH  15  22
ENDBRANCH  14  18
ENDBRANCH  13  14
ENDBRANCH   1  13
TORSDOF 6
ENDMDL
MODEL 7
REMARK VINA RESULT:      -7.2      1.093      1.837
REMARK  Name = 
REMARK  10 active torsions:
REMARK  status: ('A' for Active; 'I' for Inactive)
REMARK    1  A    between atoms: C_1  and  C_2
REMARK    2  A    between atoms: C_2  and  C_3
REMARK    3  A    between atoms: C_2  and  C_4
REMARK    4  A    between atoms: C_7  and  C_8
REMARK    5  A    between atoms: C_8  and  C_9
REMARK    6  A    between atoms: C_9  and  N_10
REMARK    7  A    between atoms: N_10  and  C_11
REMARK    8  A    between atoms: N_10  and  C_12
REMARK    9  A    between atoms: N_15  and  S_16
REMARK   10  A    between atoms: S_16  and  C_17
REMARK                            x       y       z     vdW  Elec       q    Type
REMARK                         _______ _______ _______ _____ _____    ______ ____
ROOT
ATOM      1  N   UNL     1       2.339   3.957  19.618  0.00  0.00    +0.000 NA
ATOM      2  C   UNL     1       1.131   4.018  18.806  0.00  0.00    +0.000 C 
ENDROOT
BRANCH   1   3
ATOM      3  C   UNL     1       3.469   3.197  18.997  0.00  0.00    +0.000 C 
ATOM      4  C   UNL     1       4.909   3.593  19.408  0.00  0.00    +0.000 C 
ATOM      5  C   UNL     1       5.654   4.515  18.448  0.00  0.00    +0.000 C 
ATOM      6  N   UNL     1       5.532   4.026  17.049  0.00  0.00    +0.000 NA
ATOM      7  C   UNL     1       4.101   4.021  16.636  0.00  0.00    +0.000 C 
ATOM      8  C   UNL     1       3.354   2.993  17.475  0.00  0.00    +0.000 C 
BRANCH   6   9
ATOM      9  S   UNL     1       6.565   4.797  15.921  0.00  0.00    +0.000 S 
ATOM     10  C   UNL     1       6.235   3.879  14.431  0.00  0.00    +0.000 C 
ATOM     11  O   UNL     1       6.077   6.143  15.710  0.00  0.00    +0.000 OA
ATOM     12  O   UNL     1       7.930   4.550  16.333  0.00  0.00    +0.000 OA
ENDBRANCH   6   9
ENDBRANCH   1   3
BRANCH   1  13
ATOM     13  C   UNL     1       2.811   5.298  20.047  0.00  0.00    +0.000 C 
BRANCH  13  14
ATOM     14  C   UNL     1       2.946   6.427  19.002  0.00  0.00    +0.000 C 
BRANCH  14  18
ATOM     15  C   UNL     1       0.666   9.907  20.283  0.00  0.00    +0.000 A 
ATOM     16  C   UNL     1       1.139   9.798  18.968  0.00  0.00    +0.000 A 
ATOM     17  C   UNL     1       1.829   8.654  18.545  0.00  0.00    +0.000 A 
ATOM     18  C   UNL     1       2.069   7.595  19.427  0.00  0.00    +0.000 A 
ATOM     19  C   UNL     1       1.582   7.690  20.734  0.00  0.00    +0.000 A 
ATOM     20  C   UNL     1       0.889   8.835  21.155  0.00  0.00    +0.000 A 
BRANCH  15  22
ATOM     21  C   UNL     1      -1.268  11.474  19.843  0.00  0.00    +0.000 C 
ATOM     22  C   UNL     1      -0.054  11.172  20.725  0.00  0.00    +0.000 C 
ATOM     23  C   UNL     1      -0.467  11.114  22.201  0.00  0.00    +0.000 C 
ENDBRANCH  15  22
ENDBRANCH  14  18
ENDBRANCH  13  14
ENDBRANCH   1  13
TORSDOF 6
ENDMDL
MODEL 8
REMARK VINA RESULT:      -7.2      1.090      1.506
REMARK  Name = 
REMARK  10 active torsions:
REMARK  status: ('A' for Active; 'I' for Inactive)
REMARK    1  A    between atoms: C_1  and  C_2
REMARK    2  A    between atoms: C_2  and  C_3
REMARK    3  A    between atoms: C_2  and  C_4
REMARK    4  A    between atoms: C_7  and  C_8
REMARK    5  A    between atoms: C_8  and  C_9
REMARK    6  A    between atoms: C_9  and  N_10
REMARK    7  A    between atoms: N_10  and  C_11
REMARK    8  A    between atoms: N_10  and  C_12
REMARK    9  A    between atoms: N_15  and  S_16
REMARK   10  A    between atoms: S_16  and  C_17
REMARK                            x       y       z     vdW  Elec       q    Type
REMARK                         _______ _______ _______ _____ _____    ______ ____
ROOT
ATOM      1  N   UNL     1       2.128   3.363  19.565  0.00  0.00    +0.000 NA
ATOM      2  C   UNL     1       0.908   2.665  19.185  0.00  0.00    +0.000 C 
ENDROOT
BRANCH   1   3
ATOM      3  C   UNL     1       3.377   2.819  18.945  0.00  0.00    +0.000 C 
ATOM      4  C   UNL     1       4.730   3.339  19.488  0.00  0.00    +0.000 C 
ATOM      5  C   UNL     1       5.402   4.446  18.681  0.00  0.00    +0.000 C 
ATOM      6  N   UNL     1       5.415   4.105  17.234  0.00  0.00    +0.000 NA
ATOM      7  C   UNL     1       4.021   3.972  16.729  0.00  0.00    +0.000 C 
ATOM      8  C   UNL     1       3.368   2.775  17.405  0.00  0.00    +0.000 C 
BRANCH   6   9
ATOM      9  S   UNL     1       6.399   5.117  16.262  0.00  0.00    +0.000 S 
ATOM     10  C   UNL     1       6.428   4.231  14.717  0.00  0.00    +0.000 C 
ATOM     11  O   UNL     1       5.684   6.353  16.032  0.00  0.00    +0.000 OA
ATOM     12  O   UNL     1       7.730   5.114  16.831  0.00  0.00    +0.000 OA
ENDBRANCH   6   9
ENDBRANCH   1   3
BRANCH   1  13
ATOM     13  C   UNL     1       2.049   4.827  19.335  0.00  0.00    +0.000 C 
BRANCH  13  14
ATOM     14  C   UNL     1       2.266   5.796  20.518  0.00  0.00    +0.000 C 
BRANCH  14  18
ATOM     15  C   UNL     1       1.165   9.765  19.110  0.00  0.00    +0.000 A 
ATOM     16  C   UNL     1       0.889   9.363  20.424  0.00  0.00    +0.000 A 
ATOM     17  C   UNL     1       1.289   8.103  20.889  0.00  0.00    +0.000 A 
ATOM     18  C   UNL     1       1.969   7.213  20.051  0.00  0.00    +0.000 A 
ATOM     19  C   UNL     1       2.266   7.617  18.746  0.00  0.00    +0.000 A 
ATOM     20  C   UNL     1       1.866   8.879  18.282  0.00  0.00    +0.000 A 
BRANCH  15  22
ATOM     21  C   UNL     1      -0.543  11.607  19.383  0.00  0.00    +0.000 C 
ATOM     22  C   UNL     1       0.693  11.126  18.620  0.00  0.00    +0.000 C 
ATOM     23  C   UNL     1       1.805  12.180  18.686  0.00  0.00    +0.000 C 
ENDBRANCH  15  22
ENDBRANCH  14  18
ENDBRANCH  13  14
ENDBRANCH   1  13
TORSDOF 6
ENDMDL
MODEL 9
REMARK VINA RESULT:      -7.1      1.004      1.840
REMARK  Name = 
REMARK  10 active torsions:
REMARK  status: ('A' for Active; 'I' for Inactive)
REMARK    1  A    between atoms: C_1  and  C_2
REMARK    2  A    between atoms: C_2  and  C_3
REMARK    3  A    between atoms: C_2  and  C_4
REMARK    4  A    between atoms: C_7  and  C_8
REMARK    5  A    between atoms: C_8  and  C_9
REMARK    6  A    between atoms: C_9  and  N_10
REMARK    7  A    between atoms: N_10  and  C_11
REMARK    8  A    between atoms: N_10  and  C_12
REMARK    9  A    between atoms: N_15  and  S_16
REMARK   10  A    between atoms: S_16  and  C_17
REMARK                            x       y       z     vdW  Elec       q    Type
REMARK                         _______ _______ _______ _____ _____    ______ ____
ROOT
ATOM      1  N   UNL     1       2.227   4.320  19.474  0.00  0.00    +0.000 NA
ATOM      2  C   UNL     1       0.967   3.642  19.746  0.00  0.00    +0.000 C 
ENDROOT
BRANCH   1   3
ATOM      3  C   UNL     1       3.295   3.445  18.895  0.00  0.00    +0.000 C 
ATOM      4  C   UNL     1       4.730   3.604  19.453  0.00  0.00    +0.000 C 
ATOM      5  C   UNL     1       5.682   4.466  18.630  0.00  0.00    +0.000 C 
ATOM      6  N   UNL     1       5.624   4.087  17.193  0.00  0.00    +0.000 NA
ATOM      7  C   UNL     1       4.251   4.313  16.662  0.00  0.00    +0.000 C 
ATOM      8  C   UNL     1       3.295   3.355  17.357  0.00  0.00    +0.000 C 
BRANCH   6   9
ATOM      9  S   UNL     1       6.855   4.770  16.216  0.00  0.00    +0.000 S 
ATOM     10  C   UNL     1       6.495   4.062  14.622  0.00  0.00    +0.000 C 
ATOM     11  O   UNL     1       6.613   6.193  16.115  0.00  0.00    +0.000 OA
ATOM     12  O   UNL     1       8.124   4.256  16.683  0.00  0.00    +0.000 OA
ENDBRANCH   6   9
ENDBRANCH   1   3
BRANCH   1  13
ATOM     13  C   UNL     1       2.057   5.530  18.630  0.00  0.00    +0.000 C 
BRANCH  13  14
ATOM     14  C   UNL     1       2.919   6.780  18.911  0.00  0.00    +0.000 C 
BRANCH  14  18
ATOM     15  C   UNL     1       0.507  10.315  19.708  0.00  0.00    +0.000 A 
ATOM     16  C   UNL     1       0.996  10.050  18.421  0.00  0.00    +0.000 A 
ATOM     17  C   UNL     1       1.730   8.886  18.157  0.00  0.00    +0.000 A 
ATOM     18  C   UNL     1       1.998   7.962  19.173  0.00  0.00    +0.000 A 
ATOM     19  C   UNL     1       1.496   8.211  20.453  0.00  0.00    +0.000 A 
ATOM     20  C   UNL     1       0.760   9.376  20.716  0.00  0.00    +0.000 A 
BRANCH  15  22
ATOM     21  C   UNL     1       0.422  12.459  21.043  0.00  0.00    +0.000 C 
ATOM     22  C   UNL     1      -0.261  11.601  19.975  0.00  0.00    +0.000 C 
ATOM     23  C   UNL     1      -0.482  12.417  18.696  0.00  0.00    +0.000 C 
ENDBRANCH  15  22
ENDBRANCH  14  18
ENDBRANCH  13  14
ENDBRANCH   1  13
TORSDOF 6
ENDMDL
