MODEL 1
REMARK VINA RESULT:      -7.9      0.000      0.000
REMARK  Name = 
REMARK  8 active torsions:
REMARK  status: ('A' for Active; 'I' for Inactive)
REMARK    1  A    between atoms: C_1  and  C_2
REMARK    2  A    between atoms: C_2  and  O_3
REMARK    3  A    between atoms: C_2  and  C_4
REMARK    4  A    between atoms: C_4  and  C_5
REMARK    5  A    between atoms: C_4  and  N_6
REMARK    6  A    between atoms: C_9  and  C_10
REMARK    7  A    between atoms: C_12  and  C_13
REMARK    8  A    between atoms: C_19  and  C_20
REMARK                            x       y       z     vdW  Elec       q    Type
REMARK                         _______ _______ _______ _____ _____    ______ ____
ROOT
ATOM      1  C   UNL     1       5.731   5.598  18.677  0.00  0.00    +0.000 A 
ATOM      2  C   UNL     1       4.908   4.511  18.895  0.00  0.00    +0.000 A 
ATOM      3  C   UNL     1       3.573   4.966  19.088  0.00  0.00    +0.000 A 
ATOM      4  C   UNL     1       3.594   6.354  18.953  0.00  0.00    +0.000 A 
ATOM      5  N   UNL     1       4.906   6.698  18.675  0.00  0.00    +0.000 N 
ATOM      6  H   UNL     1       5.217   7.650  18.523  0.00  0.00    +0.000 HD
ENDROOT
BRANCH   4   7
ATOM      7  C   UNL     1       2.535   7.371  19.033  0.00  0.00    +0.000 A 
ATOM      8  C   UNL     1       2.156   8.111  17.896  0.00  0.00    +0.000 A 
ATOM      9  C   UNL     1       1.263   9.182  17.996  0.00  0.00    +0.000 A 
ATOM     10  C   UNL     1       0.692   9.481  19.224  0.00  0.00    +0.000 A 
ATOM     11  F   UNL     1      -0.152  10.515  19.331  0.00  0.00    +0.000 F 
ATOM     12  C   UNL     1       0.987   8.719  20.347  0.00  0.00    +0.000 A 
ATOM     13  C   UNL     1       1.912   7.672  20.255  0.00  0.00    +0.000 A 
ENDBRANCH   4   7
BRANCH   1  17
ATOM     14  N   UNL     1       7.586   5.459  15.480  0.00  0.00    +0.000 NA
ATOM     15  C   UNL     1       7.209   6.736  16.102  0.00  0.00    +0.000 C 
ATOM     16  C   UNL     1       7.634   6.895  17.569  0.00  0.00    +0.000 C 
ATOM     17  C   UNL     1       7.225   5.701  18.435  0.00  0.00    +0.000 C 
ATOM     18  C   UNL     1       7.820   4.449  17.782  0.00  0.00    +0.000 C 
ATOM     19  C   UNL     1       7.344   4.286  16.336  0.00  0.00    +0.000 C 
BRANCH  14  20
ATOM     20  C   UNL     1       6.995   5.282  14.110  0.00  0.00    +0.000 C 
ATOM     21  C   UNL     1       8.036   5.404  12.975  0.00  0.00    +0.000 C 
BRANCH  20  23
ATOM     22  C   UNL     1       6.171   3.377  12.547  0.00  0.00    +0.000 C 
ATOM     23  C   UNL     1       6.167   3.954  13.961  0.00  0.00    +0.000 C 
BRANCH  23  24
ATOM     24  O   UNL     1       4.794   4.157  14.316  0.00  0.00    +0.000 OA
ATOM     25  H   UNL     1       4.667   5.111  14.453  0.00  0.00    +0.000 HD
ENDBRANCH  23  24
ENDBRANCH  20  23
ENDBRANCH  14  20
ENDBRANCH   1  17
BRANCH   3  26
ATOM     26  C   UNL     1       2.413   4.127  19.386  0.00  0.00    +0.000 A 
ATOM     27  C   UNL     1       1.665   3.584  18.336  0.00  0.00    +0.000 A 
ATOM     28  C   UNL     1       0.586   2.769  18.639  0.00  0.00    +0.000 A 
ATOM     29  N   UNL     1       0.216   2.450  19.896  0.00  0.00    +0.000 NA
ATOM     30  C   UNL     1       0.939   2.998  20.894  0.00  0.00    +0.000 A 
ATOM     31  C   UNL     1       2.013   3.851  20.693  0.00  0.00    +0.000 A 
ENDBRANCH   3  26
TORSDOF 6
ENDMDL
MODEL 2
REMARK VINA RESULT:      -7.5      3.887      7.912
REMARK  Name = 
REMARK  8 active torsions:
REMARK  status: ('A' for Active; 'I' for Inactive)
REMARK    1  A    between atoms: C_1  and  C_2
REMARK    2  A    between atoms: C_2  and  O_3
REMARK    3  A    between atoms: C_2  and  C_4
REMARK    4  A    between atoms: C_4  and  C_5
REMARK    5  A    between atoms: C_4  and  N_6
REMARK    6  A    between atoms: C_9  and  C_10
REMARK    7  A    between atoms: C_12  and  C_13
REMARK    8  A    between atoms: C_19  and  C_20
REMARK                            x       y       z     vdW  Elec       q    Type
REMARK                         _______ _______ _______ _____ _____    ______ ____
ROOT
ATOM      1  C   UNL     1       1.809   8.717  18.269  0.00  0.00    +0.000 A 
ATOM      2  C   UNL     1       1.316   7.649  18.991  0.00  0.00    +0.000 A 
ATOM      3  C   UNL     1       2.227   6.559  18.895  0.00  0.00    +0.000 A 
ATOM      4  C   UNL     1       3.303   6.997  18.122  0.00  0.00    +0.000 A 
ATOM      5  N   UNL     1       3.031   8.312  17.788  0.00  0.00    +0.000 N 
ATOM      6  H   UNL     1       3.649   8.889  17.228  0.00  0.00    +0.000 HD
ENDROOT
BRANCH   4   7
ATOM      7  C   UNL     1       4.543   6.335  17.691  0.00  0.00    +0.000 A 
ATOM      8  C   UNL     1       4.918   6.319  16.333  0.00  0.00    +0.000 A 
ATOM      9  C   UNL     1       6.010   5.564  15.895  0.00  0.00    +0.000 A 
ATOM     10  C   UNL     1       6.774   4.870  16.821  0.00  0.00    +0.000 A 
ATOM     11  F   UNL     1       7.812   4.132  16.407  0.00  0.00    +0.000 F 
ATOM     12  C   UNL     1       6.475   4.931  18.176  0.00  0.00    +0.000 A 
ATOM     13  C   UNL     1       5.358   5.655  18.610  0.00  0.00    +0.000 A 
ENDBRANCH   4   7
BRANCH   1  17
ATOM     14  N   UNL     1      -0.211  10.863  20.504  0.00  0.00    +0.000 NA
ATOM     15  C   UNL     1       1.248  11.010  20.400  0.00  0.00    +0.000 C 
ATOM     16  C   UNL     1       1.785  11.174  18.971  0.00  0.00    +0.000 C 
ATOM     17  C   UNL     1       1.253  10.106  18.013  0.00  0.00    +0.000 C 
ATOM     18  C   UNL     1      -0.277  10.167  18.079  0.00  0.00    +0.000 C 
ATOM     19  C   UNL     1      -0.791   9.951  19.505  0.00  0.00    +0.000 C 
BRANCH  14  20
ATOM     20  C   UNL     1      -0.664  10.528  21.897  0.00  0.00    +0.000 C 
ATOM     21  C   UNL     1       0.305   9.587  22.646  0.00  0.00    +0.000 C 
BRANCH  20  23
ATOM     22  C   UNL     1      -2.437  11.885  23.228  0.00  0.00    +0.000 C 
ATOM     23  C   UNL     1      -0.983  11.800  22.764  0.00  0.00    +0.000 C 
BRANCH  23  24
ATOM     24  O   UNL     1      -0.716  13.004  22.036  0.00  0.00    +0.000 OA
ATOM     25  H   UNL     1      -1.574  13.391  21.789  0.00  0.00    +0.000 HD
ENDBRANCH  23  24
ENDBRANCH  20  23
ENDBRANCH  14  20
ENDBRANCH   1  17
BRANCH   3  26
ATOM     26  C   UNL     1       2.047   5.234  19.487  0.00  0.00    +0.000 A 
ATOM     27  C   UNL     1       1.649   4.164  18.680  0.00  0.00    +0.000 A 
ATOM     28  C   UNL     1       1.511   2.911  19.255  0.00  0.00    +0.000 A 
ATOM     29  N   UNL     1       1.754   2.651  20.555  0.00  0.00    +0.000 NA
ATOM     30  C   UNL     1       2.120   3.700  21.321  0.00  0.00    +0.000 A 
ATOM     31  C   UNL     1       2.252   4.995  20.845  0.00  0.00    +0.000 A 
ENDBRANCH   3  26
TORSDOF 6
ENDMDL
MODEL 3
REMARK VINA RESULT:      -7.5      3.439      7.509
REMARK  Name = 
REMARK  8 active torsions:
REMARK  status: ('A' for Active; 'I' for Inactive)
REMARK    1  A    between atoms: C_1  and  C_2
REMARK    2  A    between atoms: C_2  and  O_3
REMARK    3  A    between atoms: C_2  and  C_4
REMARK    4  A    between atoms: C_4  and  C_5
REMARK    5  A    between atoms: C_4  and  N_6
REMARK    6  A    between atoms: C_9  and  C_10
REMARK    7  A    between atoms: C_12  and  C_13
REMARK    8  A    between atoms: C_19  and  C_20
REMARK                            x       y       z     vdW  Elec       q    Type
REMARK                         _______ _______ _______ _____ _____    ______ ____
ROOT
ATOM      1  C   UNL     1       1.888   8.334  18.048  0.00  0.00    +0.000 A 
ATOM      2  C   UNL     1       1.323   7.355  18.840  0.00  0.00    +0.000 A 
ATOM      3  C   UNL     1       2.217   6.249  18.926  0.00  0.00    +0.000 A 
ATOM      4  C   UNL     1       3.354   6.589  18.192  0.00  0.00    +0.000 A 
ATOM      5  N   UNL     1       3.133   7.865  17.702  0.00  0.00    +0.000 N 
ATOM      6  H   UNL     1       3.800   8.371  17.132  0.00  0.00    +0.000 HD
ENDROOT
BRANCH   4   7
ATOM      7  C   UNL     1       4.608   5.870  17.924  0.00  0.00    +0.000 A 
ATOM      8  C   UNL     1       5.451   5.470  18.978  0.00  0.00    +0.000 A 
ATOM      9  C   UNL     1       6.714   4.926  18.726  0.00  0.00    +0.000 A 
ATOM     10  C   UNL     1       7.117   4.718  17.416  0.00  0.00    +0.000 A 
ATOM     11  F   UNL     1       8.331   4.212  17.166  0.00  0.00    +0.000 F 
ATOM     12  C   UNL     1       6.274   5.031  16.357  0.00  0.00    +0.000 A 
ATOM     13  C   UNL     1       5.026   5.613  16.609  0.00  0.00    +0.000 A 
ENDBRANCH   4   7
BRANCH   1  17
ATOM     14  N   UNL     1       0.545  11.095  20.110  0.00  0.00    +0.000 NA
ATOM     15  C   UNL     1       1.952  11.058  19.688  0.00  0.00    +0.000 C 
ATOM     16  C   UNL     1       2.174  10.870  18.180  0.00  0.00    +0.000 C 
ATOM     17  C   UNL     1       1.378   9.693  17.607  0.00  0.00    +0.000 C 
ATOM     18  C   UNL     1      -0.092   9.933  17.962  0.00  0.00    +0.000 C 
ATOM     19  C   UNL     1      -0.296  10.068  19.473  0.00  0.00    +0.000 C 
BRANCH  14  20
ATOM     20  C   UNL     1       0.386  11.101  21.604  0.00  0.00    +0.000 C 
ATOM     21  C   UNL     1      -0.905  11.804  22.079  0.00  0.00    +0.000 C 
BRANCH  20  23
ATOM     22  C   UNL     1      -0.403   9.454  23.454  0.00  0.00    +0.000 C 
ATOM     23  C   UNL     1       0.504   9.669  22.242  0.00  0.00    +0.000 C 
BRANCH  23  24
ATOM     24  O   UNL     1       1.841   9.405  22.682  0.00  0.00    +0.000 OA
ATOM     25  H   UNL     1       1.793   8.704  23.354  0.00  0.00    +0.000 HD
ENDBRANCH  23  24
ENDBRANCH  20  23
ENDBRANCH  14  20
ENDBRANCH   1  17
BRANCH   3  26
ATOM     26  C   UNL     1       1.970   4.997  19.640  0.00  0.00    +0.000 A 
ATOM     27  C   UNL     1       1.393   3.917  18.963  0.00  0.00    +0.000 A 
ATOM     28  C   UNL     1       1.192   2.731  19.650  0.00  0.00    +0.000 A 
ATOM     29  N   UNL     1       1.535   2.544  20.941  0.00  0.00    +0.000 NA
ATOM     30  C   UNL     1       2.073   3.603  21.581  0.00  0.00    +0.000 A 
ATOM     31  C   UNL     1       2.282   4.839  20.989  0.00  0.00    +0.000 A 
ENDBRANCH   3  26
TORSDOF 6
ENDMDL
MODEL 4
REMARK VINA RESULT:      -7.5      0.978      1.468
REMARK  Name = 
REMARK  8 active torsions:
REMARK  status: ('A' for Active; 'I' for Inactive)
REMARK    1  A    between atoms: C_1  and  C_2
REMARK    2  A    between atoms: C_2  and  O_3
REMARK    3  A    between atoms: C_2  and  C_4
REMARK    4  A    between atoms: C_4  and  C_5
REMARK    5  A    between atoms: C_4  and  N_6
REMARK    6  A    between atoms: C_9  and  C_10
REMARK    7  A    between atoms: C_12  and  C_13
REMARK    8  A    between atoms: C_19  and  C_20
REMARK                            x       y       z     vdW  Elec       q    Type
REMARK                         _______ _______ _______ _____ _____    ______ ____
ROOT
ATOM      1  C   UNL     1       5.654   5.847  18.678  0.00  0.00    +0.000 A 
ATOM      2  C   UNL     1       4.878   4.720  18.865  0.00  0.00    +0.000 A 
ATOM      3  C   UNL     1       3.530   5.114  19.098  0.00  0.00    +0.000 A 
ATOM      4  C   UNL     1       3.495   6.507  19.018  0.00  0.00    +0.000 A 
ATOM      5  N   UNL     1       4.787   6.912  18.734  0.00  0.00    +0.000 N 
ATOM      6  H   UNL     1       5.059   7.881  18.615  0.00  0.00    +0.000 HD
ENDROOT
BRANCH   4   7
ATOM      7  C   UNL     1       2.399   7.477  19.156  0.00  0.00    +0.000 A 
ATOM      8  C   UNL     1       1.990   8.264  18.062  0.00  0.00    +0.000 A 
ATOM      9  C   UNL     1       1.057   9.294  18.222  0.00  0.00    +0.000 A 
ATOM     10  C   UNL     1       0.479   9.502  19.466  0.00  0.00    +0.000 A 
ATOM     11  F   UNL     1      -0.403  10.496  19.631  0.00  0.00    +0.000 F 
ATOM     12  C   UNL     1       0.805   8.690  20.544  0.00  0.00    +0.000 A 
ATOM     13  C   UNL     1       1.768   7.685  20.393  0.00  0.00    +0.000 A 
ENDBRANCH   4   7
BRANCH   1  17
ATOM     14  N   UNL     1       7.572   5.136  15.597  0.00  0.00    +0.000 NA
ATOM     15  C   UNL     1       7.080   6.485  15.908  0.00  0.00    +0.000 C 
ATOM     16  C   UNL     1       7.463   7.011  17.298  0.00  0.00    +0.000 C 
ATOM     17  C   UNL     1       7.139   6.017  18.417  0.00  0.00    +0.000 C 
ATOM     18  C   UNL     1       7.847   4.705  18.068  0.00  0.00    +0.000 C 
ATOM     19  C   UNL     1       7.413   4.174  16.700  0.00  0.00    +0.000 C 
BRANCH  14  20
ATOM     20  C   UNL     1       7.023   4.600  14.304  0.00  0.00    +0.000 C 
ATOM     21  C   UNL     1       5.485   4.453  14.307  0.00  0.00    +0.000 C 
BRANCH  20  23
ATOM     22  C   UNL     1       7.438   4.628  11.739  0.00  0.00    +0.000 C 
ATOM     23  C   UNL     1       7.499   5.415  13.047  0.00  0.00    +0.000 C 
BRANCH  23  24
ATOM     24  O   UNL     1       8.854   5.853  13.196  0.00  0.00    +0.000 OA
ATOM     25  H   UNL     1       9.391   5.070  13.410  0.00  0.00    +0.000 HD
ENDBRANCH  23  24
ENDBRANCH  20  23
ENDBRANCH  14  20
ENDBRANCH   1  17
BRANCH   3  26
ATOM     26  C   UNL     1       2.409   4.219  19.380  0.00  0.00    +0.000 A 
ATOM     27  C   UNL     1       2.057   3.947  20.705  0.00  0.00    +0.000 A 
ATOM     28  C   UNL     1       0.975   3.117  20.951  0.00  0.00    +0.000 A 
ATOM     29  N   UNL     1       0.220   2.561  19.982  0.00  0.00    +0.000 NA
ATOM     30  C   UNL     1       0.587   2.821  18.709  0.00  0.00    +0.000 A 
ATOM     31  C   UNL     1       1.673   3.610  18.364  0.00  0.00    +0.000 A 
ENDBRANCH   3  26
TORSDOF 6
ENDMDL
MODEL 5
REMARK VINA RESULT:      -7.5      3.643      7.348
REMARK  Name = 
REMARK  8 active torsions:
REMARK  status: ('A' for Active; 'I' for Inactive)
REMARK    1  A    between atoms: C_1  and  C_2
REMARK    2  A    between atoms: C_2  and  O_3
REMARK    3  A    between atoms: C_2  and  C_4
REMARK    4  A    between atoms: C_4  and  C_5
REMARK    5  A    between atoms: C_4  and  N_6
REMARK    6  A    between atoms: C_9  and  C_10
REMARK    7  A    between atoms: C_12  and  C_13
REMARK    8  A    between atoms: C_19  and  C_20
REMARK                            x       y       z     vdW  Elec       q    Type
REMARK                         _______ _______ _______ _____ _____    ______ ____
ROOT
ATOM      1  C   UNL     1       1.550   8.596  19.939  0.00  0.00    +0.000 A 
ATOM      2  C   UNL     1       1.261   7.449  20.651  0.00  0.00    +0.000 A 
ATOM      3  C   UNL     1       1.874   6.335  20.010  0.00  0.00    +0.000 A 
ATOM      4  C   UNL     1       2.570   6.832  18.908  0.00  0.00    +0.000 A 
ATOM      5  N   UNL     1       2.377   8.203  18.914  0.00  0.00    +0.000 N 
ATOM      6  H   UNL     1       2.775   8.829  18.224  0.00  0.00    +0.000 HD
ENDROOT
BRANCH   4   7
ATOM      7  C   UNL     1       3.397   6.178  17.884  0.00  0.00    +0.000 A 
ATOM      8  C   UNL     1       3.319   4.788  17.673  0.00  0.00    +0.000 A 
ATOM      9  C   UNL     1       4.209   4.137  16.812  0.00  0.00    +0.000 A 
ATOM     10  C   UNL     1       5.141   4.882  16.106  0.00  0.00    +0.000 A 
ATOM     11  F   UNL     1       6.007   4.265  15.291  0.00  0.00    +0.000 F 
ATOM     12  C   UNL     1       5.189   6.265  16.234  0.00  0.00    +0.000 A 
ATOM     13  C   UNL     1       4.325   6.911  17.127  0.00  0.00    +0.000 A 
ENDBRANCH   4   7
BRANCH   1  17
ATOM     14  N   UNL     1      -1.219  10.492  18.384  0.00  0.00    +0.000 NA
ATOM     15  C   UNL     1      -1.360   9.858  19.702  0.00  0.00    +0.000 C 
ATOM     16  C   UNL     1      -0.266  10.218  20.717  0.00  0.00    +0.000 C 
ATOM     17  C   UNL     1       1.147  10.043  20.151  0.00  0.00    +0.000 C 
ATOM     18  C   UNL     1       1.225  10.887  18.875  0.00  0.00    +0.000 C 
ATOM     19  C   UNL     1       0.156  10.477  17.859  0.00  0.00    +0.000 C 
BRANCH  14  20
ATOM     20  C   UNL     1      -2.207   9.971  17.379  0.00  0.00    +0.000 C 
ATOM     21  C   UNL     1      -3.468   9.354  18.024  0.00  0.00    +0.000 C 
BRANCH  20  23
ATOM     22  C   UNL     1      -4.063  11.491  16.378  0.00  0.00    +0.000 C 
ATOM     23  C   UNL     1      -2.606  11.037  16.295  0.00  0.00    +0.000 C 
BRANCH  23  24
ATOM     24  O   UNL     1      -2.412  10.528  14.971  0.00  0.00    +0.000 OA
ATOM     25  H   UNL     1      -2.410   9.557  15.029  0.00  0.00    +0.000 HD
ENDBRANCH  23  24
ENDBRANCH  20  23
ENDBRANCH  14  20
ENDBRANCH   1  17
BRANCH   3  26
ATOM     26  C   UNL     1       1.773   4.938  20.432  0.00  0.00    +0.000 A 
ATOM     27  C   UNL     1       0.846   4.094  19.812  0.00  0.00    +0.000 A 
ATOM     28  C   UNL     1       0.785   2.767  20.207  0.00  0.00    +0.000 A 
ATOM     29  N   UNL     1       1.581   2.228  21.151  0.00  0.00    +0.000 NA
ATOM     30  C   UNL     1       2.457   3.062  21.750  0.00  0.00    +0.000 A 
ATOM     31  C   UNL     1       2.569   4.410  21.447  0.00  0.00    +0.000 A 
ENDBRANCH   3  26
TORSDOF 6
ENDMDL
MODEL 6
REMARK VINA RESULT:      -7.5      3.613      7.605
REMARK  Name = 
REMARK  8 active torsions:
REMARK  status: ('A' for Active; 'I' for Inactive)
REMARK    1  A    between atoms: C_1  and  C_2
REMARK    2  A    between atoms: C_2  and  O_3
REMARK    3  A    between atoms: C_2  and  C_4
REMARK    4  A    between atoms: C_4  and  C_5
REMARK    5  A    between atoms: C_4  and  N_6
REMARK    6  A    between atoms: C_9  and  C_10
REMARK    7  A    between atoms: C_12  and  C_13
REMARK    8  A    between atoms: C_19  and  C_20
REMARK                            x       y       z     vdW  Elec       q    Type
REMARK                         _______ _______ _______ _____ _____    ______ ____
ROOT
ATOM      1  C   UNL     1       1.785   8.705  18.107  0.00  0.00    +0.000 A 
ATOM      2  C   UNL     1       1.281   7.656  18.850  0.00  0.00    +0.000 A 
ATOM      3  C   UNL     1       2.208   6.575  18.820  0.00  0.00    +0.000 A 
ATOM      4  C   UNL     1       3.303   7.000  18.069  0.00  0.00    +0.000 A 
ATOM      5  N   UNL     1       3.027   8.300  17.680  0.00  0.00    +0.000 N 
ATOM      6  H   UNL     1       3.656   8.865  17.122  0.00  0.00    +0.000 HD
ENDROOT
BRANCH   4   7
ATOM      7  C   UNL     1       4.565   6.341  17.700  0.00  0.00    +0.000 A 
ATOM      8  C   UNL     1       5.009   6.327  16.364  0.00  0.00    +0.000 A 
ATOM      9  C   UNL     1       6.123   5.573  15.981  0.00  0.00    +0.000 A 
ATOM     10  C   UNL     1       6.839   4.879  16.944  0.00  0.00    +0.000 A 
ATOM     11  F   UNL     1       7.898   4.142  16.584  0.00  0.00    +0.000 F 
ATOM     12  C   UNL     1       6.471   4.938  18.283  0.00  0.00    +0.000 A 
ATOM     13  C   UNL     1       5.332   5.660  18.659  0.00  0.00    +0.000 A 
ENDBRANCH   4   7
BRANCH   1  17
ATOM     14  N   UNL     1       0.220  11.168  20.379  0.00  0.00    +0.000 NA
ATOM     15  C   UNL     1       1.642  11.244  20.016  0.00  0.00    +0.000 C 
ATOM     16  C   UNL     1       1.930  11.225  18.509  0.00  0.00    +0.000 C 
ATOM     17  C   UNL     1       1.221  10.076  17.786  0.00  0.00    +0.000 C 
ATOM     18  C   UNL     1      -0.273  10.205  18.099  0.00  0.00    +0.000 C 
ATOM     19  C   UNL     1      -0.540  10.172  19.606  0.00  0.00    +0.000 C 
BRANCH  14  20
ATOM     20  C   UNL     1       0.004  11.011  21.858  0.00  0.00    +0.000 C 
ATOM     21  C   UNL     1      -1.445  11.312  22.300  0.00  0.00    +0.000 C 
BRANCH  20  23
ATOM     22  C   UNL     1      -0.486   8.467  22.070  0.00  0.00    +0.000 C 
ATOM     23  C   UNL     1       0.470   9.612  22.404  0.00  0.00    +0.000 C 
BRANCH  23  24
ATOM     24  O   UNL     1       0.601   9.630  23.830  0.00  0.00    +0.000 OA
ATOM     25  H   UNL     1       0.675   8.706  24.127  0.00  0.00    +0.000 HD
ENDBRANCH  23  24
ENDBRANCH  20  23
ENDBRANCH  14  20
ENDBRANCH   1  17
BRANCH   3  26
ATOM     26  C   UNL     1       2.025   5.269  19.452  0.00  0.00    +0.000 A 
ATOM     27  C   UNL     1       2.257   5.125  20.824  0.00  0.00    +0.000 A 
ATOM     28  C   UNL     1       2.052   3.885  21.407  0.00  0.00    +0.000 A 
ATOM     29  N   UNL     1       1.624   2.799  20.733  0.00  0.00    +0.000 NA
ATOM     30  C   UNL     1       1.423   2.954  19.408  0.00  0.00    +0.000 A 
ATOM     31  C   UNL     1       1.633   4.143  18.728  0.00  0.00    +0.000 A 
ENDBRANCH   3  26
TORSDOF 6
ENDMDL
MODEL 7
REMARK VINA RESULT:      -7.5      3.881      7.957
REMARK  Name = 
REMARK  8 active torsions:
REMARK  status: ('A' for Active; 'I' for Inactive)
REMARK    1  A    between atoms: C_1  and  C_2
REMARK    2  A    between atoms: C_2  and  O_3
REMARK    3  A    between atoms: C_2  and  C_4
REMARK    4  A    between atoms: C_4  and  C_5
REMARK    5  A    between atoms: C_4  and  N_6
REMARK    6  A    between atoms: C_9  and  C_10
REMARK    7  A    between atoms: C_12  and  C_13
REMARK    8  A    between atoms: C_19  and  C_20
REMARK                            x       y       z     vdW  Elec       q    Type
REMARK                         _______ _______ _______ _____ _____    ______ ____
ROOT
ATOM      1  C   UNL     1       1.862   8.582  18.332  0.00  0.00    +0.000 A 
ATOM      2  C   UNL     1       1.337   7.551  19.086  0.00  0.00    +0.000 A 
ATOM      3  C   UNL     1       2.195   6.419  18.992  0.00  0.00    +0.000 A 
ATOM      4  C   UNL     1       3.273   6.792  18.189  0.00  0.00    +0.000 A 
ATOM      5  N   UNL     1       3.054   8.112  17.834  0.00  0.00    +0.000 N 
ATOM      6  H   UNL     1       3.685   8.649  17.251  0.00  0.00    +0.000 HD
ENDROOT
BRANCH   4   7
ATOM      7  C   UNL     1       4.472   6.067  17.745  0.00  0.00    +0.000 A 
ATOM      8  C   UNL     1       5.292   5.393  18.670  0.00  0.00    +0.000 A 
ATOM      9  C   UNL     1       6.513   4.833  18.279  0.00  0.00    +0.000 A 
ATOM     10  C   UNL     1       6.892   4.887  16.946  0.00  0.00    +0.000 A 
ATOM     11  F   UNL     1       8.066   4.368  16.567  0.00  0.00    +0.000 F 
ATOM     12  C   UNL     1       6.066   5.477  15.998  0.00  0.00    +0.000 A 
ATOM     13  C   UNL     1       4.863   6.073  16.397  0.00  0.00    +0.000 A 
ENDBRANCH   4   7
BRANCH   1  17
ATOM     14  N   UNL     1      -0.260  10.748  20.450  0.00  0.00    +0.000 NA
ATOM     15  C   UNL     1       1.206  10.855  20.456  0.00  0.00    +0.000 C 
ATOM     16  C   UNL     1       1.851  11.027  19.075  0.00  0.00    +0.000 C 
ATOM     17  C   UNL     1       1.364   9.989  18.060  0.00  0.00    +0.000 C 
ATOM     18  C   UNL     1      -0.164  10.091  18.015  0.00  0.00    +0.000 C 
ATOM     19  C   UNL     1      -0.788   9.868  19.394  0.00  0.00    +0.000 C 
BRANCH  14  20
ATOM     20  C   UNL     1      -0.825  10.404  21.799  0.00  0.00    +0.000 C 
ATOM     21  C   UNL     1       0.191   9.700  22.726  0.00  0.00    +0.000 C 
BRANCH  20  23
ATOM     22  C   UNL     1      -2.360  12.494  21.621  0.00  0.00    +0.000 C 
ATOM     23  C   UNL     1      -1.477  11.635  22.526  0.00  0.00    +0.000 C 
BRANCH  23  24
ATOM     24  O   UNL     1      -0.478  12.507  23.067  0.00  0.00    +0.000 OA
ATOM     25  H   UNL     1      -0.712  12.677  23.996  0.00  0.00    +0.000 HD
ENDBRANCH  23  24
ENDBRANCH  20  23
ENDBRANCH  14  20
ENDBRANCH   1  17
BRANCH   3  26
ATOM     26  C   UNL     1       1.969   5.115  19.614  0.00  0.00    +0.000 A 
ATOM     27  C   UNL     1       2.311   4.920  20.957  0.00  0.00    +0.000 A 
ATOM     28  C   UNL     1       2.064   3.685  21.534  0.00  0.00    +0.000 A 
ATOM     29  N   UNL     1       1.494   2.652  20.883  0.00  0.00    +0.000 NA
ATOM     30  C   UNL     1       1.188   2.854  19.584  0.00  0.00    +0.000 A 
ATOM     31  C   UNL     1       1.428   4.041  18.909  0.00  0.00    +0.000 A 
ENDBRANCH   3  26
TORSDOF 6
ENDMDL
MODEL 8
REMARK VINA RESULT:      -7.4      3.625      7.333
REMARK  Name = 
REMARK  8 active torsions:
REMARK  status: ('A' for Active; 'I' for Inactive)
REMARK    1  A    between atoms: C_1  and  C_2
REMARK    2  A    between atoms: C_2  and  O_3
REMARK    3  A    between atoms: C_2  and  C_4
REMARK    4  A    between atoms: C_4  and  C_5
REMARK    5  A    between atoms: C_4  and  N_6
REMARK    6  A    between atoms: C_9  and  C_10
REMARK    7  A    between atoms: C_12  and  C_13
REMARK    8  A    between atoms: C_19  and  C_20
REMARK                            x       y       z     vdW  Elec       q    Type
REMARK                         _______ _______ _______ _____ _____    ______ ____
ROOT
ATOM      1  C   UNL     1       1.667   8.600  19.839  0.00  0.00    +0.000 A 
ATOM      2  C   UNL     1       1.322   7.440  20.502  0.00  0.00    +0.000 A 
ATOM      3  C   UNL     1       1.965   6.335  19.876  0.00  0.00    +0.000 A 
ATOM      4  C   UNL     1       2.737   6.851  18.835  0.00  0.00    +0.000 A 
ATOM      5  N   UNL     1       2.556   8.223  18.861  0.00  0.00    +0.000 N 
ATOM      6  H   UNL     1       3.004   8.861  18.214  0.00  0.00    +0.000 HD
ENDROOT
BRANCH   4   7
ATOM      7  C   UNL     1       3.623   6.212  17.850  0.00  0.00    +0.000 A 
ATOM      8  C   UNL     1       4.423   6.988  16.989  0.00  0.00    +0.000 A 
ATOM      9  C   UNL     1       5.149   6.396  15.951  0.00  0.00    +0.000 A 
ATOM     10  C   UNL     1       5.130   5.017  15.806  0.00  0.00    +0.000 A 
ATOM     11  F   UNL     1       5.810   4.444  14.804  0.00  0.00    +0.000 F 
ATOM     12  C   UNL     1       4.412   4.221  16.689  0.00  0.00    +0.000 A 
ATOM     13  C   UNL     1       3.654   4.816  17.704  0.00  0.00    +0.000 A 
ENDBRANCH   4   7
BRANCH   1  17
ATOM     14  N   UNL     1      -1.160  10.479  18.371  0.00  0.00    +0.000 NA
ATOM     15  C   UNL     1      -1.254   9.848  19.695  0.00  0.00    +0.000 C 
ATOM     16  C   UNL     1      -0.129  10.217  20.672  0.00  0.00    +0.000 C 
ATOM     17  C   UNL     1       1.265  10.047  20.060  0.00  0.00    +0.000 C 
ATOM     18  C   UNL     1       1.296  10.886  18.780  0.00  0.00    +0.000 C 
ATOM     19  C   UNL     1       0.197  10.468  17.801  0.00  0.00    +0.000 C 
BRANCH  14  20
ATOM     20  C   UNL     1      -2.179   9.950  17.401  0.00  0.00    +0.000 C 
ATOM     21  C   UNL     1      -3.423   9.346  18.089  0.00  0.00    +0.000 C 
BRANCH  20  23
ATOM     22  C   UNL     1      -4.074  11.415  16.393  0.00  0.00    +0.000 C 
ATOM     23  C   UNL     1      -2.604  11.006  16.316  0.00  0.00    +0.000 C 
BRANCH  23  24
ATOM     24  O   UNL     1      -2.389  10.504  14.992  0.00  0.00    +0.000 OA
ATOM     25  H   UNL     1      -2.401   9.532  15.043  0.00  0.00    +0.000 HD
ENDBRANCH  23  24
ENDBRANCH  20  23
ENDBRANCH  14  20
ENDBRANCH   1  17
BRANCH   3  26
ATOM     26  C   UNL     1       1.823   4.929  20.255  0.00  0.00    +0.000 A 
ATOM     27  C   UNL     1       2.470   4.453  21.400  0.00  0.00    +0.000 A 
ATOM     28  C   UNL     1       2.301   3.125  21.757  0.00  0.00    +0.000 A 
ATOM     29  N   UNL     1       1.532   2.256  21.072  0.00  0.00    +0.000 NA
ATOM     30  C   UNL     1       0.931   2.729  19.960  0.00  0.00    +0.000 A 
ATOM     31  C   UNL     1       1.066   4.031  19.504  0.00  0.00    +0.000 A 
ENDBRANCH   3  26
TORSDOF 6
ENDMDL
MODEL 9
REMARK VINA RESULT:      -7.3      3.677      7.239
REMARK  Name = 
REMARK  8 active torsions:
REMARK  status: ('A' for Active; 'I' for Inactive)
REMARK    1  A    between atoms: C_1  and  C_2
REMARK    2  A    between atoms: C_2  and  O_3
REMARK    3  A    between atoms: C_2  and  C_4
REMARK    4  A    between atoms: C_4  and  C_5
REMARK    5  A    between atoms: C_4  and  N_6
REMARK    6  A    between atoms: C_9  and  C_10
REMARK    7  A    between atoms: C_12  and  C_13
REMARK    8  A    between atoms: C_19  and  C_20
REMARK                            x       y       z     vdW  Elec       q    Type
REMARK                         _______ _______ _______ _____ _____    ______ ____
ROOT
ATOM      1  C   UNL     1       1.603   8.582  19.896  0.00  0.00    +0.000 A 
ATOM      2  C   UNL     1       1.272   7.435  20.589  0.00  0.00    +0.000 A 
ATOM      3  C   UNL     1       1.918   6.320  19.983  0.00  0.00    +0.000 A 
ATOM      4  C   UNL     1       2.676   6.817  18.923  0.00  0.00    +0.000 A 
ATOM      5  N   UNL     1       2.485   8.188  18.918  0.00  0.00    +0.000 N 
ATOM      6  H   UNL     1       2.923   8.814  18.252  0.00  0.00    +0.000 HD
ENDROOT
BRANCH   4   7
ATOM      7  C   UNL     1       3.557   6.162  17.945  0.00  0.00    +0.000 A 
ATOM      8  C   UNL     1       4.402   6.921  17.112  0.00  0.00    +0.000 A 
ATOM      9  C   UNL     1       5.126   6.319  16.078  0.00  0.00    +0.000 A 
ATOM     10  C   UNL     1       5.061   4.944  15.911  0.00  0.00    +0.000 A 
ATOM     11  F   UNL     1       5.739   4.362  14.914  0.00  0.00    +0.000 F 
ATOM     12  C   UNL     1       4.298   4.161  16.768  0.00  0.00    +0.000 A 
ATOM     13  C   UNL     1       3.541   4.768  17.777  0.00  0.00    +0.000 A 
ENDBRANCH   4   7
BRANCH   1  17
ATOM     14  N   UNL     1      -1.271  10.396  18.435  0.00  0.00    +0.000 NA
ATOM     15  C   UNL     1      -1.332   9.801  19.777  0.00  0.00    +0.000 C 
ATOM     16  C   UNL     1      -0.191  10.205  20.721  0.00  0.00    +0.000 C 
ATOM     17  C   UNL     1       1.191  10.030  20.086  0.00  0.00    +0.000 C 
ATOM     18  C   UNL     1       1.190  10.836  18.783  0.00  0.00    +0.000 C 
ATOM     19  C   UNL     1       0.075  10.382  17.838  0.00  0.00    +0.000 C 
BRANCH  14  20
ATOM     20  C   UNL     1      -2.303   9.833  17.500  0.00  0.00    +0.000 C 
ATOM     21  C   UNL     1      -3.531   9.242  18.229  0.00  0.00    +0.000 C 
BRANCH  20  23
ATOM     22  C   UNL     1      -2.799  10.261  14.985  0.00  0.00    +0.000 C 
ATOM     23  C   UNL     1      -2.755  10.853  16.393  0.00  0.00    +0.000 C 
BRANCH  23  24
ATOM     24  O   UNL     1      -1.872  11.979  16.334  0.00  0.00    +0.000 OA
ATOM     25  H   UNL     1      -1.863  12.389  17.216  0.00  0.00    +0.000 HD
ENDBRANCH  23  24
ENDBRANCH  20  23
ENDBRANCH  14  20
ENDBRANCH   1  17
BRANCH   3  26
ATOM     26  C   UNL     1       1.790   4.924  20.397  0.00  0.00    +0.000 A 
ATOM     27  C   UNL     1       0.911   4.077  19.714  0.00  0.00    +0.000 A 
ATOM     28  C   UNL     1       0.825   2.751  20.105  0.00  0.00    +0.000 A 
ATOM     29  N   UNL     1       1.554   2.213  21.103  0.00  0.00    +0.000 NA
ATOM     30  C   UNL     1       2.383   3.050  21.761  0.00  0.00    +0.000 A 
ATOM     31  C   UNL     1       2.514   4.398  21.466  0.00  0.00    +0.000 A 
ENDBRANCH   3  26
TORSDOF 6
ENDMDL
