MODEL 1
REMARK VINA RESULT:      -7.3      0.000      0.000
REMARK  Name = 
REMARK  10 active torsions:
REMARK  status: ('A' for Active; 'I' for Inactive)
REMARK    1  A    between atoms: C_1  and  O_2
REMARK    2  A    between atoms: O_2  and  C_3
REMARK    3  A    between atoms: C_3  and  C_4
REMARK    4  A    between atoms: C_4  and  C_5
REMARK    5  A    between atoms: C_4  and  N_6
REMARK    6  A    between atoms: C_7  and  C_9
REMARK    7  A    between atoms: C_9  and  S_10
REMARK    8  A    between atoms: S_10  and  C_11
REMARK    9  A    between atoms: C_15  and  S_16
REMARK   10  A    between atoms: S_16  and  N_19
REMARK                            x       y       z     vdW  Elec       q    Type
REMARK                         _______ _______ _______ _____ _____    ______ ____
ROOT
ATOM      1  C   UNL     1       0.342   9.927  20.621  0.00  0.00    +0.000 A 
ATOM      2  N   UNL     1       0.848   8.798  21.080  0.00  0.00    +0.000 NA
ATOM      3  C   UNL     1       1.571   8.301  20.028  0.00  0.00    +0.000 A 
ATOM      4  C   UNL     1       2.336   7.133  19.911  0.00  0.00    +0.000 A 
ATOM      5  C   UNL     1       2.962   6.880  18.678  0.00  0.00    +0.000 A 
ATOM      6  C   UNL     1       2.877   7.795  17.613  0.00  0.00    +0.000 A 
ATOM      7  C   UNL     1       2.114   8.968  17.726  0.00  0.00    +0.000 A 
ATOM      8  C   UNL     1       1.478   9.163  18.948  0.00  0.00    +0.000 A 
ATOM      9  O   UNL     1       0.680  10.210  19.318  0.00  0.00    +0.000 OA
ENDROOT
BRANCH   5  10
ATOM     10  S   UNL     1       3.974   5.412  18.513  0.00  0.00    +0.000 S 
ATOM     11  O   UNL     1       4.264   5.253  17.103  0.00  0.00    +0.000 OA
ATOM     12  O   UNL     1       5.044   5.529  19.485  0.00  0.00    +0.000 OA
BRANCH  10  13
ATOM     13  N   UNL     1       2.941   4.133  19.002  0.00  0.00    +0.000 NA
ATOM     14  C   UNL     1       2.820   3.948  20.473  0.00  0.00    +0.000 C 
ATOM     15  C   UNL     1       2.005   2.710  20.829  0.00  0.00    +0.000 C 
ATOM     16  C   UNL     1       0.658   2.718  20.122  0.00  0.00    +0.000 C 
ATOM     17  C   UNL     1       0.887   2.771  18.620  0.00  0.00    +0.000 C 
ATOM     18  C   UNL     1       1.680   4.013  18.228  0.00  0.00    +0.000 C 
ENDBRANCH  10  13
ENDBRANCH   5  10
BRANCH   1  19
ATOM     19  S   UNL     1      -0.622  10.979  21.616  0.00  0.00    +0.000 S 
BRANCH  19  20
ATOM     20  C   UNL     1      -0.914  12.353  20.473  0.00  0.00    +0.000 C 
BRANCH  20  22
ATOM     21  N   UNL     1      -2.059  11.321  18.572  0.00  0.00    +0.000 N 
ATOM     22  C   UNL     1      -2.199  12.113  19.696  0.00  0.00    +0.000 C 
ATOM     23  O   UNL     1      -3.283  12.547  20.078  0.00  0.00    +0.000 OA
ATOM     24  H   UNL     1      -1.124  11.171  18.213  0.00  0.00    +0.000 HD
BRANCH  21  25
ATOM     25  C   UNL     1      -3.191  11.015  17.696  0.00  0.00    +0.000 C 
ATOM     26  C   UNL     1      -3.568   9.540  17.836  0.00  0.00    +0.000 C 
BRANCH  25  27
ATOM     27  C   UNL     1      -2.907  11.378  16.224  0.00  0.00    +0.000 C 
BRANCH  27  29
ATOM     28  C   UNL     1      -3.154  10.084  14.258  0.00  0.00    +0.000 C 
ATOM     29  O   UNL     1      -2.502  10.204  15.515  0.00  0.00    +0.000 OA
ENDBRANCH  27  29
ENDBRANCH  25  27
ENDBRANCH  21  25
ENDBRANCH  20  22
ENDBRANCH  19  20
ENDBRANCH   1  19
TORSDOF 8
ENDMDL
MODEL 2
REMARK VINA RESULT:      -7.2      2.106      2.793
REMARK  Name = 
REMARK  10 active torsions:
REMARK  status: ('A' for Active; 'I' for Inactive)
REMARK    1  A    between atoms: C_1  and  O_2
REMARK    2  A    between atoms: O_2  and  C_3
REMARK    3  A    between atoms: C_3  and  C_4
REMARK    4  A    between atoms: C_4  and  C_5
REMARK    5  A    between atoms: C_4  and  N_6
REMARK    6  A    between atoms: C_7  and  C_9
REMARK    7  A    between atoms: C_9  and  S_10
REMARK    8  A    between atoms: S_10  and  C_11
REMARK    9  A    between atoms: C_15  and  S_16
REMARK   10  A    between atoms: S_16  and  N_19
REMARK                            x       y       z     vdW  Elec       q    Type
REMARK                         _______ _______ _______ _____ _____    ______ ____
ROOT
ATOM      1  C   UNL     1       0.492   9.711  20.653  0.00  0.00    +0.000 A 
ATOM      2  N   UNL     1       0.884   8.553  21.150  0.00  0.00    +0.000 NA
ATOM      3  C   UNL     1       1.633   7.993  20.148  0.00  0.00    +0.000 A 
ATOM      4  C   UNL     1       2.315   6.771  20.087  0.00  0.00    +0.000 A 
ATOM      5  C   UNL     1       2.996   6.460  18.898  0.00  0.00    +0.000 A 
ATOM      6  C   UNL     1       3.046   7.367  17.824  0.00  0.00    +0.000 A 
ATOM      7  C   UNL     1       2.365   8.593  17.882  0.00  0.00    +0.000 A 
ATOM      8  C   UNL     1       1.671   8.848  19.060  0.00  0.00    +0.000 A 
ATOM      9  O   UNL     1       0.931   9.954  19.372  0.00  0.00    +0.000 OA
ENDROOT
BRANCH   5  10
ATOM     10  S   UNL     1       3.906   4.920  18.806  0.00  0.00    +0.000 S 
ATOM     11  O   UNL     1       4.763   4.863  19.972  0.00  0.00    +0.000 OA
ATOM     12  O   UNL     1       2.936   3.875  18.542  0.00  0.00    +0.000 OA
BRANCH  10  13
ATOM     13  N   UNL     1       4.895   5.100  17.416  0.00  0.00    +0.000 NA
ATOM     14  C   UNL     1       6.317   5.435  17.693  0.00  0.00    +0.000 C 
ATOM     15  C   UNL     1       7.098   5.721  16.414  0.00  0.00    +0.000 C 
ATOM     16  C   UNL     1       6.943   4.587  15.412  0.00  0.00    +0.000 C 
ATOM     17  C   UNL     1       5.468   4.410  15.088  0.00  0.00    +0.000 C 
ATOM     18  C   UNL     1       4.662   4.098  16.345  0.00  0.00    +0.000 C 
ENDBRANCH  10  13
ENDBRANCH   5  10
BRANCH   1  19
ATOM     19  S   UNL     1      -0.451  10.841  21.578  0.00  0.00    +0.000 S 
BRANCH  19  20
ATOM     20  C   UNL     1      -0.596  12.208  20.399  0.00  0.00    +0.000 C 
BRANCH  20  22
ATOM     21  N   UNL     1      -1.814  11.178  18.543  0.00  0.00    +0.000 N 
ATOM     22  C   UNL     1      -1.881  12.066  19.600  0.00  0.00    +0.000 C 
ATOM     23  O   UNL     1      -2.912  12.657  19.912  0.00  0.00    +0.000 OA
ATOM     24  H   UNL     1      -0.895  10.888  18.228  0.00  0.00    +0.000 HD
BRANCH  21  25
ATOM     25  C   UNL     1      -2.953  10.944  17.655  0.00  0.00    +0.000 C 
ATOM     26  C   UNL     1      -3.438   9.502  17.807  0.00  0.00    +0.000 C 
BRANCH  25  27
ATOM     27  C   UNL     1      -2.624  11.266  16.183  0.00  0.00    +0.000 C 
BRANCH  27  29
ATOM     28  C   UNL     1      -3.124  10.070  14.203  0.00  0.00    +0.000 C 
ATOM     29  O   UNL     1      -3.652  10.740  15.340  0.00  0.00    +0.000 OA
ENDBRANCH  27  29
ENDBRANCH  25  27
ENDBRANCH  21  25
ENDBRANCH  20  22
ENDBRANCH  19  20
ENDBRANCH   1  19
TORSDOF 8
ENDMDL
MODEL 3
REMARK VINA RESULT:      -7.2      2.292      3.026
REMARK  Name = 
REMARK  10 active torsions:
REMARK  status: ('A' for Active; 'I' for Inactive)
REMARK    1  A    between atoms: C_1  and  O_2
REMARK    2  A    between atoms: O_2  and  C_3
REMARK    3  A    between atoms: C_3  and  C_4
REMARK    4  A    between atoms: C_4  and  C_5
REMARK    5  A    between atoms: C_4  and  N_6
REMARK    6  A    between atoms: C_7  and  C_9
REMARK    7  A    between atoms: C_9  and  S_10
REMARK    8  A    between atoms: S_10  and  C_11
REMARK    9  A    between atoms: C_15  and  S_16
REMARK   10  A    between atoms: S_16  and  N_19
REMARK                            x       y       z     vdW  Elec       q    Type
REMARK                         _______ _______ _______ _____ _____    ______ ____
ROOT
ATOM      1  C   UNL     1       1.284  10.462  18.961  0.00  0.00    +0.000 A 
ATOM      2  N   UNL     1       1.850   9.684  18.058  0.00  0.00    +0.000 NA
ATOM      3  C   UNL     1       1.979   8.474  18.689  0.00  0.00    +0.000 A 
ATOM      4  C   UNL     1       2.505   7.257  18.240  0.00  0.00    +0.000 A 
ATOM      5  C   UNL     1       2.514   6.175  19.137  0.00  0.00    +0.000 A 
ATOM      6  C   UNL     1       1.960   6.289  20.425  0.00  0.00    +0.000 A 
ATOM      7  C   UNL     1       1.430   7.506  20.879  0.00  0.00    +0.000 A 
ATOM      8  C   UNL     1       1.473   8.563  19.976  0.00  0.00    +0.000 A 
ATOM      9  O   UNL     1       1.032   9.843  20.163  0.00  0.00    +0.000 OA
ENDROOT
BRANCH   5  10
ATOM     10  S   UNL     1       3.149   4.597  18.576  0.00  0.00    +0.000 S 
ATOM     11  O   UNL     1       3.202   3.726  19.732  0.00  0.00    +0.000 OA
ATOM     12  O   UNL     1       2.382   4.231  17.401  0.00  0.00    +0.000 OA
BRANCH  10  13
ATOM     13  N   UNL     1       4.756   4.943  18.084  0.00  0.00    +0.000 NA
ATOM     14  C   UNL     1       5.717   5.182  19.194  0.00  0.00    +0.000 C 
ATOM     15  C   UNL     1       7.084   5.623  18.682  0.00  0.00    +0.000 C 
ATOM     16  C   UNL     1       7.617   4.655  17.637  0.00  0.00    +0.000 C 
ATOM     17  C   UNL     1       6.633   4.581  16.481  0.00  0.00    +0.000 C 
ATOM     18  C   UNL     1       5.259   4.119  16.957  0.00  0.00    +0.000 C 
ENDBRANCH  10  13
ENDBRANCH   5  10
BRANCH   1  19
ATOM     19  S   UNL     1       0.850  12.111  18.618  0.00  0.00    +0.000 S 
BRANCH  19  20
ATOM     20  C   UNL     1      -0.442  12.387  19.857  0.00  0.00    +0.000 C 
BRANCH  20  22
ATOM     21  N   UNL     1      -1.770  11.405  18.052  0.00  0.00    +0.000 N 
ATOM     22  C   UNL     1      -1.804  12.073  19.261  0.00  0.00    +0.000 C 
ATOM     23  O   UNL     1      -2.850  12.347  19.845  0.00  0.00    +0.000 OA
ATOM     24  H   UNL     1      -0.894  11.393  17.543  0.00  0.00    +0.000 HD
BRANCH  21  25
ATOM     25  C   UNL     1      -2.993  11.052  17.329  0.00  0.00    +0.000 C 
ATOM     26  C   UNL     1      -3.381   9.607  17.647  0.00  0.00    +0.000 C 
BRANCH  25  27
ATOM     27  C   UNL     1      -2.856  11.267  15.808  0.00  0.00    +0.000 C 
BRANCH  27  29
ATOM     28  C   UNL     1      -3.097   9.926  13.873  0.00  0.00    +0.000 C 
ATOM     29  O   UNL     1      -3.663  10.309  15.118  0.00  0.00    +0.000 OA
ENDBRANCH  27  29
ENDBRANCH  25  27
ENDBRANCH  21  25
ENDBRANCH  20  22
ENDBRANCH  19  20
ENDBRANCH   1  19
TORSDOF 8
ENDMDL
MODEL 4
REMARK VINA RESULT:      -7.1      3.651      8.917
REMARK  Name = 
REMARK  10 active torsions:
REMARK  status: ('A' for Active; 'I' for Inactive)
REMARK    1  A    between atoms: C_1  and  O_2
REMARK    2  A    between atoms: O_2  and  C_3
REMARK    3  A    between atoms: C_3  and  C_4
REMARK    4  A    between atoms: C_4  and  C_5
REMARK    5  A    between atoms: C_4  and  N_6
REMARK    6  A    between atoms: C_7  and  C_9
REMARK    7  A    between atoms: C_9  and  S_10
REMARK    8  A    between atoms: S_10  and  C_11
REMARK    9  A    between atoms: C_15  and  S_16
REMARK   10  A    between atoms: S_16  and  N_19
REMARK                            x       y       z     vdW  Elec       q    Type
REMARK                         _______ _______ _______ _____ _____    ______ ____
ROOT
ATOM      1  C   UNL     1       3.415   6.275  18.437  0.00  0.00    +0.000 A 
ATOM      2  N   UNL     1       3.113   7.376  17.775  0.00  0.00    +0.000 NA
ATOM      3  C   UNL     1       2.298   8.069  18.631  0.00  0.00    +0.000 A 
ATOM      4  C   UNL     1       1.666   9.311  18.491  0.00  0.00    +0.000 A 
ATOM      5  C   UNL     1       0.866   9.763  19.554  0.00  0.00    +0.000 A 
ATOM      6  C   UNL     1       0.751   9.027  20.747  0.00  0.00    +0.000 A 
ATOM      7  C   UNL     1       1.384   7.783  20.893  0.00  0.00    +0.000 A 
ATOM      8  C   UNL     1       2.135   7.352  19.804  0.00  0.00    +0.000 A 
ATOM      9  O   UNL     1       2.843   6.189  19.684  0.00  0.00    +0.000 OA
ENDROOT
BRANCH   5  10
ATOM     10  S   UNL     1       0.074  11.364  19.415  0.00  0.00    +0.000 S 
ATOM     11  O   UNL     1      -0.042  11.898  20.756  0.00  0.00    +0.000 OA
ATOM     12  O   UNL     1       0.783  12.093  18.382  0.00  0.00    +0.000 OA
BRANCH  10  13
ATOM     13  N   UNL     1      -1.500  11.003  18.837  0.00  0.00    +0.000 NA
ATOM     14  C   UNL     1      -2.496  12.095  18.998  0.00  0.00    +0.000 C 
ATOM     15  C   UNL     1      -3.899  11.655  18.596  0.00  0.00    +0.000 C 
ATOM     16  C   UNL     1      -3.906  11.051  17.200  0.00  0.00    +0.000 C 
ATOM     17  C   UNL     1      -2.963   9.860  17.171  0.00  0.00    +0.000 C 
ATOM     18  C   UNL     1      -1.543  10.273  17.545  0.00  0.00    +0.000 C 
ENDBRANCH  10  13
ENDBRANCH   5  10
BRANCH   1  19
ATOM     19  S   UNL     1       4.494   5.074  17.787  0.00  0.00    +0.000 S 
BRANCH  19  20
ATOM     20  C   UNL     1       5.740   6.127  17.000  0.00  0.00    +0.000 C 
BRANCH  20  22
ATOM     21  N   UNL     1       6.202   5.247  14.764  0.00  0.00    +0.000 N 
ATOM     22  C   UNL     1       6.616   5.291  16.082  0.00  0.00    +0.000 C 
ATOM     23  O   UNL     1       7.643   4.745  16.480  0.00  0.00    +0.000 OA
ATOM     24  H   UNL     1       5.256   5.546  14.555  0.00  0.00    +0.000 HD
BRANCH  21  25
ATOM     25  C   UNL     1       6.917   4.464  13.755  0.00  0.00    +0.000 C 
ATOM     26  C   UNL     1       7.791   5.390  12.908  0.00  0.00    +0.000 C 
BRANCH  25  27
ATOM     27  C   UNL     1       5.961   3.640  12.869  0.00  0.00    +0.000 C 
BRANCH  27  29
ATOM     28  C   UNL     1       6.050   1.776  11.413  0.00  0.00    +0.000 C 
ATOM     29  O   UNL     1       6.717   2.942  11.875  0.00  0.00    +0.000 OA
ENDBRANCH  27  29
ENDBRANCH  25  27
ENDBRANCH  21  25
ENDBRANCH  20  22
ENDBRANCH  19  20
ENDBRANCH   1  19
TORSDOF 8
ENDMDL
MODEL 5
REMARK VINA RESULT:      -7.1      2.546      3.446
REMARK  Name = 
REMARK  10 active torsions:
REMARK  status: ('A' for Active; 'I' for Inactive)
REMARK    1  A    between atoms: C_1  and  O_2
REMARK    2  A    between atoms: O_2  and  C_3
REMARK    3  A    between atoms: C_3  and  C_4
REMARK    4  A    between atoms: C_4  and  C_5
REMARK    5  A    between atoms: C_4  and  N_6
REMARK    6  A    between atoms: C_7  and  C_9
REMARK    7  A    between atoms: C_9  and  S_10
REMARK    8  A    between atoms: S_10  and  C_11
REMARK    9  A    between atoms: C_15  and  S_16
REMARK   10  A    between atoms: S_16  and  N_19
REMARK                            x       y       z     vdW  Elec       q    Type
REMARK                         _______ _______ _______ _____ _____    ______ ____
ROOT
ATOM      1  C   UNL     1       1.563   9.278  19.007  0.00  0.00    +0.000 A 
ATOM      2  N   UNL     1       2.015   8.552  18.001  0.00  0.00    +0.000 NA
ATOM      3  C   UNL     1       2.196   7.306  18.540  0.00  0.00    +0.000 A 
ATOM      4  C   UNL     1       2.652   6.114  17.963  0.00  0.00    +0.000 A 
ATOM      5  C   UNL     1       2.745   4.980  18.787  0.00  0.00    +0.000 A 
ATOM      6  C   UNL     1       2.338   5.018  20.133  0.00  0.00    +0.000 A 
ATOM      7  C   UNL     1       1.879   6.210  20.716  0.00  0.00    +0.000 A 
ATOM      8  C   UNL     1       1.837   7.319  19.878  0.00  0.00    +0.000 A 
ATOM      9  O   UNL     1       1.437   8.588  20.190  0.00  0.00    +0.000 OA
ENDROOT
BRANCH   5  10
ATOM     10  S   UNL     1       3.291   3.434  18.065  0.00  0.00    +0.000 S 
ATOM     11  O   UNL     1       3.401   2.476  19.146  0.00  0.00    +0.000 OA
ATOM     12  O   UNL     1       2.432   3.177  16.926  0.00  0.00    +0.000 OA
BRANCH  10  13
ATOM     13  N   UNL     1       4.868   3.778  17.483  0.00  0.00    +0.000 NA
ATOM     14  C   UNL     1       4.944   4.126  16.040  0.00  0.00    +0.000 C 
ATOM     15  C   UNL     1       6.385   4.276  15.563  0.00  0.00    +0.000 C 
ATOM     16  C   UNL     1       7.157   5.245  16.445  0.00  0.00    +0.000 C 
ATOM     17  C   UNL     1       7.138   4.735  17.877  0.00  0.00    +0.000 C 
ATOM     18  C   UNL     1       5.709   4.596  18.393  0.00  0.00    +0.000 C 
ENDBRANCH  10  13
ENDBRANCH   5  10
BRANCH   1  19
ATOM     19  S   UNL     1       1.118  10.948  18.813  0.00  0.00    +0.000 S 
BRANCH  19  20
ATOM     20  C   UNL     1      -0.283  11.060  19.955  0.00  0.00    +0.000 C 
BRANCH  20  22
ATOM     21  N   UNL     1      -2.301  10.997  18.572  0.00  0.00    +0.000 N 
ATOM     22  C   UNL     1      -1.433  11.798  19.289  0.00  0.00    +0.000 C 
ATOM     23  O   UNL     1      -1.601  13.008  19.431  0.00  0.00    +0.000 OA
ATOM     24  H   UNL     1      -1.993  10.061  18.335  0.00  0.00    +0.000 HD
BRANCH  21  25
ATOM     25  C   UNL     1      -3.445  11.552  17.846  0.00  0.00    +0.000 C 
ATOM     26  C   UNL     1      -4.589  11.829  18.822  0.00  0.00    +0.000 C 
BRANCH  25  27
ATOM     27  C   UNL     1      -3.907  10.637  16.695  0.00  0.00    +0.000 C 
BRANCH  27  29
ATOM     28  C   UNL     1      -3.010  10.196  14.549  0.00  0.00    +0.000 C 
ATOM     29  O   UNL     1      -2.768  10.199  15.949  0.00  0.00    +0.000 OA
ENDBRANCH  27  29
ENDBRANCH  25  27
ENDBRANCH  21  25
ENDBRANCH  20  22
ENDBRANCH  19  20
ENDBRANCH   1  19
TORSDOF 8
ENDMDL
MODEL 6
REMARK VINA RESULT:      -7.0      2.461      3.635
REMARK  Name = 
REMARK  10 active torsions:
REMARK  status: ('A' for Active; 'I' for Inactive)
REMARK    1  A    between atoms: C_1  and  O_2
REMARK    2  A    between atoms: O_2  and  C_3
REMARK    3  A    between atoms: C_3  and  C_4
REMARK    4  A    between atoms: C_4  and  C_5
REMARK    5  A    between atoms: C_4  and  N_6
REMARK    6  A    between atoms: C_7  and  C_9
REMARK    7  A    between atoms: C_9  and  S_10
REMARK    8  A    between atoms: S_10  and  C_11
REMARK    9  A    between atoms: C_15  and  S_16
REMARK   10  A    between atoms: S_16  and  N_19
REMARK                            x       y       z     vdW  Elec       q    Type
REMARK                         _______ _______ _______ _____ _____    ______ ____
ROOT
ATOM      1  C   UNL     1       0.997   8.996  20.199  0.00  0.00    +0.000 A 
ATOM      2  N   UNL     1       1.743   8.722  19.146  0.00  0.00    +0.000 NA
ATOM      3  C   UNL     1       2.147   7.428  19.346  0.00  0.00    +0.000 A 
ATOM      4  C   UNL     1       2.953   6.588  18.568  0.00  0.00    +0.000 A 
ATOM      5  C   UNL     1       3.207   5.292  19.050  0.00  0.00    +0.000 A 
ATOM      6  C   UNL     1       2.625   4.829  20.244  0.00  0.00    +0.000 A 
ATOM      7  C   UNL     1       1.816   5.667  21.027  0.00  0.00    +0.000 A 
ATOM      8  C   UNL     1       1.619   6.954  20.535  0.00  0.00    +0.000 A 
ATOM      9  O   UNL     1       0.884   7.960  21.097  0.00  0.00    +0.000 OA
ENDROOT
BRANCH   5  10
ATOM     10  S   UNL     1       4.205   4.185  18.057  0.00  0.00    +0.000 S 
ATOM     11  O   UNL     1       4.332   2.948  18.799  0.00  0.00    +0.000 OA
ATOM     12  O   UNL     1       3.642   4.198  16.721  0.00  0.00    +0.000 OA
BRANCH  10  13
ATOM     13  N   UNL     1       5.742   4.944  18.000  0.00  0.00    +0.000 NA
ATOM     14  C   UNL     1       5.904   5.959  16.926  0.00  0.00    +0.000 C 
ATOM     15  C   UNL     1       7.334   6.485  16.846  0.00  0.00    +0.000 C 
ATOM     16  C   UNL     1       7.814   6.978  18.202  0.00  0.00    +0.000 C 
ATOM     17  C   UNL     1       7.740   5.834  19.200  0.00  0.00    +0.000 C 
ATOM     18  C   UNL     1       6.315   5.302  19.322  0.00  0.00    +0.000 C 
ENDBRANCH  10  13
ENDBRANCH   5  10
BRANCH   1  19
ATOM     19  S   UNL     1       0.189  10.525  20.386  0.00  0.00    +0.000 S 
BRANCH  19  20
ATOM     20  C   UNL     1       0.460  11.254  18.750  0.00  0.00    +0.000 C 
BRANCH  20  22
ATOM     21  N   UNL     1      -1.942  11.221  18.284  0.00  0.00    +0.000 N 
ATOM     22  C   UNL     1      -0.793  11.987  18.299  0.00  0.00    +0.000 C 
ATOM     23  O   UNL     1      -0.783  13.185  18.025  0.00  0.00    +0.000 OA
ATOM     24  H   UNL     1      -1.839  10.213  18.325  0.00  0.00    +0.000 HD
BRANCH  21  25
ATOM     25  C   UNL     1      -3.229  11.765  17.848  0.00  0.00    +0.000 C 
ATOM     26  C   UNL     1      -4.177  11.868  19.043  0.00  0.00    +0.000 C 
BRANCH  25  27
ATOM     27  C   UNL     1      -3.859  10.936  16.710  0.00  0.00    +0.000 C 
BRANCH  27  29
ATOM     28  C   UNL     1      -2.931  10.011  14.739  0.00  0.00    +0.000 C 
ATOM     29  O   UNL     1      -3.160  11.195  15.489  0.00  0.00    +0.000 OA
ENDBRANCH  27  29
ENDBRANCH  25  27
ENDBRANCH  21  25
ENDBRANCH  20  22
ENDBRANCH  19  20
ENDBRANCH   1  19
TORSDOF 8
ENDMDL
MODEL 7
REMARK VINA RESULT:      -7.0      3.395      8.604
REMARK  Name = 
REMARK  10 active torsions:
REMARK  status: ('A' for Active; 'I' for Inactive)
REMARK    1  A    between atoms: C_1  and  O_2
REMARK    2  A    between atoms: O_2  and  C_3
REMARK    3  A    between atoms: C_3  and  C_4
REMARK    4  A    between atoms: C_4  and  C_5
REMARK    5  A    between atoms: C_4  and  N_6
REMARK    6  A    between atoms: C_7  and  C_9
REMARK    7  A    between atoms: C_9  and  S_10
REMARK    8  A    between atoms: S_10  and  C_11
REMARK    9  A    between atoms: C_15  and  S_16
REMARK   10  A    between atoms: S_16  and  N_19
REMARK                            x       y       z     vdW  Elec       q    Type
REMARK                         _______ _______ _______ _____ _____    ______ ____
ROOT
ATOM      1  C   UNL     1       3.659   4.972  17.606  0.00  0.00    +0.000 A 
ATOM      2  N   UNL     1       3.477   6.277  17.668  0.00  0.00    +0.000 NA
ATOM      3  C   UNL     1       2.728   6.458  18.801  0.00  0.00    +0.000 A 
ATOM      4  C   UNL     1       2.225   7.625  19.391  0.00  0.00    +0.000 A 
ATOM      5  C   UNL     1       1.465   7.490  20.566  0.00  0.00    +0.000 A 
ATOM      6  C   UNL     1       1.264   6.235  21.167  0.00  0.00    +0.000 A 
ATOM      7  C   UNL     1       1.767   5.063  20.580  0.00  0.00    +0.000 A 
ATOM      8  C   UNL     1       2.481   5.234  19.399  0.00  0.00    +0.000 A 
ATOM      9  O   UNL     1       3.070   4.269  18.630  0.00  0.00    +0.000 OA
ENDROOT
BRANCH   5  10
ATOM     10  S   UNL     1       0.840   8.969  21.360  0.00  0.00    +0.000 S 
ATOM     11  O   UNL     1      -0.444   8.631  21.936  0.00  0.00    +0.000 OA
ATOM     12  O   UNL     1       1.914   9.487  22.185  0.00  0.00    +0.000 OA
BRANCH  10  13
ATOM     13  N   UNL     1       0.582  10.063  20.064  0.00  0.00    +0.000 NA
ATOM     14  C   UNL     1      -0.778  10.020  19.464  0.00  0.00    +0.000 C 
ATOM     15  C   UNL     1      -0.889  10.911  18.232  0.00  0.00    +0.000 C 
ATOM     16  C   UNL     1      -0.422  12.327  18.535  0.00  0.00    +0.000 C 
ATOM     17  C   UNL     1       1.021  12.282  19.011  0.00  0.00    +0.000 C 
ATOM     18  C   UNL     1       1.162  11.416  20.259  0.00  0.00    +0.000 C 
ENDBRANCH  10  13
ENDBRANCH   5  10
BRANCH   1  19
ATOM     19  S   UNL     1       4.617   4.232  16.357  0.00  0.00    +0.000 S 
BRANCH  19  20
ATOM     20  C   UNL     1       5.335   5.696  15.568  0.00  0.00    +0.000 C 
BRANCH  20  22
ATOM     21  N   UNL     1       6.715   7.148  16.974  0.00  0.00    +0.000 N 
ATOM     22  C   UNL     1       6.685   6.008  16.193  0.00  0.00    +0.000 C 
ATOM     23  O   UNL     1       7.655   5.267  16.054  0.00  0.00    +0.000 OA
ATOM     24  H   UNL     1       5.949   7.805  16.880  0.00  0.00    +0.000 HD
BRANCH  21  25
ATOM     25  C   UNL     1       7.942   7.607  17.626  0.00  0.00    +0.000 C 
ATOM     26  C   UNL     1       8.154   6.835  18.929  0.00  0.00    +0.000 C 
BRANCH  25  27
ATOM     27  C   UNL     1       7.936   9.129  17.877  0.00  0.00    +0.000 C 
BRANCH  27  29
ATOM     28  C   UNL     1       9.391  10.811  18.687  0.00  0.00    +0.000 C 
ATOM     29  O   UNL     1       8.970   9.460  18.809  0.00  0.00    +0.000 OA
ENDBRANCH  27  29
ENDBRANCH  25  27
ENDBRANCH  21  25
ENDBRANCH  20  22
ENDBRANCH  19  20
ENDBRANCH   1  19
TORSDOF 8
ENDMDL
MODEL 8
REMARK VINA RESULT:      -7.0      3.186      8.710
REMARK  Name = 
REMARK  10 active torsions:
REMARK  status: ('A' for Active; 'I' for Inactive)
REMARK    1  A    between atoms: C_1  and  O_2
REMARK    2  A    between atoms: O_2  and  C_3
REMARK    3  A    between atoms: C_3  and  C_4
REMARK    4  A    between atoms: C_4  and  C_5
REMARK    5  A    between atoms: C_4  and  N_6
REMARK    6  A    between atoms: C_7  and  C_9
REMARK    7  A    between atoms: C_9  and  S_10
REMARK    8  A    between atoms: S_10  and  C_11
REMARK    9  A    between atoms: C_15  and  S_16
REMARK   10  A    between atoms: S_16  and  N_19
REMARK                            x       y       z     vdW  Elec       q    Type
REMARK                         _______ _______ _______ _____ _____    ______ ____
ROOT
ATOM      1  C   UNL     1       2.483   5.634  19.782  0.00  0.00    +0.000 A 
ATOM      2  N   UNL     1       1.851   6.454  20.600  0.00  0.00    +0.000 NA
ATOM      3  C   UNL     1       1.751   7.624  19.893  0.00  0.00    +0.000 A 
ATOM      4  C   UNL     1       1.176   8.855  20.233  0.00  0.00    +0.000 A 
ATOM      5  C   UNL     1       1.242   9.893  19.288  0.00  0.00    +0.000 A 
ATOM      6  C   UNL     1       1.809   9.690  18.017  0.00  0.00    +0.000 A 
ATOM      7  C   UNL     1       2.385   8.457  17.671  0.00  0.00    +0.000 A 
ATOM      8  C   UNL     1       2.334   7.467  18.647  0.00  0.00    +0.000 A 
ATOM      9  O   UNL     1       2.818   6.191  18.570  0.00  0.00    +0.000 OA
ENDROOT
BRANCH   5  10
ATOM     10  S   UNL     1       0.484  11.466  19.684  0.00  0.00    +0.000 S 
ATOM     11  O   UNL     1      -0.478  11.749  18.639  0.00  0.00    +0.000 OA
ATOM     12  O   UNL     1       0.076  11.397  21.074  0.00  0.00    +0.000 OA
BRANCH  10  13
ATOM     13  N   UNL     1       1.770  12.594  19.557  0.00  0.00    +0.000 NA
ATOM     14  C   UNL     1       1.807  13.366  18.286  0.00  0.00    +0.000 C 
ATOM     15  C   UNL     1       3.053  14.240  18.184  0.00  0.00    +0.000 C 
ATOM     16  C   UNL     1       3.208  15.121  19.415  0.00  0.00    +0.000 C 
ATOM     17  C   UNL     1       3.297  14.237  20.648  0.00  0.00    +0.000 C 
ATOM     18  C   UNL     1       2.053  13.367  20.793  0.00  0.00    +0.000 C 
ENDBRANCH  10  13
ENDBRANCH   5  10
BRANCH   1  19
ATOM     19  S   UNL     1       2.805   3.977  20.202  0.00  0.00    +0.000 S 
BRANCH  19  20
ATOM     20  C   UNL     1       3.576   3.383  18.675  0.00  0.00    +0.000 C 
BRANCH  20  22
ATOM     21  N   UNL     1       5.208   4.645  17.359  0.00  0.00    +0.000 N 
ATOM     22  C   UNL     1       4.972   3.970  18.541  0.00  0.00    +0.000 C 
ATOM     23  O   UNL     1       5.802   3.891  19.444  0.00  0.00    +0.000 OA
ATOM     24  H   UNL     1       4.561   4.498  16.593  0.00  0.00    +0.000 HD
BRANCH  21  25
ATOM     25  C   UNL     1       6.509   5.245  17.057  0.00  0.00    +0.000 C 
ATOM     26  C   UNL     1       6.406   6.769  17.142  0.00  0.00    +0.000 C 
BRANCH  25  27
ATOM     27  C   UNL     1       7.054   4.801  15.685  0.00  0.00    +0.000 C 
BRANCH  27  29
ATOM     28  C   UNL     1       6.015   3.860  13.778  0.00  0.00    +0.000 C 
ATOM     29  O   UNL     1       6.247   3.737  15.174  0.00  0.00    +0.000 OA
ENDBRANCH  27  29
ENDBRANCH  25  27
ENDBRANCH  21  25
ENDBRANCH  20  22
ENDBRANCH  19  20
ENDBRANCH   1  19
TORSDOF 8
ENDMDL
MODEL 9
REMARK VINA RESULT:      -7.0      2.501      8.218
REMARK  Name = 
REMARK  10 active torsions:
REMARK  status: ('A' for Active; 'I' for Inactive)
REMARK    1  A    between atoms: C_1  and  O_2
REMARK    2  A    between atoms: O_2  and  C_3
REMARK    3  A    between atoms: C_3  and  C_4
REMARK    4  A    between atoms: C_4  and  C_5
REMARK    5  A    between atoms: C_4  and  N_6
REMARK    6  A    between atoms: C_7  and  C_9
REMARK    7  A    between atoms: C_9  and  S_10
REMARK    8  A    between atoms: S_10  and  C_11
REMARK    9  A    between atoms: C_15  and  S_16
REMARK   10  A    between atoms: S_16  and  N_19
REMARK                            x       y       z     vdW  Elec       q    Type
REMARK                         _______ _______ _______ _____ _____    ______ ____
ROOT
ATOM      1  C   UNL     1       2.461   5.395  19.841  0.00  0.00    +0.000 A 
ATOM      2  N   UNL     1       1.859   6.227  20.670  0.00  0.00    +0.000 NA
ATOM      3  C   UNL     1       1.793   7.406  19.976  0.00  0.00    +0.000 A 
ATOM      4  C   UNL     1       1.260   8.651  20.332  0.00  0.00    +0.000 A 
ATOM      5  C   UNL     1       1.355   9.696  19.397  0.00  0.00    +0.000 A 
ATOM      6  C   UNL     1       1.910   9.488  18.121  0.00  0.00    +0.000 A 
ATOM      7  C   UNL     1       2.444   8.242  17.760  0.00  0.00    +0.000 A 
ATOM      8  C   UNL     1       2.366   7.244  18.726  0.00  0.00    +0.000 A 
ATOM      9  O   UNL     1       2.808   5.954  18.633  0.00  0.00    +0.000 OA
ENDROOT
BRANCH   5  10
ATOM     10  S   UNL     1       0.649  11.289  19.813  0.00  0.00    +0.000 S 
ATOM     11  O   UNL     1       0.742  11.432  21.251  0.00  0.00    +0.000 OA
ATOM     12  O   UNL     1       1.259  12.262  18.927  0.00  0.00    +0.000 OA
BRANCH  10  13
ATOM     13  N   UNL     1      -1.006  11.138  19.389  0.00  0.00    +0.000 NA
ATOM     14  C   UNL     1      -1.825  12.361  19.600  0.00  0.00    +0.000 C 
ATOM     15  C   UNL     1      -3.306  12.110  19.339  0.00  0.00    +0.000 C 
ATOM     16  C   UNL     1      -3.524  11.483  17.971  0.00  0.00    +0.000 C 
ATOM     17  C   UNL     1      -2.759  10.171  17.900  0.00  0.00    +0.000 C 
ATOM     18  C   UNL     1      -1.267  10.392  18.132  0.00  0.00    +0.000 C 
ENDBRANCH  10  13
ENDBRANCH   5  10
BRANCH   1  19
ATOM     19  S   UNL     1       2.731   3.725  20.242  0.00  0.00    +0.000 S 
BRANCH  19  20
ATOM     20  C   UNL     1       3.506   3.130  18.717  0.00  0.00    +0.000 C 
BRANCH  20  22
ATOM     21  N   UNL     1       4.935   4.498  17.276  0.00  0.00    +0.000 N 
ATOM     22  C   UNL     1       4.824   3.853  18.493  0.00  0.00    +0.000 C 
ATOM     23  O   UNL     1       5.696   3.901  19.358  0.00  0.00    +0.000 OA
ATOM     24  H   UNL     1       4.275   4.250  16.549  0.00  0.00    +0.000 HD
BRANCH  21  25
ATOM     25  C   UNL     1       6.150   5.217  16.890  0.00  0.00    +0.000 C 
ATOM     26  C   UNL     1       6.214   6.554  17.629  0.00  0.00    +0.000 C 
BRANCH  25  27
ATOM     27  C   UNL     1       6.249   5.420  15.364  0.00  0.00    +0.000 C 
BRANCH  27  29
ATOM     28  C   UNL     1       6.104   3.775  13.669  0.00  0.00    +0.000 C 
ATOM     29  O   UNL     1       6.854   4.269  14.769  0.00  0.00    +0.000 OA
ENDBRANCH  27  29
ENDBRANCH  25  27
ENDBRANCH  21  25
ENDBRANCH  20  22
ENDBRANCH  19  20
ENDBRANCH   1  19
TORSDOF 8
ENDMDL
