MODEL 1
REMARK VINA RESULT:      -7.1      0.000      0.000
REMARK  Name = 
REMARK  7 active torsions:
REMARK  status: ('A' for Active; 'I' for Inactive)
REMARK    1  A    between atoms: C_1  and  N_2
REMARK    2  A    between atoms: N_2  and  C_3
REMARK    3  A    between atoms: C_4  and  C_6
REMARK    4  A    between atoms: C_6  and  N_7
REMARK    5  A    between atoms: N_15  and  C_16
REMARK    6  A    between atoms: C_16  and  C_17
REMARK    7  A    between atoms: C_21  and  C_22
REMARK                            x       y       z     vdW  Elec       q    Type
REMARK                         _______ _______ _______ _____ _____    ______ ____
ROOT
ATOM      1  N   UNL     1       0.448  10.661  20.866  0.00  0.00    +0.000 N 
ATOM      2  C   UNL     1       0.433   9.763  21.954  0.00  0.00    +0.000 C 
ATOM      3  O   UNL     1       0.410  10.056  23.138  0.00  0.00    +0.000 OA
ATOM      4  C   UNL     1       0.601   8.351  21.386  0.00  0.00    +0.000 C 
ATOM      5  C   UNL     1       1.411   8.746  20.161  0.00  0.00    +0.000 C 
ATOM      6  C   UNL     1       0.581   9.907  19.669  0.00  0.00    +0.000 C 
ATOM      7  C   UNL     1       1.356  10.360  18.466  0.00  0.00    +0.000 C 
ATOM      8  C   UNL     1       1.834   9.023  17.890  0.00  0.00    +0.000 C 
ATOM      9  N   UNL     1       1.627   7.981  18.945  0.00  0.00    +0.000 NA
ENDROOT
BRANCH   1  10
ATOM     10  C   UNL     1       0.964  12.006  21.000  0.00  0.00    +0.000 C 
BRANCH  10  14
ATOM     11  C   UNL     1      -2.216  14.076  20.922  0.00  0.00    +0.000 C 
ATOM     12  N   UNL     1      -1.018  13.440  21.435  0.00  0.00    +0.000 N 
ATOM     13  C   UNL     1      -0.918  13.188  22.865  0.00  0.00    +0.000 C 
ATOM     14  C   UNL     1      -0.090  12.986  20.519  0.00  0.00    +0.000 C 
ATOM     15  O   UNL     1      -0.103  13.366  19.345  0.00  0.00    +0.000 OA
ENDBRANCH  10  14
ENDBRANCH   1  10
BRANCH   9  16
ATOM     16  C   UNL     1       2.801   7.108  19.094  0.00  0.00    +0.000 C 
BRANCH  16  17
ATOM     17  C   UNL     1       2.421   5.653  19.031  0.00  0.00    +0.000 A 
ATOM     18  C   UNL     1       2.175   5.024  17.801  0.00  0.00    +0.000 A 
ATOM     19  C   UNL     1       1.714   3.709  17.760  0.00  0.00    +0.000 A 
ATOM     20  C   UNL     1       1.504   3.013  18.951  0.00  0.00    +0.000 A 
ATOM     21  C   UNL     1       1.755   3.624  20.174  0.00  0.00    +0.000 A 
ATOM     22  C   UNL     1       2.217   4.941  20.221  0.00  0.00    +0.000 A 
BRANCH  21  23
ATOM     23  C   UNL     1       1.530   2.922  21.397  0.00  0.00    +0.000 C 
ATOM     24  N   UNL     1       1.342   2.351  22.393  0.00  0.00    +0.000 NA
ENDBRANCH  21  23
ENDBRANCH  16  17
ENDBRANCH   9  16
TORSDOF 5
ENDMDL
MODEL 2
REMARK VINA RESULT:      -6.8      2.276      3.009
REMARK  Name = 
REMARK  7 active torsions:
REMARK  status: ('A' for Active; 'I' for Inactive)
REMARK    1  A    between atoms: C_1  and  N_2
REMARK    2  A    between atoms: N_2  and  C_3
REMARK    3  A    between atoms: C_4  and  C_6
REMARK    4  A    between atoms: C_6  and  N_7
REMARK    5  A    between atoms: N_15  and  C_16
REMARK    6  A    between atoms: C_16  and  C_17
REMARK    7  A    between atoms: C_21  and  C_22
REMARK                            x       y       z     vdW  Elec       q    Type
REMARK                         _______ _______ _______ _____ _____    ______ ____
ROOT
ATOM      1  N   UNL     1       0.616  10.730  20.367  0.00  0.00    +0.000 N 
ATOM      2  C   UNL     1       0.376  10.077  21.595  0.00  0.00    +0.000 C 
ATOM      3  O   UNL     1       0.226  10.608  22.683  0.00  0.00    +0.000 OA
ATOM      4  C   UNL     1       0.484   8.571  21.343  0.00  0.00    +0.000 C 
ATOM      5  C   UNL     1       1.481   8.652  20.197  0.00  0.00    +0.000 C 
ATOM      6  C   UNL     1       0.833   9.739  19.372  0.00  0.00    +0.000 C 
ATOM      7  C   UNL     1       1.797   9.884  18.230  0.00  0.00    +0.000 C 
ATOM      8  C   UNL     1       2.220   8.429  18.002  0.00  0.00    +0.000 C 
ATOM      9  N   UNL     1       1.781   7.641  19.197  0.00  0.00    +0.000 NA
ENDROOT
BRANCH   1  10
ATOM     10  C   UNL     1       1.233  12.037  20.311  0.00  0.00    +0.000 C 
BRANCH  10  14
ATOM     11  C   UNL     1      -0.149  15.247  18.832  0.00  0.00    +0.000 C 
ATOM     12  N   UNL     1       0.775  14.165  19.114  0.00  0.00    +0.000 N 
ATOM     13  C   UNL     1       2.199  14.395  18.924  0.00  0.00    +0.000 C 
ATOM     14  C   UNL     1       0.260  13.012  19.674  0.00  0.00    +0.000 C 
ATOM     15  O   UNL     1      -0.949  12.770  19.656  0.00  0.00    +0.000 OA
ENDBRANCH  10  14
ENDBRANCH   1  10
BRANCH   9  16
ATOM     16  C   UNL     1       2.839   6.743  19.683  0.00  0.00    +0.000 C 
BRANCH  16  17
ATOM     17  C   UNL     1       3.246   5.746  18.632  0.00  0.00    +0.000 A 
ATOM     18  C   UNL     1       2.326   4.815  18.126  0.00  0.00    +0.000 A 
ATOM     19  C   UNL     1       2.740   3.824  17.238  0.00  0.00    +0.000 A 
ATOM     20  C   UNL     1       4.078   3.764  16.844  0.00  0.00    +0.000 A 
ATOM     21  C   UNL     1       4.994   4.688  17.331  0.00  0.00    +0.000 A 
ATOM     22  C   UNL     1       4.584   5.683  18.222  0.00  0.00    +0.000 A 
BRANCH  21  23
ATOM     23  C   UNL     1       6.367   4.625  16.943  0.00  0.00    +0.000 C 
ATOM     24  N   UNL     1       7.486   4.570  16.629  0.00  0.00    +0.000 NA
ENDBRANCH  21  23
ENDBRANCH  16  17
ENDBRANCH   9  16
TORSDOF 5
ENDMDL
MODEL 3
REMARK VINA RESULT:      -6.7      3.225      4.752
REMARK  Name = 
REMARK  7 active torsions:
REMARK  status: ('A' for Active; 'I' for Inactive)
REMARK    1  A    between atoms: C_1  and  N_2
REMARK    2  A    between atoms: N_2  and  C_3
REMARK    3  A    between atoms: C_4  and  C_6
REMARK    4  A    between atoms: C_6  and  N_7
REMARK    5  A    between atoms: N_15  and  C_16
REMARK    6  A    between atoms: C_16  and  C_17
REMARK    7  A    between atoms: C_21  and  C_22
REMARK                            x       y       z     vdW  Elec       q    Type
REMARK                         _______ _______ _______ _____ _____    ______ ____
ROOT
ATOM      1  N   UNL     1       1.488   8.841  19.405  0.00  0.00    +0.000 N 
ATOM      2  C   UNL     1       2.079   9.186  18.171  0.00  0.00    +0.000 C 
ATOM      3  O   UNL     1       1.707  10.061  17.406  0.00  0.00    +0.000 OA
ATOM      4  C   UNL     1       3.185   8.165  17.889  0.00  0.00    +0.000 C 
ATOM      5  C   UNL     1       2.550   7.003  18.638  0.00  0.00    +0.000 C 
ATOM      6  C   UNL     1       2.168   7.704  19.920  0.00  0.00    +0.000 C 
ATOM      7  C   UNL     1       1.505   6.602  20.695  0.00  0.00    +0.000 C 
ATOM      8  C   UNL     1       2.370   5.397  20.312  0.00  0.00    +0.000 C 
ATOM      9  N   UNL     1       3.192   5.794  19.125  0.00  0.00    +0.000 NA
ENDROOT
BRANCH   1  10
ATOM     10  C   UNL     1       0.092   9.103  19.677  0.00  0.00    +0.000 C 
BRANCH  10  14
ATOM     11  C   UNL     1      -0.828  11.566  22.414  0.00  0.00    +0.000 C 
ATOM     12  N   UNL     1      -0.373  10.344  21.779  0.00  0.00    +0.000 N 
ATOM     13  C   UNL     1      -0.438   9.099  22.529  0.00  0.00    +0.000 C 
ATOM     14  C   UNL     1      -0.023  10.407  20.444  0.00  0.00    +0.000 C 
ATOM     15  O   UNL     1       0.199  11.485  19.885  0.00  0.00    +0.000 OA
ENDBRANCH  10  14
ENDBRANCH   1  10
BRANCH   9  16
ATOM     16  C   UNL     1       3.188   4.759  18.081  0.00  0.00    +0.000 C 
BRANCH  16  17
ATOM     17  C   UNL     1       4.560   4.552  17.500  0.00  0.00    +0.000 A 
ATOM     18  C   UNL     1       5.711   4.742  18.281  0.00  0.00    +0.000 A 
ATOM     19  C   UNL     1       6.977   4.659  17.705  0.00  0.00    +0.000 A 
ATOM     20  C   UNL     1       7.100   4.376  16.343  0.00  0.00    +0.000 A 
ATOM     21  C   UNL     1       5.967   4.175  15.564  0.00  0.00    +0.000 A 
ATOM     22  C   UNL     1       4.695   4.258  16.136  0.00  0.00    +0.000 A 
BRANCH  21  23
ATOM     23  C   UNL     1       6.084   3.897  14.168  0.00  0.00    +0.000 C 
ATOM     24  N   UNL     1       6.184   3.674  13.031  0.00  0.00    +0.000 NA
ENDBRANCH  21  23
ENDBRANCH  16  17
ENDBRANCH   9  16
TORSDOF 5
ENDMDL
MODEL 4
REMARK VINA RESULT:      -6.7      3.391      5.031
REMARK  Name = 
REMARK  7 active torsions:
REMARK  status: ('A' for Active; 'I' for Inactive)
REMARK    1  A    between atoms: C_1  and  N_2
REMARK    2  A    between atoms: N_2  and  C_3
REMARK    3  A    between atoms: C_4  and  C_6
REMARK    4  A    between atoms: C_6  and  N_7
REMARK    5  A    between atoms: N_15  and  C_16
REMARK    6  A    between atoms: C_16  and  C_17
REMARK    7  A    between atoms: C_21  and  C_22
REMARK                            x       y       z     vdW  Elec       q    Type
REMARK                         _______ _______ _______ _____ _____    ______ ____
ROOT
ATOM      1  N   UNL     1       1.728   8.479  19.371  0.00  0.00    +0.000 N 
ATOM      2  C   UNL     1       2.319   8.843  18.142  0.00  0.00    +0.000 C 
ATOM      3  O   UNL     1       1.946   9.730  17.392  0.00  0.00    +0.000 OA
ATOM      4  C   UNL     1       3.426   7.829  17.845  0.00  0.00    +0.000 C 
ATOM      5  C   UNL     1       2.793   6.655  18.576  0.00  0.00    +0.000 C 
ATOM      6  C   UNL     1       2.409   7.335  19.869  0.00  0.00    +0.000 C 
ATOM      7  C   UNL     1       1.748   6.220  20.626  0.00  0.00    +0.000 C 
ATOM      8  C   UNL     1       2.615   5.022  20.224  0.00  0.00    +0.000 C 
ATOM      9  N   UNL     1       3.437   5.439  19.044  0.00  0.00    +0.000 NA
ENDROOT
BRANCH   1  10
ATOM     10  C   UNL     1       0.332   8.734  19.647  0.00  0.00    +0.000 C 
BRANCH  10  14
ATOM     11  C   UNL     1      -0.428  12.446  19.866  0.00  0.00    +0.000 C 
ATOM     12  N   UNL     1      -0.578  11.043  19.528  0.00  0.00    +0.000 N 
ATOM     13  C   UNL     1      -1.416  10.682  18.395  0.00  0.00    +0.000 C 
ATOM     14  C   UNL     1       0.193  10.131  20.223  0.00  0.00    +0.000 C 
ATOM     15  O   UNL     1       0.748  10.430  21.283  0.00  0.00    +0.000 OA
ENDBRANCH  10  14
ENDBRANCH   1  10
BRANCH   9  16
ATOM     16  C   UNL     1       3.434   4.420  17.984  0.00  0.00    +0.000 C 
BRANCH  16  17
ATOM     17  C   UNL     1       4.769   4.334  17.294  0.00  0.00    +0.000 A 
ATOM     18  C   UNL     1       5.957   4.616  17.984  0.00  0.00    +0.000 A 
ATOM     19  C   UNL     1       7.176   4.645  17.310  0.00  0.00    +0.000 A 
ATOM     20  C   UNL     1       7.214   4.383  15.939  0.00  0.00    +0.000 A 
ATOM     21  C   UNL     1       6.043   4.092  15.248  0.00  0.00    +0.000 A 
ATOM     22  C   UNL     1       4.819   4.063  15.920  0.00  0.00    +0.000 A 
BRANCH  21  23
ATOM     23  C   UNL     1       6.072   3.837  13.844  0.00  0.00    +0.000 C 
ATOM     24  N   UNL     1       6.100   3.627  12.700  0.00  0.00    +0.000 NA
ENDBRANCH  21  23
ENDBRANCH  16  17
ENDBRANCH   9  16
TORSDOF 5
ENDMDL
MODEL 5
REMARK VINA RESULT:      -6.7      1.977      2.748
REMARK  Name = 
REMARK  7 active torsions:
REMARK  status: ('A' for Active; 'I' for Inactive)
REMARK    1  A    between atoms: C_1  and  N_2
REMARK    2  A    between atoms: N_2  and  C_3
REMARK    3  A    between atoms: C_4  and  C_6
REMARK    4  A    between atoms: C_6  and  N_7
REMARK    5  A    between atoms: N_15  and  C_16
REMARK    6  A    between atoms: C_16  and  C_17
REMARK    7  A    between atoms: C_21  and  C_22
REMARK                            x       y       z     vdW  Elec       q    Type
REMARK                         _______ _______ _______ _____ _____    ______ ____
ROOT
ATOM      1  N   UNL     1       0.482  10.553  20.833  0.00  0.00    +0.000 N 
ATOM      2  C   UNL     1       0.497   9.709  21.964  0.00  0.00    +0.000 C 
ATOM      3  O   UNL     1       0.451  10.059  23.132  0.00  0.00    +0.000 OA
ATOM      4  C   UNL     1       0.729   8.279  21.468  0.00  0.00    +0.000 C 
ATOM      5  C   UNL     1       1.532   8.648  20.230  0.00  0.00    +0.000 C 
ATOM      6  C   UNL     1       0.657   9.747  19.675  0.00  0.00    +0.000 C 
ATOM      7  C   UNL     1       1.422  10.173  18.456  0.00  0.00    +0.000 C 
ATOM      8  C   UNL     1       1.961   8.831  17.951  0.00  0.00    +0.000 C 
ATOM      9  N   UNL     1       1.790   7.834  19.054  0.00  0.00    +0.000 NA
ENDROOT
BRANCH   1  10
ATOM     10  C   UNL     1       0.939  11.923  20.903  0.00  0.00    +0.000 C 
BRANCH  10  14
ATOM     11  C   UNL     1      -1.616  14.687  20.425  0.00  0.00    +0.000 C 
ATOM     12  N   UNL     1      -0.733  13.581  20.111  0.00  0.00    +0.000 N 
ATOM     13  C   UNL     1      -0.291  13.408  18.735  0.00  0.00    +0.000 C 
ATOM     14  C   UNL     1      -0.253  12.826  21.163  0.00  0.00    +0.000 C 
ATOM     15  O   UNL     1      -0.774  12.870  22.280  0.00  0.00    +0.000 OA
ENDBRANCH  10  14
ENDBRANCH   1  10
BRANCH   9  16
ATOM     16  C   UNL     1       2.999   7.021  19.254  0.00  0.00    +0.000 C 
BRANCH  16  17
ATOM     17  C   UNL     1       2.971   5.771  18.415  0.00  0.00    +0.000 A 
ATOM     18  C   UNL     1       1.902   4.866  18.505  0.00  0.00    +0.000 A 
ATOM     19  C   UNL     1       1.939   3.658  17.810  0.00  0.00    +0.000 A 
ATOM     20  C   UNL     1       3.044   3.352  17.014  0.00  0.00    +0.000 A 
ATOM     21  C   UNL     1       4.102   4.247  16.910  0.00  0.00    +0.000 A 
ATOM     22  C   UNL     1       4.070   5.459  17.605  0.00  0.00    +0.000 A 
BRANCH  21  23
ATOM     23  C   UNL     1       5.242   3.936  16.108  0.00  0.00    +0.000 C 
ATOM     24  N   UNL     1       6.172   3.686  15.456  0.00  0.00    +0.000 NA
ENDBRANCH  21  23
ENDBRANCH  16  17
ENDBRANCH   9  16
TORSDOF 5
ENDMDL
MODEL 6
REMARK VINA RESULT:      -6.7      2.056      2.812
REMARK  Name = 
REMARK  7 active torsions:
REMARK  status: ('A' for Active; 'I' for Inactive)
REMARK    1  A    between atoms: C_1  and  N_2
REMARK    2  A    between atoms: N_2  and  C_3
REMARK    3  A    between atoms: C_4  and  C_6
REMARK    4  A    between atoms: C_6  and  N_7
REMARK    5  A    between atoms: N_15  and  C_16
REMARK    6  A    between atoms: C_16  and  C_17
REMARK    7  A    between atoms: C_21  and  C_22
REMARK                            x       y       z     vdW  Elec       q    Type
REMARK                         _______ _______ _______ _____ _____    ______ ____
ROOT
ATOM      1  N   UNL     1       0.500  10.538  20.499  0.00  0.00    +0.000 N 
ATOM      2  C   UNL     1       0.450   9.840  21.724  0.00  0.00    +0.000 C 
ATOM      3  O   UNL     1       0.342  10.331  22.836  0.00  0.00    +0.000 OA
ATOM      4  C   UNL     1       0.705   8.361  21.422  0.00  0.00    +0.000 C 
ATOM      5  C   UNL     1       1.576   8.578  20.194  0.00  0.00    +0.000 C 
ATOM      6  C   UNL     1       0.735   9.596  19.460  0.00  0.00    +0.000 C 
ATOM      7  C   UNL     1       1.567   9.871  18.241  0.00  0.00    +0.000 C 
ATOM      8  C   UNL     1       2.130   8.480  17.936  0.00  0.00    +0.000 C 
ATOM      9  N   UNL     1       1.896   7.626  19.143  0.00  0.00    +0.000 NA
ENDROOT
BRANCH   1  10
ATOM     10  C   UNL     1       0.956  11.908  20.424  0.00  0.00    +0.000 C 
BRANCH  10  14
ATOM     11  C   UNL     1      -2.132  14.104  20.642  0.00  0.00    +0.000 C 
ATOM     12  N   UNL     1      -0.830  13.551  20.960  0.00  0.00    +0.000 N 
ATOM     13  C   UNL     1      -0.315  13.707  22.313  0.00  0.00    +0.000 C 
ATOM     14  C   UNL     1      -0.203  12.788  19.994  0.00  0.00    +0.000 C 
ATOM     15  O   UNL     1      -0.562  12.821  18.814  0.00  0.00    +0.000 OA
ENDBRANCH  10  14
ENDBRANCH   1  10
BRANCH   9  16
ATOM     16  C   UNL     1       3.090   6.848  19.507  0.00  0.00    +0.000 C 
BRANCH  16  17
ATOM     17  C   UNL     1       3.409   5.804  18.471  0.00  0.00    +0.000 A 
ATOM     18  C   UNL     1       2.492   4.785  18.168  0.00  0.00    +0.000 A 
ATOM     19  C   UNL     1       2.841   3.760  17.291  0.00  0.00    +0.000 A 
ATOM     20  C   UNL     1       4.108   3.752  16.706  0.00  0.00    +0.000 A 
ATOM     21  C   UNL     1       5.019   4.762  16.991  0.00  0.00    +0.000 A 
ATOM     22  C   UNL     1       4.674   5.792  17.869  0.00  0.00    +0.000 A 
BRANCH  21  23
ATOM     23  C   UNL     1       6.321   4.754  16.406  0.00  0.00    +0.000 C 
ATOM     24  N   UNL     1       7.382   4.752  15.929  0.00  0.00    +0.000 NA
ENDBRANCH  21  23
ENDBRANCH  16  17
ENDBRANCH   9  16
TORSDOF 5
ENDMDL
MODEL 7
REMARK VINA RESULT:      -6.7      2.377      3.118
REMARK  Name = 
REMARK  7 active torsions:
REMARK  status: ('A' for Active; 'I' for Inactive)
REMARK    1  A    between atoms: C_1  and  N_2
REMARK    2  A    between atoms: N_2  and  C_3
REMARK    3  A    between atoms: C_4  and  C_6
REMARK    4  A    between atoms: C_6  and  N_7
REMARK    5  A    between atoms: N_15  and  C_16
REMARK    6  A    between atoms: C_16  and  C_17
REMARK    7  A    between atoms: C_21  and  C_22
REMARK                            x       y       z     vdW  Elec       q    Type
REMARK                         _______ _______ _______ _____ _____    ______ ____
ROOT
ATOM      1  N   UNL     1       0.342   9.927  21.161  0.00  0.00    +0.000 N 
ATOM      2  C   UNL     1       1.190   9.111  21.940  0.00  0.00    +0.000 C 
ATOM      3  O   UNL     1       1.527   9.309  23.096  0.00  0.00    +0.000 OA
ATOM      4  C   UNL     1       1.732   8.008  21.028  0.00  0.00    +0.000 C 
ATOM      5  C   UNL     1       1.685   8.807  19.734  0.00  0.00    +0.000 C 
ATOM      6  C   UNL     1       0.297   9.391  19.845  0.00  0.00    +0.000 C 
ATOM      7  C   UNL     1       0.204  10.220  18.597  0.00  0.00    +0.000 C 
ATOM      8  C   UNL     1       0.954   9.341  17.591  0.00  0.00    +0.000 C 
ATOM      9  N   UNL     1       1.702   8.305  18.370  0.00  0.00    +0.000 NA
ENDROOT
BRANCH   1  10
ATOM     10  C   UNL     1       0.190  11.340  21.431  0.00  0.00    +0.000 C 
BRANCH  10  14
ATOM     11  C   UNL     1      -3.178  12.724  22.500  0.00  0.00    +0.000 C 
ATOM     12  N   UNL     1      -2.128  12.209  21.643  0.00  0.00    +0.000 N 
ATOM     13  C   UNL     1      -2.165  12.527  20.223  0.00  0.00    +0.000 C 
ATOM     14  C   UNL     1      -1.073  11.551  22.245  0.00  0.00    +0.000 C 
ATOM     15  O   UNL     1      -1.149  11.137  23.405  0.00  0.00    +0.000 OA
ENDBRANCH  10  14
ENDBRANCH   1  10
BRANCH   9  16
ATOM     16  C   UNL     1       3.087   8.156  17.900  0.00  0.00    +0.000 C 
BRANCH  16  17
ATOM     17  C   UNL     1       3.463   6.708  17.733  0.00  0.00    +0.000 A 
ATOM     18  C   UNL     1       2.528   5.688  17.968  0.00  0.00    +0.000 A 
ATOM     19  C   UNL     1       2.916   4.351  17.922  0.00  0.00    +0.000 A 
ATOM     20  C   UNL     1       4.242   4.025  17.633  0.00  0.00    +0.000 A 
ATOM     21  C   UNL     1       5.173   5.027  17.388  0.00  0.00    +0.000 A 
ATOM     22  C   UNL     1       4.790   6.370  17.433  0.00  0.00    +0.000 A 
BRANCH  21  23
ATOM     23  C   UNL     1       6.534   4.702  17.104  0.00  0.00    +0.000 C 
ATOM     24  N   UNL     1       7.642   4.433  16.875  0.00  0.00    +0.000 NA
ENDBRANCH  21  23
ENDBRANCH  16  17
ENDBRANCH   9  16
TORSDOF 5
ENDMDL
MODEL 8
REMARK VINA RESULT:      -6.7      2.474      3.415
REMARK  Name = 
REMARK  7 active torsions:
REMARK  status: ('A' for Active; 'I' for Inactive)
REMARK    1  A    between atoms: C_1  and  N_2
REMARK    2  A    between atoms: N_2  and  C_3
REMARK    3  A    between atoms: C_4  and  C_6
REMARK    4  A    between atoms: C_6  and  N_7
REMARK    5  A    between atoms: N_15  and  C_16
REMARK    6  A    between atoms: C_16  and  C_17
REMARK    7  A    between atoms: C_21  and  C_22
REMARK                            x       y       z     vdW  Elec       q    Type
REMARK                         _______ _______ _______ _____ _____    ______ ____
ROOT
ATOM      1  N   UNL     1      -0.504  10.391  21.740  0.00  0.00    +0.000 N 
ATOM      2  C   UNL     1       0.359   9.580  22.507  0.00  0.00    +0.000 C 
ATOM      3  O   UNL     1       0.648   9.735  23.683  0.00  0.00    +0.000 OA
ATOM      4  C   UNL     1       0.988   8.554  21.561  0.00  0.00    +0.000 C 
ATOM      5  C   UNL     1       0.942   9.415  20.308  0.00  0.00    +0.000 C 
ATOM      6  C   UNL     1      -0.478   9.922  20.399  0.00  0.00    +0.000 C 
ATOM      7  C   UNL     1      -0.574  10.808  19.191  0.00  0.00    +0.000 C 
ATOM      8  C   UNL     1       0.254  10.021  18.169  0.00  0.00    +0.000 C 
ATOM      9  N   UNL     1       1.030   8.986  18.922  0.00  0.00    +0.000 NA
ENDROOT
BRANCH   1  10
ATOM     10  C   UNL     1      -0.739  11.778  22.075  0.00  0.00    +0.000 C 
BRANCH  10  14
ATOM     11  C   UNL     1      -4.224  13.207  22.540  0.00  0.00    +0.000 C 
ATOM     12  N   UNL     1      -3.001  12.788  21.883  0.00  0.00    +0.000 N 
ATOM     13  C   UNL     1      -2.651  13.392  20.606  0.00  0.00    +0.000 C 
ATOM     14  C   UNL     1      -2.166  11.929  22.570  0.00  0.00    +0.000 C 
ATOM     15  O   UNL     1      -2.559  11.294  23.552  0.00  0.00    +0.000 OA
ENDBRANCH  10  14
ENDBRANCH   1  10
BRANCH   9  16
ATOM     16  C   UNL     1       2.435   8.932  18.494  0.00  0.00    +0.000 C 
BRANCH  16  17
ATOM     17  C   UNL     1       2.834   7.542  18.075  0.00  0.00    +0.000 A 
ATOM     18  C   UNL     1       2.126   6.420  18.531  0.00  0.00    +0.000 A 
ATOM     19  C   UNL     1       2.571   5.134  18.230  0.00  0.00    +0.000 A 
ATOM     20  C   UNL     1       3.724   4.964  17.461  0.00  0.00    +0.000 A 
ATOM     21  C   UNL     1       4.425   6.069  16.995  0.00  0.00    +0.000 A 
ATOM     22  C   UNL     1       3.984   7.360  17.295  0.00  0.00    +0.000 A 
BRANCH  21  23
ATOM     23  C   UNL     1       5.612   5.903  16.219  0.00  0.00    +0.000 C 
ATOM     24  N   UNL     1       6.577   5.770  15.583  0.00  0.00    +0.000 NA
ENDBRANCH  21  23
ENDBRANCH  16  17
ENDBRANCH   9  16
TORSDOF 5
ENDMDL
MODEL 9
REMARK VINA RESULT:      -6.6      1.737      2.221
REMARK  Name = 
REMARK  7 active torsions:
REMARK  status: ('A' for Active; 'I' for Inactive)
REMARK    1  A    between atoms: C_1  and  N_2
REMARK    2  A    between atoms: N_2  and  C_3
REMARK    3  A    between atoms: C_4  and  C_6
REMARK    4  A    between atoms: C_6  and  N_7
REMARK    5  A    between atoms: N_15  and  C_16
REMARK    6  A    between atoms: C_16  and  C_17
REMARK    7  A    between atoms: C_21  and  C_22
REMARK                            x       y       z     vdW  Elec       q    Type
REMARK                         _______ _______ _______ _____ _____    ______ ____
ROOT
ATOM      1  N   UNL     1       0.679  10.639  20.446  0.00  0.00    +0.000 N 
ATOM      2  C   UNL     1       0.527   9.945  21.664  0.00  0.00    +0.000 C 
ATOM      3  O   UNL     1       0.442  10.439  22.777  0.00  0.00    +0.000 OA
ATOM      4  C   UNL     1       0.635   8.449  21.358  0.00  0.00    +0.000 C 
ATOM      5  C   UNL     1       1.554   8.580  20.153  0.00  0.00    +0.000 C 
ATOM      6  C   UNL     1       0.842   9.682  19.407  0.00  0.00    +0.000 C 
ATOM      7  C   UNL     1       1.728   9.876  18.211  0.00  0.00    +0.000 C 
ATOM      8  C   UNL     1       2.152   8.435  17.909  0.00  0.00    +0.000 C 
ATOM      9  N   UNL     1       1.801   7.604  19.104  0.00  0.00    +0.000 NA
ENDROOT
BRANCH   1  10
ATOM     10  C   UNL     1       1.276  11.956  20.392  0.00  0.00    +0.000 C 
BRANCH  10  14
ATOM     11  C   UNL     1      -0.176  15.079  18.801  0.00  0.00    +0.000 C 
ATOM     12  N   UNL     1       0.711  13.956  19.031  0.00  0.00    +0.000 N 
ATOM     13  C   UNL     1       2.071  14.021  18.516  0.00  0.00    +0.000 C 
ATOM     14  C   UNL     1       0.256  12.935  19.843  0.00  0.00    +0.000 C 
ATOM     15  O   UNL     1      -0.941  12.812  20.114  0.00  0.00    +0.000 OA
ENDBRANCH  10  14
ENDBRANCH   1  10
BRANCH   9  16
ATOM     16  C   UNL     1       2.898   6.706  19.492  0.00  0.00    +0.000 C 
BRANCH  16  17
ATOM     17  C   UNL     1       2.421   5.287  19.656  0.00  0.00    +0.000 A 
ATOM     18  C   UNL     1       1.391   4.972  20.555  0.00  0.00    +0.000 A 
ATOM     19  C   UNL     1       1.034   3.645  20.783  0.00  0.00    +0.000 A 
ATOM     20  C   UNL     1       1.703   2.624  20.107  0.00  0.00    +0.000 A 
ATOM     21  C   UNL     1       2.718   2.926  19.206  0.00  0.00    +0.000 A 
ATOM     22  C   UNL     1       3.079   4.255  18.974  0.00  0.00    +0.000 A 
BRANCH  21  23
ATOM     23  C   UNL     1       3.415   1.886  18.520  0.00  0.00    +0.000 C 
ATOM     24  N   UNL     1       3.980   1.035  17.963  0.00  0.00    +0.000 NA
ENDBRANCH  21  23
ENDBRANCH  16  17
ENDBRANCH   9  16
TORSDOF 5
ENDMDL
