MODEL 1
REMARK VINA RESULT:      -8.2      0.000      0.000
REMARK  Name = 
REMARK  3 active torsions:
REMARK  status: ('A' for Active; 'I' for Inactive)
REMARK    1  A    between atoms: C_1  and  C_2
REMARK    2  A    between atoms: N_4  and  C_5
REMARK    3  A    between atoms: C_10  and  N_11
REMARK                            x       y       z     vdW  Elec       q    Type
REMARK                         _______ _______ _______ _____ _____    ______ ____
ROOT
ATOM      1  C   UNL     1       1.795   3.122  21.497  0.00  0.00    +0.000 C 
ATOM      2  C   UNL     1       2.429   4.209  20.708  0.00  0.00    +0.000 A 
ATOM      3  N   UNL     1       1.962   5.458  20.765  0.00  0.00    +0.000 NA
ATOM      4  N   UNL     1       2.623   6.141  19.780  0.00  0.00    +0.000 N 
ATOM      5  C   UNL     1       3.719   5.395  19.329  0.00  0.00    +0.000 A 
ATOM      6  C   UNL     1       3.558   4.133  19.881  0.00  0.00    +0.000 A 
ATOM      7  C   UNL     1       4.451   3.032  19.613  0.00  0.00    +0.000 A 
ATOM      8  O   UNL     1       4.302   1.912  20.091  0.00  0.00    +0.000 OA
ATOM      9  O   UNL     1       5.523   3.323  18.754  0.00  0.00    +0.000 OA
ATOM     10  C   UNL     1       5.752   4.625  18.226  0.00  0.00    +0.000 A 
ATOM     11  C   UNL     1       6.901   4.759  17.444  0.00  0.00    +0.000 A 
ATOM     12  C   UNL     1       7.205   6.003  16.904  0.00  0.00    +0.000 A 
ATOM     13  C   UNL     1       6.393   7.098  17.195  0.00  0.00    +0.000 A 
ATOM     14  C   UNL     1       5.269   6.957  18.023  0.00  0.00    +0.000 A 
ATOM     15  C   UNL     1       4.891   5.705  18.506  0.00  0.00    +0.000 A 
ENDROOT
BRANCH   4  16
ATOM     16  C   UNL     1       2.112   7.408  19.361  0.00  0.00    +0.000 A 
ATOM     17  C   UNL     1       2.012   7.690  17.987  0.00  0.00    +0.000 A 
ATOM     18  C   UNL     1       1.585   8.943  17.543  0.00  0.00    +0.000 A 
ATOM     19  C   UNL     1       1.201   9.911  18.464  0.00  0.00    +0.000 A 
ATOM     20  C   UNL     1       1.230   9.618  19.827  0.00  0.00    +0.000 A 
ATOM     21  C   UNL     1       1.697   8.380  20.299  0.00  0.00    +0.000 A 
BRANCH  21  22
ATOM     22  N   UNL     1       1.576   8.136  21.672  0.00  0.00    +0.000 N 
ATOM     23  H   UNL     1       2.189   7.437  22.068  0.00  0.00    +0.000 HD
ATOM     24  H   UNL     1       0.608   8.107  22.003  0.00  0.00    +0.000 HD
ENDBRANCH  21  22
ENDBRANCH   4  16
TORSDOF 2
ENDMDL
MODEL 2
REMARK VINA RESULT:      -8.0      1.242      1.242
REMARK  Name = 
REMARK  3 active torsions:
REMARK  status: ('A' for Active; 'I' for Inactive)
REMARK    1  A    between atoms: C_1  and  C_2
REMARK    2  A    between atoms: N_4  and  C_5
REMARK    3  A    between atoms: C_10  and  N_11
REMARK                            x       y       z     vdW  Elec       q    Type
REMARK                         _______ _______ _______ _____ _____    ______ ____
ROOT
ATOM      1  C   UNL     1       1.456   3.082  21.192  0.00  0.00    +0.000 C 
ATOM      2  C   UNL     1       2.025   4.116  20.289  0.00  0.00    +0.000 A 
ATOM      3  N   UNL     1       1.848   5.414  20.540  0.00  0.00    +0.000 NA
ATOM      4  N   UNL     1       2.304   6.067  19.427  0.00  0.00    +0.000 N 
ATOM      5  C   UNL     1       3.050   5.192  18.627  0.00  0.00    +0.000 A 
ATOM      6  C   UNL     1       2.819   3.928  19.150  0.00  0.00    +0.000 A 
ATOM      7  C   UNL     1       3.360   2.722  18.572  0.00  0.00    +0.000 A 
ATOM      8  O   UNL     1       3.145   1.602  19.028  0.00  0.00    +0.000 OA
ATOM      9  O   UNL     1       4.162   2.907  17.435  0.00  0.00    +0.000 OA
ATOM     10  C   UNL     1       4.472   4.195  16.916  0.00  0.00    +0.000 A 
ATOM     11  C   UNL     1       5.339   4.206  15.822  0.00  0.00    +0.000 A 
ATOM     12  C   UNL     1       5.703   5.426  15.265  0.00  0.00    +0.000 A 
ATOM     13  C   UNL     1       5.244   6.610  15.838  0.00  0.00    +0.000 A 
ATOM     14  C   UNL     1       4.413   6.584  16.968  0.00  0.00    +0.000 A 
ATOM     15  C   UNL     1       3.960   5.375  17.493  0.00  0.00    +0.000 A 
ENDROOT
BRANCH   4  16
ATOM     16  C   UNL     1       1.948   7.438  19.239  0.00  0.00    +0.000 A 
ATOM     17  C   UNL     1       1.861   7.955  17.935  0.00  0.00    +0.000 A 
ATOM     18  C   UNL     1       1.585   9.307  17.717  0.00  0.00    +0.000 A 
ATOM     19  C   UNL     1       1.340  10.146  18.797  0.00  0.00    +0.000 A 
ATOM     20  C   UNL     1       1.354   9.629  20.092  0.00  0.00    +0.000 A 
ATOM     21  C   UNL     1       1.672   8.282  20.338  0.00  0.00    +0.000 A 
BRANCH  21  22
ATOM     22  N   UNL     1       1.544   7.830  21.657  0.00  0.00    +0.000 N 
ATOM     23  H   UNL     1       1.547   8.533  22.383  0.00  0.00    +0.000 HD
ATOM     24  H   UNL     1       2.090   6.988  21.859  0.00  0.00    +0.000 HD
ENDBRANCH  21  22
ENDBRANCH   4  16
TORSDOF 2
ENDMDL
MODEL 3
REMARK VINA RESULT:      -7.9      2.413      5.021
REMARK  Name = 
REMARK  3 active torsions:
REMARK  status: ('A' for Active; 'I' for Inactive)
REMARK    1  A    between atoms: C_1  and  C_2
REMARK    2  A    between atoms: N_4  and  C_5
REMARK    3  A    between atoms: C_10  and  N_11
REMARK                            x       y       z     vdW  Elec       q    Type
REMARK                         _______ _______ _______ _____ _____    ______ ____
ROOT
ATOM      1  C   UNL     1       3.880   1.546  20.649  0.00  0.00    +0.000 C 
ATOM      2  C   UNL     1       3.892   2.743  19.770  0.00  0.00    +0.000 A 
ATOM      3  N   UNL     1       4.475   2.704  18.570  0.00  0.00    +0.000 NA
ATOM      4  N   UNL     1       4.490   4.000  18.130  0.00  0.00    +0.000 N 
ATOM      5  C   UNL     1       3.637   4.786  18.915  0.00  0.00    +0.000 A 
ATOM      6  C   UNL     1       3.302   3.992  20.001  0.00  0.00    +0.000 A 
ATOM      7  C   UNL     1       2.477   4.452  21.092  0.00  0.00    +0.000 A 
ATOM      8  O   UNL     1       2.191   3.755  22.060  0.00  0.00    +0.000 OA
ATOM      9  O   UNL     1       2.012   5.773  20.980  0.00  0.00    +0.000 OA
ATOM     10  C   UNL     1       2.284   6.587  19.845  0.00  0.00    +0.000 A 
ATOM     11  C   UNL     1       1.689   7.851  19.860  0.00  0.00    +0.000 A 
ATOM     12  C   UNL     1       1.893   8.702  18.782  0.00  0.00    +0.000 A 
ATOM     13  C   UNL     1       2.636   8.264  17.687  0.00  0.00    +0.000 A 
ATOM     14  C   UNL     1       3.185   6.973  17.665  0.00  0.00    +0.000 A 
ATOM     15  C   UNL     1       3.072   6.130  18.770  0.00  0.00    +0.000 A 
ENDROOT
BRANCH   4  16
ATOM     16  C   UNL     1       5.341   4.344  17.035  0.00  0.00    +0.000 A 
ATOM     17  C   UNL     1       4.777   4.566  15.767  0.00  0.00    +0.000 A 
ATOM     18  C   UNL     1       5.586   4.834  14.660  0.00  0.00    +0.000 A 
ATOM     19  C   UNL     1       6.963   4.937  14.817  0.00  0.00    +0.000 A 
ATOM     20  C   UNL     1       7.527   4.789  16.083  0.00  0.00    +0.000 A 
ATOM     21  C   UNL     1       6.738   4.476  17.203  0.00  0.00    +0.000 A 
BRANCH  21  22
ATOM     22  N   UNL     1       7.378   4.464  18.448  0.00  0.00    +0.000 N 
ATOM     23  H   UNL     1       8.376   4.304  18.448  0.00  0.00    +0.000 HD
ATOM     24  H   UNL     1       6.856   3.970  19.177  0.00  0.00    +0.000 HD
ENDBRANCH  21  22
ENDBRANCH   4  16
TORSDOF 2
ENDMDL
MODEL 4
REMARK VINA RESULT:      -7.8      2.613      5.446
REMARK  Name = 
REMARK  3 active torsions:
REMARK  status: ('A' for Active; 'I' for Inactive)
REMARK    1  A    between atoms: C_1  and  C_2
REMARK    2  A    between atoms: N_4  and  C_5
REMARK    3  A    between atoms: C_10  and  N_11
REMARK                            x       y       z     vdW  Elec       q    Type
REMARK                         _______ _______ _______ _____ _____    ______ ____
ROOT
ATOM      1  C   UNL     1       6.034   3.915  15.932  0.00  0.00    +0.000 C 
ATOM      2  C   UNL     1       5.091   4.430  16.958  0.00  0.00    +0.000 A 
ATOM      3  N   UNL     1       4.786   3.702  18.034  0.00  0.00    +0.000 NA
ATOM      4  N   UNL     1       3.755   4.364  18.643  0.00  0.00    +0.000 N 
ATOM      5  C   UNL     1       3.637   5.658  18.120  0.00  0.00    +0.000 A 
ATOM      6  C   UNL     1       4.454   5.677  16.999  0.00  0.00    +0.000 A 
ATOM      7  C   UNL     1       4.573   6.821  16.127  0.00  0.00    +0.000 A 
ATOM      8  O   UNL     1       5.285   6.834  15.128  0.00  0.00    +0.000 OA
ATOM      9  O   UNL     1       3.809   7.940  16.495  0.00  0.00    +0.000 OA
ATOM     10  C   UNL     1       3.015   7.973  17.676  0.00  0.00    +0.000 A 
ATOM     11  C   UNL     1       2.373   9.186  17.932  0.00  0.00    +0.000 A 
ATOM     12  C   UNL     1       1.591   9.305  19.073  0.00  0.00    +0.000 A 
ATOM     13  C   UNL     1       1.505   8.237  19.965  0.00  0.00    +0.000 A 
ATOM     14  C   UNL     1       2.196   7.042  19.719  0.00  0.00    +0.000 A 
ATOM     15  C   UNL     1       2.916   6.863  18.539  0.00  0.00    +0.000 A 
ENDROOT
BRANCH   4  16
ATOM     16  C   UNL     1       2.982   3.675  19.628  0.00  0.00    +0.000 A 
ATOM     17  C   UNL     1       1.589   3.859  19.662  0.00  0.00    +0.000 A 
ATOM     18  C   UNL     1       0.811   3.257  20.655  0.00  0.00    +0.000 A 
ATOM     19  C   UNL     1       1.409   2.422  21.591  0.00  0.00    +0.000 A 
ATOM     20  C   UNL     1       2.779   2.176  21.523  0.00  0.00    +0.000 A 
ATOM     21  C   UNL     1       3.588   2.804  20.561  0.00  0.00    +0.000 A 
BRANCH  21  22
ATOM     22  N   UNL     1       4.928   2.404  20.498  0.00  0.00    +0.000 N 
ATOM     23  H   UNL     1       5.116   1.417  20.608  0.00  0.00    +0.000 HD
ATOM     24  H   UNL     1       5.570   3.030  20.992  0.00  0.00    +0.000 HD
ENDBRANCH  21  22
ENDBRANCH   4  16
TORSDOF 2
ENDMDL
MODEL 5
REMARK VINA RESULT:      -7.6      2.576      5.537
REMARK  Name = 
REMARK  3 active torsions:
REMARK  status: ('A' for Active; 'I' for Inactive)
REMARK    1  A    between atoms: C_1  and  C_2
REMARK    2  A    between atoms: N_4  and  C_5
REMARK    3  A    between atoms: C_10  and  N_11
REMARK                            x       y       z     vdW  Elec       q    Type
REMARK                         _______ _______ _______ _____ _____    ______ ____
ROOT
ATOM      1  C   UNL     1       2.212   9.164  18.176  0.00  0.00    +0.000 C 
ATOM      2  C   UNL     1       2.881   7.839  18.250  0.00  0.00    +0.000 A 
ATOM      3  N   UNL     1       3.919   7.552  17.462  0.00  0.00    +0.000 NA
ATOM      4  N   UNL     1       4.148   6.214  17.632  0.00  0.00    +0.000 N 
ATOM      5  C   UNL     1       3.458   5.746  18.758  0.00  0.00    +0.000 A 
ATOM      6  C   UNL     1       2.599   6.775  19.116  0.00  0.00    +0.000 A 
ATOM      7  C   UNL     1       1.655   6.674  20.203  0.00  0.00    +0.000 A 
ATOM      8  O   UNL     1       0.886   7.580  20.512  0.00  0.00    +0.000 OA
ATOM      9  O   UNL     1       1.668   5.456  20.901  0.00  0.00    +0.000 OA
ATOM     10  C   UNL     1       2.584   4.409  20.599  0.00  0.00    +0.000 A 
ATOM     11  C   UNL     1       2.509   3.291  21.433  0.00  0.00    +0.000 A 
ATOM     12  C   UNL     1       3.379   2.231  21.215  0.00  0.00    +0.000 A 
ATOM     13  C   UNL     1       4.341   2.323  20.210  0.00  0.00    +0.000 A 
ATOM     14  C   UNL     1       4.436   3.474  19.413  0.00  0.00    +0.000 A 
ATOM     15  C   UNL     1       3.519   4.515  19.551  0.00  0.00    +0.000 A 
ENDROOT
BRANCH   4  16
ATOM     16  C   UNL     1       4.970   5.530  16.684  0.00  0.00    +0.000 A 
ATOM     17  C   UNL     1       4.437   4.447  15.964  0.00  0.00    +0.000 A 
ATOM     18  C   UNL     1       5.233   3.712  15.082  0.00  0.00    +0.000 A 
ATOM     19  C   UNL     1       6.555   4.084  14.868  0.00  0.00    +0.000 A 
ATOM     20  C   UNL     1       7.073   5.200  15.524  0.00  0.00    +0.000 A 
ATOM     21  C   UNL     1       6.305   5.928  16.448  0.00  0.00    +0.000 A 
BRANCH  21  22
ATOM     22  N   UNL     1       6.873   7.099  16.964  0.00  0.00    +0.000 N 
ATOM     23  H   UNL     1       7.845   7.270  16.746  0.00  0.00    +0.000 HD
ATOM     24  H   UNL     1       6.599   7.300  17.930  0.00  0.00    +0.000 HD
ENDBRANCH  21  22
ENDBRANCH   4  16
TORSDOF 2
ENDMDL
MODEL 6
REMARK VINA RESULT:      -7.5      2.596      5.527
REMARK  Name = 
REMARK  3 active torsions:
REMARK  status: ('A' for Active; 'I' for Inactive)
REMARK    1  A    between atoms: C_1  and  C_2
REMARK    2  A    between atoms: N_4  and  C_5
REMARK    3  A    between atoms: C_10  and  N_11
REMARK                            x       y       z     vdW  Elec       q    Type
REMARK                         _______ _______ _______ _____ _____    ______ ____
ROOT
ATOM      1  C   UNL     1       6.113   4.017  15.991  0.00  0.00    +0.000 C 
ATOM      2  C   UNL     1       5.132   4.522  16.987  0.00  0.00    +0.000 A 
ATOM      3  N   UNL     1       4.803   3.791  18.054  0.00  0.00    +0.000 NA
ATOM      4  N   UNL     1       3.746   4.441  18.630  0.00  0.00    +0.000 N 
ATOM      5  C   UNL     1       3.629   5.733  18.102  0.00  0.00    +0.000 A 
ATOM      6  C   UNL     1       4.480   5.761  17.007  0.00  0.00    +0.000 A 
ATOM      7  C   UNL     1       4.612   6.905  16.137  0.00  0.00    +0.000 A 
ATOM      8  O   UNL     1       5.355   6.926  15.161  0.00  0.00    +0.000 OA
ATOM      9  O   UNL     1       3.824   8.016  16.480  0.00  0.00    +0.000 OA
ATOM     10  C   UNL     1       2.994   8.040  17.636  0.00  0.00    +0.000 A 
ATOM     11  C   UNL     1       2.330   9.246  17.870  0.00  0.00    +0.000 A 
ATOM     12  C   UNL     1       1.511   9.357  18.986  0.00  0.00    +0.000 A 
ATOM     13  C   UNL     1       1.410   8.289  19.876  0.00  0.00    +0.000 A 
ATOM     14  C   UNL     1       2.123   7.101  19.654  0.00  0.00    +0.000 A 
ATOM     15  C   UNL     1       2.881   6.930  18.497  0.00  0.00    +0.000 A 
ENDROOT
BRANCH   4  16
ATOM     16  C   UNL     1       2.951   3.744  19.591  0.00  0.00    +0.000 A 
ATOM     17  C   UNL     1       2.838   4.258  20.895  0.00  0.00    +0.000 A 
ATOM     18  C   UNL     1       2.128   3.566  21.878  0.00  0.00    +0.000 A 
ATOM     19  C   UNL     1       1.477   2.380  21.558  0.00  0.00    +0.000 A 
ATOM     20  C   UNL     1       1.524   1.898  20.251  0.00  0.00    +0.000 A 
ATOM     21  C   UNL     1       2.268   2.554  19.255  0.00  0.00    +0.000 A 
BRANCH  21  22
ATOM     22  N   UNL     1       2.157   2.060  17.950  0.00  0.00    +0.000 N 
ATOM     23  H   UNL     1       1.475   1.331  17.794  0.00  0.00    +0.000 HD
ATOM     24  H   UNL     1       3.057   1.926  17.481  0.00  0.00    +0.000 HD
ENDBRANCH  21  22
ENDBRANCH   4  16
TORSDOF 2
ENDMDL
MODEL 7
REMARK VINA RESULT:      -7.5      1.735      4.167
REMARK  Name = 
REMARK  3 active torsions:
REMARK  status: ('A' for Active; 'I' for Inactive)
REMARK    1  A    between atoms: C_1  and  C_2
REMARK    2  A    between atoms: N_4  and  C_5
REMARK    3  A    between atoms: C_10  and  N_11
REMARK                            x       y       z     vdW  Elec       q    Type
REMARK                         _______ _______ _______ _____ _____    ______ ____
ROOT
ATOM      1  C   UNL     1       5.577   7.023  16.115  0.00  0.00    +0.000 C 
ATOM      2  C   UNL     1       4.476   6.693  17.055  0.00  0.00    +0.000 A 
ATOM      3  N   UNL     1       3.600   7.625  17.437  0.00  0.00    +0.000 NA
ATOM      4  N   UNL     1       2.871   7.052  18.443  0.00  0.00    +0.000 N 
ATOM      5  C   UNL     1       3.085   5.668  18.465  0.00  0.00    +0.000 A 
ATOM      6  C   UNL     1       4.159   5.448  17.614  0.00  0.00    +0.000 A 
ATOM      7  C   UNL     1       4.744   4.147  17.399  0.00  0.00    +0.000 A 
ATOM      8  O   UNL     1       5.702   3.954  16.656  0.00  0.00    +0.000 OA
ATOM      9  O   UNL     1       4.141   3.092  18.102  0.00  0.00    +0.000 OA
ATOM     10  C   UNL     1       2.996   3.276  18.928  0.00  0.00    +0.000 A 
ATOM     11  C   UNL     1       2.479   2.112  19.501  0.00  0.00    +0.000 A 
ATOM     12  C   UNL     1       1.353   2.204  20.309  0.00  0.00    +0.000 A 
ATOM     13  C   UNL     1       0.732   3.439  20.488  0.00  0.00    +0.000 A 
ATOM     14  C   UNL     1       1.234   4.591  19.865  0.00  0.00    +0.000 A 
ATOM     15  C   UNL     1       2.413   4.544  19.122  0.00  0.00    +0.000 A 
ENDROOT
BRANCH   4  16
ATOM     16  C   UNL     1       2.083   7.893  19.287  0.00  0.00    +0.000 A 
ATOM     17  C   UNL     1       1.953   7.575  20.650  0.00  0.00    +0.000 A 
ATOM     18  C   UNL     1       1.134   8.334  21.488  0.00  0.00    +0.000 A 
ATOM     19  C   UNL     1       0.477   9.452  20.988  0.00  0.00    +0.000 A 
ATOM     20  C   UNL     1       0.655   9.818  19.654  0.00  0.00    +0.000 A 
ATOM     21  C   UNL     1       1.439   9.045  18.781  0.00  0.00    +0.000 A 
BRANCH  21  22
ATOM     22  N   UNL     1       1.653   9.557  17.496  0.00  0.00    +0.000 N 
ATOM     23  H   UNL     1       2.163  10.427  17.430  0.00  0.00    +0.000 HD
ATOM     24  H   UNL     1       0.840   9.478  16.880  0.00  0.00    +0.000 HD
ENDBRANCH  21  22
ENDBRANCH   4  16
TORSDOF 2
ENDMDL
MODEL 8
REMARK VINA RESULT:      -7.1      1.211      3.798
REMARK  Name = 
REMARK  3 active torsions:
REMARK  status: ('A' for Active; 'I' for Inactive)
REMARK    1  A    between atoms: C_1  and  C_2
REMARK    2  A    between atoms: N_4  and  C_5
REMARK    3  A    between atoms: C_10  and  N_11
REMARK                            x       y       z     vdW  Elec       q    Type
REMARK                         _______ _______ _______ _____ _____    ______ ____
ROOT
ATOM      1  C   UNL     1       6.607   6.998  17.115  0.00  0.00    +0.000 C 
ATOM      2  C   UNL     1       5.273   6.723  17.709  0.00  0.00    +0.000 A 
ATOM      3  N   UNL     1       4.257   7.569  17.529  0.00  0.00    +0.000 NA
ATOM      4  N   UNL     1       3.266   7.133  18.365  0.00  0.00    +0.000 N 
ATOM      5  C   UNL     1       3.554   5.841  18.822  0.00  0.00    +0.000 A 
ATOM      6  C   UNL     1       4.869   5.604  18.449  0.00  0.00    +0.000 A 
ATOM      7  C   UNL     1       5.581   4.395  18.786  0.00  0.00    +0.000 A 
ATOM      8  O   UNL     1       6.748   4.190  18.467  0.00  0.00    +0.000 OA
ATOM      9  O   UNL     1       4.846   3.447  19.515  0.00  0.00    +0.000 OA
ATOM     10  C   UNL     1       3.476   3.634  19.853  0.00  0.00    +0.000 A 
ATOM     11  C   UNL     1       2.874   2.565  20.520  0.00  0.00    +0.000 A 
ATOM     12  C   UNL     1       1.534   2.661  20.873  0.00  0.00    +0.000 A 
ATOM     13  C   UNL     1       0.805   3.792  20.509  0.00  0.00    +0.000 A 
ATOM     14  C   UNL     1       1.411   4.836  19.794  0.00  0.00    +0.000 A 
ATOM     15  C   UNL     1       2.775   4.805  19.506  0.00  0.00    +0.000 A 
ENDROOT
BRANCH   4  16
ATOM     16  C   UNL     1       2.177   8.011  18.657  0.00  0.00    +0.000 A 
ATOM     17  C   UNL     1       1.481   8.622  17.600  0.00  0.00    +0.000 A 
ATOM     18  C   UNL     1       0.458   9.540  17.851  0.00  0.00    +0.000 A 
ATOM     19  C   UNL     1       0.083   9.818  19.159  0.00  0.00    +0.000 A 
ATOM     20  C   UNL     1       0.719   9.164  20.214  0.00  0.00    +0.000 A 
ATOM     21  C   UNL     1       1.779   8.270  19.988  0.00  0.00    +0.000 A 
BRANCH  21  22
ATOM     22  N   UNL     1       2.274   7.576  21.099  0.00  0.00    +0.000 N 
ATOM     23  H   UNL     1       1.752   7.662  21.961  0.00  0.00    +0.000 HD
ATOM     24  H   UNL     1       3.291   7.625  21.197  0.00  0.00    +0.000 HD
ENDBRANCH  21  22
ENDBRANCH   4  16
TORSDOF 2
ENDMDL
MODEL 9
REMARK VINA RESULT:      -7.1      1.787      3.845
REMARK  Name = 
REMARK  3 active torsions:
REMARK  status: ('A' for Active; 'I' for Inactive)
REMARK    1  A    between atoms: C_1  and  C_2
REMARK    2  A    between atoms: N_4  and  C_5
REMARK    3  A    between atoms: C_10  and  N_11
REMARK                            x       y       z     vdW  Elec       q    Type
REMARK                         _______ _______ _______ _____ _____    ______ ____
ROOT
ATOM      1  C   UNL     1       7.064   7.342  17.115  0.00  0.00    +0.000 C 
ATOM      2  C   UNL     1       5.667   6.932  17.411  0.00  0.00    +0.000 A 
ATOM      3  N   UNL     1       4.689   7.837  17.482  0.00  0.00    +0.000 NA
ATOM      4  N   UNL     1       3.602   7.163  17.969  0.00  0.00    +0.000 N 
ATOM      5  C   UNL     1       3.821   5.781  17.899  0.00  0.00    +0.000 A 
ATOM      6  C   UNL     1       5.167   5.637  17.597  0.00  0.00    +0.000 A 
ATOM      7  C   UNL     1       5.821   4.354  17.494  0.00  0.00    +0.000 A 
ATOM      8  O   UNL     1       7.014   4.226  17.240  0.00  0.00    +0.000 OA
ATOM      9  O   UNL     1       4.995   3.239  17.706  0.00  0.00    +0.000 OA
ATOM     10  C   UNL     1       3.597   3.355  17.950  0.00  0.00    +0.000 A 
ATOM     11  C   UNL     1       2.909   2.145  18.070  0.00  0.00    +0.000 A 
ATOM     12  C   UNL     1       1.539   2.171  18.294  0.00  0.00    +0.000 A 
ATOM     13  C   UNL     1       0.870   3.393  18.339  0.00  0.00    +0.000 A 
ATOM     14  C   UNL     1       1.567   4.598  18.167  0.00  0.00    +0.000 A 
ATOM     15  C   UNL     1       2.955   4.606  18.029  0.00  0.00    +0.000 A 
ENDROOT
BRANCH   4  16
ATOM     16  C   UNL     1       2.498   7.915  18.476  0.00  0.00    +0.000 A 
ATOM     17  C   UNL     1       1.838   8.824  17.631  0.00  0.00    +0.000 A 
ATOM     18  C   UNL     1       0.800   9.626  18.113  0.00  0.00    +0.000 A 
ATOM     19  C   UNL     1       0.375   9.491  19.429  0.00  0.00    +0.000 A 
ATOM     20  C   UNL     1       0.975   8.542  20.256  0.00  0.00    +0.000 A 
ATOM     21  C   UNL     1       2.049   7.755  19.806  0.00  0.00    +0.000 A 
BRANCH  21  22
ATOM     22  N   UNL     1       2.506   6.751  20.668  0.00  0.00    +0.000 N 
ATOM     23  H   UNL     1       2.741   5.862  20.250  0.00  0.00    +0.000 HD
ATOM     24  H   UNL     1       1.989   6.698  21.550  0.00  0.00    +0.000 HD
ENDBRANCH  21  22
ENDBRANCH   4  16
TORSDOF 2
ENDMDL
