MODEL 1
REMARK VINA RESULT:      -7.5      0.000      0.000
REMARK  Name = 
REMARK  5 active torsions:
REMARK  status: ('A' for Active; 'I' for Inactive)
REMARK    1  A    between atoms: C_1  and  C_2
REMARK    2  A    between atoms: C_2  and  O_3
REMARK    3  A    between atoms: C_2  and  C_4
REMARK    4  A    between atoms: N_12  and  C_13
REMARK    5  A    between atoms: C_13  and  C_14
REMARK                            x       y       z     vdW  Elec       q    Type
REMARK                         _______ _______ _______ _____ _____    ______ ____
ROOT
ATOM      1  C   UNL     1       6.071   4.542  18.216  0.00  0.00    +0.000 A 
ATOM      2  N   UNL     1       5.650   3.806  19.233  0.00  0.00    +0.000 NA
ATOM      3  C   UNL     1       4.338   3.520  18.978  0.00  0.00    +0.000 A 
ATOM      4  C   UNL     1       3.417   2.815  19.767  0.00  0.00    +0.000 A 
ATOM      5  C   UNL     1       2.120   2.620  19.280  0.00  0.00    +0.000 A 
ATOM      6  C   UNL     1       1.753   3.107  18.025  0.00  0.00    +0.000 A 
ATOM      7  C   UNL     1       2.654   3.833  17.232  0.00  0.00    +0.000 A 
ATOM      8  C   UNL     1       3.939   4.038  17.754  0.00  0.00    +0.000 A 
ATOM      9  N   UNL     1       5.037   4.760  17.323  0.00  0.00    +0.000 N 
ENDROOT
BRANCH   1  11
ATOM     10  C   UNL     1       7.935   5.763  19.376  0.00  0.00    +0.000 C 
ATOM     11  C   UNL     1       7.450   5.116  18.083  0.00  0.00    +0.000 C 
BRANCH  11  12
ATOM     12  O   UNL     1       8.338   4.052  17.732  0.00  0.00    +0.000 OA
ATOM     13  H   UNL     1       8.450   3.508  18.532  0.00  0.00    +0.000 HD
ENDBRANCH  11  12
ENDBRANCH   1  11
BRANCH   9  14
ATOM     14  C   UNL     1       5.049   5.671  16.184  0.00  0.00    +0.000 C 
BRANCH  14  15
ATOM     15  C   UNL     1       5.682   5.026  14.970  0.00  0.00    +0.000 A 
ATOM     16  C   UNL     1       6.979   5.381  14.572  0.00  0.00    +0.000 A 
ATOM     17  C   UNL     1       7.541   4.838  13.413  0.00  0.00    +0.000 A 
ATOM     18  C   UNL     1       6.818   3.926  12.647  0.00  0.00    +0.000 A 
ATOM     19  C   UNL     1       5.546   3.537  13.048  0.00  0.00    +0.000 A 
ATOM     20  C   UNL     1       4.982   4.076  14.207  0.00  0.00    +0.000 A 
ENDBRANCH  14  15
ENDBRANCH   9  14
TORSDOF 4
ENDMDL
MODEL 2
REMARK VINA RESULT:      -7.3      0.093      1.110
REMARK  Name = 
REMARK  5 active torsions:
REMARK  status: ('A' for Active; 'I' for Inactive)
REMARK    1  A    between atoms: C_1  and  C_2
REMARK    2  A    between atoms: C_2  and  O_3
REMARK    3  A    between atoms: C_2  and  C_4
REMARK    4  A    between atoms: N_12  and  C_13
REMARK    5  A    between atoms: C_13  and  C_14
REMARK                            x       y       z     vdW  Elec       q    Type
REMARK                         _______ _______ _______ _____ _____    ______ ____
ROOT
ATOM      1  C   UNL     1       6.065   4.558  18.246  0.00  0.00    +0.000 A 
ATOM      2  N   UNL     1       5.653   3.800  19.250  0.00  0.00    +0.000 NA
ATOM      3  C   UNL     1       4.333   3.536  19.011  0.00  0.00    +0.000 A 
ATOM      4  C   UNL     1       3.418   2.822  19.798  0.00  0.00    +0.000 A 
ATOM      5  C   UNL     1       2.111   2.655  19.330  0.00  0.00    +0.000 A 
ATOM      6  C   UNL     1       1.726   3.179  18.095  0.00  0.00    +0.000 A 
ATOM      7  C   UNL     1       2.622   3.915  17.305  0.00  0.00    +0.000 A 
ATOM      8  C   UNL     1       3.918   4.092  17.809  0.00  0.00    +0.000 A 
ATOM      9  N   UNL     1       5.017   4.812  17.378  0.00  0.00    +0.000 N 
ENDROOT
BRANCH   1  11
ATOM     10  C   UNL     1       7.949   5.760  19.394  0.00  0.00    +0.000 C 
ATOM     11  C   UNL     1       7.448   5.120  18.103  0.00  0.00    +0.000 C 
BRANCH  11  12
ATOM     12  O   UNL     1       8.324   4.048  17.744  0.00  0.00    +0.000 OA
ATOM     13  H   UNL     1       8.675   4.261  16.861  0.00  0.00    +0.000 HD
ENDBRANCH  11  12
ENDBRANCH   1  11
BRANCH   9  14
ATOM     14  C   UNL     1       5.020   5.754  16.263  0.00  0.00    +0.000 C 
BRANCH  14  15
ATOM     15  C   UNL     1       5.638   5.139  15.026  0.00  0.00    +0.000 A 
ATOM     16  C   UNL     1       4.926   4.199  14.268  0.00  0.00    +0.000 A 
ATOM     17  C   UNL     1       5.519   3.578  13.166  0.00  0.00    +0.000 A 
ATOM     18  C   UNL     1       6.824   3.898  12.801  0.00  0.00    +0.000 A 
ATOM     19  C   UNL     1       7.531   4.854  13.521  0.00  0.00    +0.000 A 
ATOM     20  C   UNL     1       6.941   5.478  14.622  0.00  0.00    +0.000 A 
ENDBRANCH  14  15
ENDBRANCH   9  14
TORSDOF 4
ENDMDL
MODEL 3
REMARK VINA RESULT:      -7.2      3.013      4.443
REMARK  Name = 
REMARK  5 active torsions:
REMARK  status: ('A' for Active; 'I' for Inactive)
REMARK    1  A    between atoms: C_1  and  C_2
REMARK    2  A    between atoms: C_2  and  O_3
REMARK    3  A    between atoms: C_2  and  C_4
REMARK    4  A    between atoms: N_12  and  C_13
REMARK    5  A    between atoms: C_13  and  C_14
REMARK                            x       y       z     vdW  Elec       q    Type
REMARK                         _______ _______ _______ _____ _____    ______ ____
ROOT
ATOM      1  C   UNL     1       3.162   3.876  18.992  0.00  0.00    +0.000 A 
ATOM      2  N   UNL     1       2.406   4.234  20.018  0.00  0.00    +0.000 NA
ATOM      3  C   UNL     1       2.209   5.582  19.893  0.00  0.00    +0.000 A 
ATOM      4  C   UNL     1       1.525   6.458  20.748  0.00  0.00    +0.000 A 
ATOM      5  C   UNL     1       1.429   7.808  20.395  0.00  0.00    +0.000 A 
ATOM      6  C   UNL     1       1.993   8.273  19.207  0.00  0.00    +0.000 A 
ATOM      7  C   UNL     1       2.700   7.415  18.352  0.00  0.00    +0.000 A 
ATOM      8  C   UNL     1       2.806   6.072  18.741  0.00  0.00    +0.000 A 
ATOM      9  N   UNL     1       3.481   4.982  18.224  0.00  0.00    +0.000 N 
ENDROOT
BRANCH   1  11
ATOM     10  C   UNL     1       4.429   1.916  19.924  0.00  0.00    +0.000 C 
ATOM     11  C   UNL     1       3.660   2.484  18.735  0.00  0.00    +0.000 C 
BRANCH  11  12
ATOM     12  O   UNL     1       2.527   1.653  18.472  0.00  0.00    +0.000 OA
ATOM     13  H   UNL     1       2.764   1.095  17.709  0.00  0.00    +0.000 HD
ENDBRANCH  11  12
ENDBRANCH   1  11
BRANCH   9  14
ATOM     14  C   UNL     1       4.442   5.031  17.127  0.00  0.00    +0.000 C 
BRANCH  14  15
ATOM     15  C   UNL     1       5.738   5.682  17.560  0.00  0.00    +0.000 A 
ATOM     16  C   UNL     1       6.507   5.117  18.588  0.00  0.00    +0.000 A 
ATOM     17  C   UNL     1       7.668   5.752  19.038  0.00  0.00    +0.000 A 
ATOM     18  C   UNL     1       8.079   6.950  18.458  0.00  0.00    +0.000 A 
ATOM     19  C   UNL     1       7.347   7.504  17.415  0.00  0.00    +0.000 A 
ATOM     20  C   UNL     1       6.187   6.871  16.962  0.00  0.00    +0.000 A 
ENDBRANCH  14  15
ENDBRANCH   9  14
TORSDOF 4
ENDMDL
MODEL 4
REMARK VINA RESULT:      -7.1      3.431      4.957
REMARK  Name = 
REMARK  5 active torsions:
REMARK  status: ('A' for Active; 'I' for Inactive)
REMARK    1  A    between atoms: C_1  and  C_2
REMARK    2  A    between atoms: C_2  and  O_3
REMARK    3  A    between atoms: C_2  and  C_4
REMARK    4  A    between atoms: N_12  and  C_13
REMARK    5  A    between atoms: C_13  and  C_14
REMARK                            x       y       z     vdW  Elec       q    Type
REMARK                         _______ _______ _______ _____ _____    ______ ____
ROOT
ATOM      1  C   UNL     1       2.640   4.809  19.847  0.00  0.00    +0.000 A 
ATOM      2  N   UNL     1       1.958   5.586  20.674  0.00  0.00    +0.000 NA
ATOM      3  C   UNL     1       1.890   6.813  20.074  0.00  0.00    +0.000 A 
ATOM      4  C   UNL     1       1.324   8.003  20.555  0.00  0.00    +0.000 A 
ATOM      5  C   UNL     1       1.349   9.140  19.742  0.00  0.00    +0.000 A 
ATOM      6  C   UNL     1       1.916   9.089  18.467  0.00  0.00    +0.000 A 
ATOM      7  C   UNL     1       2.506   7.914  17.979  0.00  0.00    +0.000 A 
ATOM      8  C   UNL     1       2.493   6.795  18.824  0.00  0.00    +0.000 A 
ATOM      9  N   UNL     1       3.040   5.528  18.734  0.00  0.00    +0.000 N 
ENDROOT
BRANCH   1  11
ATOM     10  C   UNL     1       2.531   2.907  21.486  0.00  0.00    +0.000 C 
ATOM     11  C   UNL     1       2.990   3.374  20.108  0.00  0.00    +0.000 C 
BRANCH  11  12
ATOM     12  O   UNL     1       2.350   2.576  19.109  0.00  0.00    +0.000 OA
ATOM     13  H   UNL     1       2.136   1.724  19.529  0.00  0.00    +0.000 HD
ENDBRANCH  11  12
ENDBRANCH   1  11
BRANCH   9  14
ATOM     14  C   UNL     1       3.963   5.083  17.696  0.00  0.00    +0.000 C 
BRANCH  14  15
ATOM     15  C   UNL     1       5.354   5.633  17.925  0.00  0.00    +0.000 A 
ATOM     16  C   UNL     1       6.137   5.162  18.989  0.00  0.00    +0.000 A 
ATOM     17  C   UNL     1       7.395   5.716  19.245  0.00  0.00    +0.000 A 
ATOM     18  C   UNL     1       7.887   6.736  18.435  0.00  0.00    +0.000 A 
ATOM     19  C   UNL     1       7.138   7.189  17.356  0.00  0.00    +0.000 A 
ATOM     20  C   UNL     1       5.882   6.636  17.095  0.00  0.00    +0.000 A 
ENDBRANCH  14  15
ENDBRANCH   9  14
TORSDOF 4
ENDMDL
MODEL 5
REMARK VINA RESULT:      -7.1      3.481      4.980
REMARK  Name = 
REMARK  5 active torsions:
REMARK  status: ('A' for Active; 'I' for Inactive)
REMARK    1  A    between atoms: C_1  and  C_2
REMARK    2  A    between atoms: C_2  and  O_3
REMARK    3  A    between atoms: C_2  and  C_4
REMARK    4  A    between atoms: N_12  and  C_13
REMARK    5  A    between atoms: C_13  and  C_14
REMARK                            x       y       z     vdW  Elec       q    Type
REMARK                         _______ _______ _______ _____ _____    ______ ____
ROOT
ATOM      1  C   UNL     1       2.591   4.778  19.908  0.00  0.00    +0.000 A 
ATOM      2  N   UNL     1       1.890   5.526  20.746  0.00  0.00    +0.000 NA
ATOM      3  C   UNL     1       1.817   6.768  20.177  0.00  0.00    +0.000 A 
ATOM      4  C   UNL     1       1.232   7.938  20.682  0.00  0.00    +0.000 A 
ATOM      5  C   UNL     1       1.256   9.096  19.899  0.00  0.00    +0.000 A 
ATOM      6  C   UNL     1       1.839   9.085  18.632  0.00  0.00    +0.000 A 
ATOM      7  C   UNL     1       2.448   7.929  18.120  0.00  0.00    +0.000 A 
ATOM      8  C   UNL     1       2.436   6.789  18.935  0.00  0.00    +0.000 A 
ATOM      9  N   UNL     1       2.997   5.530  18.820  0.00  0.00    +0.000 N 
ENDROOT
BRANCH   1  11
ATOM     10  C   UNL     1       2.531   2.849  21.517  0.00  0.00    +0.000 C 
ATOM     11  C   UNL     1       2.952   3.340  20.135  0.00  0.00    +0.000 C 
BRANCH  11  12
ATOM     12  O   UNL     1       2.290   2.557  19.140  0.00  0.00    +0.000 OA
ATOM     13  H   UNL     1       1.378   2.892  19.084  0.00  0.00    +0.000 HD
ENDBRANCH  11  12
ENDBRANCH   1  11
BRANCH   9  14
ATOM     14  C   UNL     1       3.938   5.122  17.782  0.00  0.00    +0.000 C 
BRANCH  14  15
ATOM     15  C   UNL     1       5.316   5.698  18.032  0.00  0.00    +0.000 A 
ATOM     16  C   UNL     1       5.835   6.689  17.188  0.00  0.00    +0.000 A 
ATOM     17  C   UNL     1       7.133   7.174  17.374  0.00  0.00    +0.000 A 
ATOM     18  C   UNL     1       7.919   6.683  18.413  0.00  0.00    +0.000 A 
ATOM     19  C   UNL     1       7.406   5.726  19.281  0.00  0.00    +0.000 A 
ATOM     20  C   UNL     1       6.109   5.242  19.098  0.00  0.00    +0.000 A 
ENDBRANCH  14  15
ENDBRANCH   9  14
TORSDOF 4
ENDMDL
MODEL 6
REMARK VINA RESULT:      -7.1      3.105      4.526
REMARK  Name = 
REMARK  5 active torsions:
REMARK  status: ('A' for Active; 'I' for Inactive)
REMARK    1  A    between atoms: C_1  and  C_2
REMARK    2  A    between atoms: C_2  and  O_3
REMARK    3  A    between atoms: C_2  and  C_4
REMARK    4  A    between atoms: N_12  and  C_13
REMARK    5  A    between atoms: C_13  and  C_14
REMARK                            x       y       z     vdW  Elec       q    Type
REMARK                         _______ _______ _______ _____ _____    ______ ____
ROOT
ATOM      1  C   UNL     1       3.018   3.935  19.123  0.00  0.00    +0.000 A 
ATOM      2  N   UNL     1       2.252   4.294  20.141  0.00  0.00    +0.000 NA
ATOM      3  C   UNL     1       2.082   5.647  20.030  0.00  0.00    +0.000 A 
ATOM      4  C   UNL     1       1.401   6.525  20.885  0.00  0.00    +0.000 A 
ATOM      5  C   UNL     1       1.335   7.881  20.548  0.00  0.00    +0.000 A 
ATOM      6  C   UNL     1       1.926   8.350  19.374  0.00  0.00    +0.000 A 
ATOM      7  C   UNL     1       2.631   7.489  18.519  0.00  0.00    +0.000 A 
ATOM      8  C   UNL     1       2.706   6.140  18.893  0.00  0.00    +0.000 A 
ATOM      9  N   UNL     1       3.369   5.044  18.373  0.00  0.00    +0.000 N 
ENDROOT
BRANCH   1  11
ATOM     10  C   UNL     1       4.418   2.021  19.955  0.00  0.00    +0.000 C 
ATOM     11  C   UNL     1       3.494   2.537  18.856  0.00  0.00    +0.000 C 
BRANCH  11  12
ATOM     12  O   UNL     1       2.346   1.689  18.775  0.00  0.00    +0.000 OA
ATOM     13  H   UNL     1       2.591   0.947  18.194  0.00  0.00    +0.000 HD
ENDBRANCH  11  12
ENDBRANCH   1  11
BRANCH   9  14
ATOM     14  C   UNL     1       4.347   5.088  17.291  0.00  0.00    +0.000 C 
BRANCH  14  15
ATOM     15  C   UNL     1       5.635   5.744  17.742  0.00  0.00    +0.000 A 
ATOM     16  C   UNL     1       6.135   6.866  17.067  0.00  0.00    +0.000 A 
ATOM     17  C   UNL     1       7.359   7.431  17.437  0.00  0.00    +0.000 A 
ATOM     18  C   UNL     1       8.088   6.889  18.492  0.00  0.00    +0.000 A 
ATOM     19  C   UNL     1       7.589   5.799  19.194  0.00  0.00    +0.000 A 
ATOM     20  C   UNL     1       6.365   5.233  18.828  0.00  0.00    +0.000 A 
ENDBRANCH  14  15
ENDBRANCH   9  14
TORSDOF 4
ENDMDL
MODEL 7
REMARK VINA RESULT:      -7.1      2.773      4.555
REMARK  Name = 
REMARK  5 active torsions:
REMARK  status: ('A' for Active; 'I' for Inactive)
REMARK    1  A    between atoms: C_1  and  C_2
REMARK    2  A    between atoms: C_2  and  O_3
REMARK    3  A    between atoms: C_2  and  C_4
REMARK    4  A    between atoms: N_12  and  C_13
REMARK    5  A    between atoms: C_13  and  C_14
REMARK                            x       y       z     vdW  Elec       q    Type
REMARK                         _______ _______ _______ _____ _____    ______ ____
ROOT
ATOM      1  C   UNL     1       5.584   5.130  18.306  0.00  0.00    +0.000 A 
ATOM      2  N   UNL     1       5.559   3.960  18.925  0.00  0.00    +0.000 NA
ATOM      3  C   UNL     1       4.282   3.488  18.793  0.00  0.00    +0.000 A 
ATOM      4  C   UNL     1       3.716   2.315  19.313  0.00  0.00    +0.000 A 
ATOM      5  C   UNL     1       2.381   2.022  19.018  0.00  0.00    +0.000 A 
ATOM      6  C   UNL     1       1.628   2.875  18.210  0.00  0.00    +0.000 A 
ATOM      7  C   UNL     1       2.172   4.063  17.700  0.00  0.00    +0.000 A 
ATOM      8  C   UNL     1       3.504   4.348  18.032  0.00  0.00    +0.000 A 
ATOM      9  N   UNL     1       4.331   5.432  17.802  0.00  0.00    +0.000 N 
ENDROOT
BRANCH   1  11
ATOM     10  C   UNL     1       7.782   5.772  19.340  0.00  0.00    +0.000 C 
ATOM     11  C   UNL     1       6.780   6.032  18.220  0.00  0.00    +0.000 C 
BRANCH  11  12
ATOM     12  O   UNL     1       7.416   5.801  16.962  0.00  0.00    +0.000 OA
ATOM     13  H   UNL     1       8.372   5.749  17.140  0.00  0.00    +0.000 HD
ENDBRANCH  11  12
ENDBRANCH   1  11
BRANCH   9  14
ATOM     14  C   UNL     1       3.908   6.704  17.226  0.00  0.00    +0.000 C 
BRANCH  14  15
ATOM     15  C   UNL     1       2.943   7.428  18.140  0.00  0.00    +0.000 A 
ATOM     16  C   UNL     1       2.280   8.583  17.702  0.00  0.00    +0.000 A 
ATOM     17  C   UNL     1       1.441   9.292  18.566  0.00  0.00    +0.000 A 
ATOM     18  C   UNL     1       1.247   8.848  19.872  0.00  0.00    +0.000 A 
ATOM     19  C   UNL     1       1.869   7.685  20.310  0.00  0.00    +0.000 A 
ATOM     20  C   UNL     1       2.706   6.973  19.448  0.00  0.00    +0.000 A 
ENDBRANCH  14  15
ENDBRANCH   9  14
TORSDOF 4
ENDMDL
MODEL 8
REMARK VINA RESULT:      -7.0      2.751      4.544
REMARK  Name = 
REMARK  5 active torsions:
REMARK  status: ('A' for Active; 'I' for Inactive)
REMARK    1  A    between atoms: C_1  and  C_2
REMARK    2  A    between atoms: C_2  and  O_3
REMARK    3  A    between atoms: C_2  and  C_4
REMARK    4  A    between atoms: N_12  and  C_13
REMARK    5  A    between atoms: C_13  and  C_14
REMARK                            x       y       z     vdW  Elec       q    Type
REMARK                         _______ _______ _______ _____ _____    ______ ____
ROOT
ATOM      1  C   UNL     1       5.611   5.160  18.293  0.00  0.00    +0.000 A 
ATOM      2  N   UNL     1       5.605   4.000  18.931  0.00  0.00    +0.000 NA
ATOM      3  C   UNL     1       4.342   3.495  18.791  0.00  0.00    +0.000 A 
ATOM      4  C   UNL     1       3.797   2.317  19.323  0.00  0.00    +0.000 A 
ATOM      5  C   UNL     1       2.473   1.988  19.016  0.00  0.00    +0.000 A 
ATOM      6  C   UNL     1       1.711   2.810  18.185  0.00  0.00    +0.000 A 
ATOM      7  C   UNL     1       2.233   4.002  17.663  0.00  0.00    +0.000 A 
ATOM      8  C   UNL     1       3.553   4.324  18.006  0.00  0.00    +0.000 A 
ATOM      9  N   UNL     1       4.357   5.424  17.769  0.00  0.00    +0.000 N 
ENDROOT
BRANCH   1  11
ATOM     10  C   UNL     1       7.819   5.818  19.297  0.00  0.00    +0.000 C 
ATOM     11  C   UNL     1       6.785   6.089  18.208  0.00  0.00    +0.000 C 
BRANCH  11  12
ATOM     12  O   UNL     1       7.398   5.909  16.929  0.00  0.00    +0.000 OA
ATOM     13  H   UNL     1       7.412   6.784  16.502  0.00  0.00    +0.000 HD
ENDBRANCH  11  12
ENDBRANCH   1  11
BRANCH   9  14
ATOM     14  C   UNL     1       3.912   6.676  17.168  0.00  0.00    +0.000 C 
BRANCH  14  15
ATOM     15  C   UNL     1       3.008   7.446  18.106  0.00  0.00    +0.000 A 
ATOM     16  C   UNL     1       2.784   6.987  19.412  0.00  0.00    +0.000 A 
ATOM     17  C   UNL     1       1.896   7.656  20.259  0.00  0.00    +0.000 A 
ATOM     18  C   UNL     1       1.233   8.797  19.814  0.00  0.00    +0.000 A 
ATOM     19  C   UNL     1       1.471   9.286  18.535  0.00  0.00    +0.000 A 
ATOM     20  C   UNL     1       2.359   8.620  17.687  0.00  0.00    +0.000 A 
ENDBRANCH  14  15
ENDBRANCH   9  14
TORSDOF 4
ENDMDL
MODEL 9
REMARK VINA RESULT:      -7.0      2.695      5.993
REMARK  Name = 
REMARK  5 active torsions:
REMARK  status: ('A' for Active; 'I' for Inactive)
REMARK    1  A    between atoms: C_1  and  C_2
REMARK    2  A    between atoms: C_2  and  O_3
REMARK    3  A    between atoms: C_2  and  C_4
REMARK    4  A    between atoms: N_12  and  C_13
REMARK    5  A    between atoms: C_13  and  C_14
REMARK                            x       y       z     vdW  Elec       q    Type
REMARK                         _______ _______ _______ _____ _____    ______ ____
ROOT
ATOM      1  C   UNL     1       3.283   6.643  17.885  0.00  0.00    +0.000 A 
ATOM      2  N   UNL     1       4.499   7.136  17.707  0.00  0.00    +0.000 NA
ATOM      3  C   UNL     1       5.228   6.143  17.113  0.00  0.00    +0.000 A 
ATOM      4  C   UNL     1       6.586   6.133  16.762  0.00  0.00    +0.000 A 
ATOM      5  C   UNL     1       7.111   5.002  16.130  0.00  0.00    +0.000 A 
ATOM      6  C   UNL     1       6.296   3.907  15.842  0.00  0.00    +0.000 A 
ATOM      7  C   UNL     1       4.942   3.890  16.206  0.00  0.00    +0.000 A 
ATOM      8  C   UNL     1       4.445   5.025  16.862  0.00  0.00    +0.000 A 
ATOM      9  N   UNL     1       3.227   5.334  17.440  0.00  0.00    +0.000 N 
ENDROOT
BRANCH   1  11
ATOM     10  C   UNL     1       2.192   7.275  20.059  0.00  0.00    +0.000 C 
ATOM     11  C   UNL     1       2.146   7.373  18.537  0.00  0.00    +0.000 C 
BRANCH  11  12
ATOM     12  O   UNL     1       2.229   8.748  18.156  0.00  0.00    +0.000 OA
ATOM     13  H   UNL     1       3.076   9.082  18.502  0.00  0.00    +0.000 HD
ENDBRANCH  11  12
ENDBRANCH   1  11
BRANCH   9  14
ATOM     14  C   UNL     1       2.127   4.395  17.635  0.00  0.00    +0.000 C 
BRANCH  14  15
ATOM     15  C   UNL     1       2.200   3.739  18.997  0.00  0.00    +0.000 A 
ATOM     16  C   UNL     1       1.085   3.743  19.847  0.00  0.00    +0.000 A 
ATOM     17  C   UNL     1       1.169   3.200  21.132  0.00  0.00    +0.000 A 
ATOM     18  C   UNL     1       2.362   2.636  21.576  0.00  0.00    +0.000 A 
ATOM     19  C   UNL     1       3.466   2.592  20.732  0.00  0.00    +0.000 A 
ATOM     20  C   UNL     1       3.385   3.132  19.447  0.00  0.00    +0.000 A 
ENDBRANCH  14  15
ENDBRANCH   9  14
TORSDOF 4
ENDMDL
