MODEL 1
REMARK VINA RESULT:      -8.1      0.000      0.000
REMARK  Name = 
REMARK  1 active torsions:
REMARK  status: ('A' for Active; 'I' for Inactive)
REMARK    1  A    between atoms: C_8  and  C_9
REMARK                            x       y       z     vdW  Elec       q    Type
REMARK                         _______ _______ _______ _____ _____    ______ ____
ROOT
ATOM      1  N   UNL     1       8.728   5.251  20.178  0.00  0.00    +0.000 N 
ATOM      2  C   UNL     1       7.764   5.010  19.296  0.00  0.00    +0.000 A 
ATOM      3  N   UNL     1       8.119   4.741  18.017  0.00  0.00    +0.000 NA
ATOM      4  C   UNL     1       6.960   4.590  17.419  0.00  0.00    +0.000 A 
ATOM      5  C   UNL     1       6.620   4.330  16.064  0.00  0.00    +0.000 A 
ATOM      6  C   UNL     1       5.326   4.271  15.701  0.00  0.00    +0.000 A 
ATOM      7  C   UNL     1       4.257   4.451  16.670  0.00  0.00    +0.000 A 
ATOM      8  C   UNL     1       4.563   4.674  17.966  0.00  0.00    +0.000 A 
ATOM      9  N   UNL     1       5.919   4.749  18.341  0.00  0.00    +0.000 N 
ATOM     10  N   UNL     1       6.463   5.000  19.560  0.00  0.00    +0.000 NA
ATOM     11  H   UNL     1       9.664   4.962  19.927  0.00  0.00    +0.000 HD
ATOM     12  H   UNL     1       8.498   5.163  21.158  0.00  0.00    +0.000 HD
ENDROOT
BRANCH   8  13
ATOM     13  C   UNL     1       3.480   4.836  18.954  0.00  0.00    +0.000 A 
ATOM     14  C   UNL     1       2.942   6.121  19.139  0.00  0.00    +0.000 A 
ATOM     15  C   UNL     1       1.900   6.333  20.042  0.00  0.00    +0.000 A 
ATOM     16  C   UNL     1       1.385   5.264  20.772  0.00  0.00    +0.000 A 
ATOM     17  C   UNL     1       1.911   3.979  20.604  0.00  0.00    +0.000 A 
ATOM     18 CL   UNL     1       1.211   2.709  21.549  0.00  0.00    +0.000 Cl
ATOM     19  C   UNL     1       2.958   3.755  19.694  0.00  0.00    +0.000 A 
ATOM     20 CL   UNL     1       3.601   2.156  19.464  0.00  0.00    +0.000 Cl
ENDBRANCH   8  13
TORSDOF 1
ENDMDL
MODEL 2
REMARK VINA RESULT:      -8.0      1.601      2.181
REMARK  Name = 
REMARK  1 active torsions:
REMARK  status: ('A' for Active; 'I' for Inactive)
REMARK    1  A    between atoms: C_8  and  C_9
REMARK                            x       y       z     vdW  Elec       q    Type
REMARK                         _______ _______ _______ _____ _____    ______ ____
ROOT
ATOM      1  N   UNL     1       8.215   5.536  20.184  0.00  0.00    +0.000 N 
ATOM      2  C   UNL     1       7.498   5.231  19.108  0.00  0.00    +0.000 A 
ATOM      3  N   UNL     1       8.013   5.529  17.891  0.00  0.00    +0.000 NA
ATOM      4  C   UNL     1       7.063   5.141  17.070  0.00  0.00    +0.000 A 
ATOM      5  C   UNL     1       6.949   5.204  15.656  0.00  0.00    +0.000 A 
ATOM      6  C   UNL     1       5.824   4.771  15.058  0.00  0.00    +0.000 A 
ATOM      7  C   UNL     1       4.721   4.220  15.827  0.00  0.00    +0.000 A 
ATOM      8  C   UNL     1       4.823   4.128  17.170  0.00  0.00    +0.000 A 
ATOM      9  N   UNL     1       5.996   4.596  17.795  0.00  0.00    +0.000 N 
ATOM     10  N   UNL     1       6.308   4.644  19.116  0.00  0.00    +0.000 NA
ATOM     11  H   UNL     1       9.200   5.719  20.044  0.00  0.00    +0.000 HD
ATOM     12  H   UNL     1       7.982   5.068  21.049  0.00  0.00    +0.000 HD
ENDROOT
BRANCH   8  13
ATOM     13  C   UNL     1       3.713   3.550  17.948  0.00  0.00    +0.000 A 
ATOM     14  C   UNL     1       3.524   2.158  17.895  0.00  0.00    +0.000 A 
ATOM     15  C   UNL     1       2.506   1.549  18.628  0.00  0.00    +0.000 A 
ATOM     16  C   UNL     1       1.662   2.324  19.420  0.00  0.00    +0.000 A 
ATOM     17  C   UNL     1       1.831   3.711  19.481  0.00  0.00    +0.000 A 
ATOM     18 CL   UNL     1       0.740   4.596  20.492  0.00  0.00    +0.000 Cl
ATOM     19  C   UNL     1       2.857   4.332  18.750  0.00  0.00    +0.000 A 
ATOM     20 CL   UNL     1       3.087   6.054  18.840  0.00  0.00    +0.000 Cl
ENDBRANCH   8  13
TORSDOF 1
ENDMDL
MODEL 3
REMARK VINA RESULT:      -7.7      1.780      2.371
REMARK  Name = 
REMARK  1 active torsions:
REMARK  status: ('A' for Active; 'I' for Inactive)
REMARK    1  A    between atoms: C_8  and  C_9
REMARK                            x       y       z     vdW  Elec       q    Type
REMARK                         _______ _______ _______ _____ _____    ______ ____
ROOT
ATOM      1  N   UNL     1       8.621   5.214  20.506  0.00  0.00    +0.000 N 
ATOM      2  C   UNL     1       7.695   5.435  19.579  0.00  0.00    +0.000 A 
ATOM      3  N   UNL     1       7.903   6.439  18.695  0.00  0.00    +0.000 NA
ATOM      4  C   UNL     1       6.813   6.410  17.961  0.00  0.00    +0.000 A 
ATOM      5  C   UNL     1       6.377   7.224  16.882  0.00  0.00    +0.000 A 
ATOM      6  C   UNL     1       5.170   7.005  16.329  0.00  0.00    +0.000 A 
ATOM      7  C   UNL     1       4.301   5.939  16.800  0.00  0.00    +0.000 A 
ATOM      8  C   UNL     1       4.711   5.141  17.808  0.00  0.00    +0.000 A 
ATOM      9  N   UNL     1       5.970   5.381  18.395  0.00  0.00    +0.000 N 
ATOM     10  N   UNL     1       6.571   4.745  19.434  0.00  0.00    +0.000 NA
ATOM     11  H   UNL     1       9.538   5.611  20.346  0.00  0.00    +0.000 HD
ATOM     12  H   UNL     1       8.617   4.314  20.966  0.00  0.00    +0.000 HD
ENDROOT
BRANCH   8  13
ATOM     13  C   UNL     1       3.840   4.046  18.273  0.00  0.00    +0.000 A 
ATOM     14  C   UNL     1       3.945   2.800  17.630  0.00  0.00    +0.000 A 
ATOM     15  C   UNL     1       3.165   1.720  18.040  0.00  0.00    +0.000 A 
ATOM     16  C   UNL     1       2.267   1.873  19.094  0.00  0.00    +0.000 A 
ATOM     17  C   UNL     1       2.145   3.106  19.742  0.00  0.00    +0.000 A 
ATOM     18 CL   UNL     1       1.007   3.206  21.043  0.00  0.00    +0.000 Cl
ATOM     19  C   UNL     1       2.930   4.198  19.339  0.00  0.00    +0.000 A 
ATOM     20 CL   UNL     1       2.799   5.728  20.155  0.00  0.00    +0.000 Cl
ENDBRANCH   8  13
TORSDOF 1
ENDMDL
MODEL 4
REMARK VINA RESULT:      -7.7      1.449      1.495
REMARK  Name = 
REMARK  1 active torsions:
REMARK  status: ('A' for Active; 'I' for Inactive)
REMARK    1  A    between atoms: C_8  and  C_9
REMARK                            x       y       z     vdW  Elec       q    Type
REMARK                         _______ _______ _______ _____ _____    ______ ____
ROOT
ATOM      1  N   UNL     1       8.489   5.217  20.506  0.00  0.00    +0.000 N 
ATOM      2  C   UNL     1       7.552   5.484  19.602  0.00  0.00    +0.000 A 
ATOM      3  N   UNL     1       7.927   6.099  18.455  0.00  0.00    +0.000 NA
ATOM      4  C   UNL     1       6.788   6.243  17.817  0.00  0.00    +0.000 A 
ATOM      5  C   UNL     1       6.470   6.846  16.571  0.00  0.00    +0.000 A 
ATOM      6  C   UNL     1       5.188   6.903  16.166  0.00  0.00    +0.000 A 
ATOM      7  C   UNL     1       4.113   6.344  16.969  0.00  0.00    +0.000 A 
ATOM      8  C   UNL     1       4.401   5.744  18.144  0.00  0.00    +0.000 A 
ATOM      9  N   UNL     1       5.743   5.699  18.572  0.00  0.00    +0.000 N 
ATOM     10  N   UNL     1       6.263   5.191  19.720  0.00  0.00    +0.000 NA
ATOM     11  H   UNL     1       9.451   5.235  20.192  0.00  0.00    +0.000 HD
ATOM     12  H   UNL     1       8.278   4.521  21.207  0.00  0.00    +0.000 HD
ENDROOT
BRANCH   8  13
ATOM     13  C   UNL     1       3.314   5.158  18.949  0.00  0.00    +0.000 A 
ATOM     14  C   UNL     1       2.680   5.977  19.899  0.00  0.00    +0.000 A 
ATOM     15  C   UNL     1       1.630   5.486  20.674  0.00  0.00    +0.000 A 
ATOM     16  C   UNL     1       1.202   4.170  20.511  0.00  0.00    +0.000 A 
ATOM     17  C   UNL     1       1.824   3.339  19.574  0.00  0.00    +0.000 A 
ATOM     18 CL   UNL     1       1.228   1.720  19.435  0.00  0.00    +0.000 Cl
ATOM     19  C   UNL     1       2.880   3.826  18.786  0.00  0.00    +0.000 A 
ATOM     20 CL   UNL     1       3.643   2.805  17.603  0.00  0.00    +0.000 Cl
ENDBRANCH   8  13
TORSDOF 1
ENDMDL
MODEL 5
REMARK VINA RESULT:      -7.7      1.575      1.964
REMARK  Name = 
REMARK  1 active torsions:
REMARK  status: ('A' for Active; 'I' for Inactive)
REMARK    1  A    between atoms: C_8  and  C_9
REMARK                            x       y       z     vdW  Elec       q    Type
REMARK                         _______ _______ _______ _____ _____    ______ ____
ROOT
ATOM      1  N   UNL     1       8.498   5.523  19.994  0.00  0.00    +0.000 N 
ATOM      2  C   UNL     1       7.571   5.134  19.125  0.00  0.00    +0.000 A 
ATOM      3  N   UNL     1       7.942   4.946  17.836  0.00  0.00    +0.000 NA
ATOM      4  C   UNL     1       6.813   4.609  17.255  0.00  0.00    +0.000 A 
ATOM      5  C   UNL     1       6.496   4.314  15.902  0.00  0.00    +0.000 A 
ATOM      6  C   UNL     1       5.223   4.042  15.560  0.00  0.00    +0.000 A 
ATOM      7  C   UNL     1       4.158   4.026  16.550  0.00  0.00    +0.000 A 
ATOM      8  C   UNL     1       4.447   4.280  17.844  0.00  0.00    +0.000 A 
ATOM      9  N   UNL     1       5.778   4.579  18.197  0.00  0.00    +0.000 N 
ATOM     10  N   UNL     1       6.296   4.901  19.411  0.00  0.00    +0.000 NA
ATOM     11  H   UNL     1       9.464   5.399  19.723  0.00  0.00    +0.000 HD
ATOM     12  H   UNL     1       8.305   5.385  20.976  0.00  0.00    +0.000 HD
ENDROOT
BRANCH   8  13
ATOM     13  C   UNL     1       3.372   4.243  18.852  0.00  0.00    +0.000 A 
ATOM     14  C   UNL     1       2.983   2.991  19.358  0.00  0.00    +0.000 A 
ATOM     15  C   UNL     1       1.988   2.894  20.330  0.00  0.00    +0.000 A 
ATOM     16  C   UNL     1       1.368   4.047  20.806  0.00  0.00    +0.000 A 
ATOM     17  C   UNL     1       1.737   5.300  20.311  0.00  0.00    +0.000 A 
ATOM     18 CL   UNL     1       0.916   6.680  20.959  0.00  0.00    +0.000 Cl
ATOM     19  C   UNL     1       2.741   5.409  19.334  0.00  0.00    +0.000 A 
ATOM     20 CL   UNL     1       3.222   6.967  18.731  0.00  0.00    +0.000 Cl
ENDBRANCH   8  13
TORSDOF 1
ENDMDL
MODEL 6
REMARK VINA RESULT:      -7.5      2.101      2.394
REMARK  Name = 
REMARK  1 active torsions:
REMARK  status: ('A' for Active; 'I' for Inactive)
REMARK    1  A    between atoms: C_8  and  C_9
REMARK                            x       y       z     vdW  Elec       q    Type
REMARK                         _______ _______ _______ _____ _____    ______ ____
ROOT
ATOM      1  N   UNL     1       8.629   5.302  20.182  0.00  0.00    +0.000 N 
ATOM      2  C   UNL     1       7.629   5.083  19.335  0.00  0.00    +0.000 A 
ATOM      3  N   UNL     1       7.926   4.596  18.107  0.00  0.00    +0.000 NA
ATOM      4  C   UNL     1       6.748   4.532  17.527  0.00  0.00    +0.000 A 
ATOM      5  C   UNL     1       6.358   4.142  16.219  0.00  0.00    +0.000 A 
ATOM      6  C   UNL     1       5.063   4.219  15.859  0.00  0.00    +0.000 A 
ATOM      7  C   UNL     1       4.044   4.679  16.788  0.00  0.00    +0.000 A 
ATOM      8  C   UNL     1       4.395   5.029  18.044  0.00  0.00    +0.000 A 
ATOM      9  N   UNL     1       5.753   4.961  18.413  0.00  0.00    +0.000 N 
ATOM     10  N   UNL     1       6.343   5.294  19.590  0.00  0.00    +0.000 NA
ATOM     11  H   UNL     1       9.511   4.852  19.979  0.00  0.00    +0.000 HD
ATOM     12  H   UNL     1       8.402   5.382  21.164  0.00  0.00    +0.000 HD
ENDROOT
BRANCH   8  13
ATOM     13  C   UNL     1       3.359   5.475  18.993  0.00  0.00    +0.000 A 
ATOM     14  C   UNL     1       2.887   4.548  19.939  0.00  0.00    +0.000 A 
ATOM     15  C   UNL     1       1.924   4.917  20.878  0.00  0.00    +0.000 A 
ATOM     16  C   UNL     1       1.420   6.216  20.882  0.00  0.00    +0.000 A 
ATOM     17  C   UNL     1       1.875   7.150  19.946  0.00  0.00    +0.000 A 
ATOM     18 CL   UNL     1       1.197   8.741  20.024  0.00  0.00    +0.000 Cl
ATOM     19  C   UNL     1       2.847   6.788  18.999  0.00  0.00    +0.000 A 
ATOM     20 CL   UNL     1       3.433   7.952  17.846  0.00  0.00    +0.000 Cl
ENDBRANCH   8  13
TORSDOF 1
ENDMDL
MODEL 7
REMARK VINA RESULT:      -7.4      1.900      2.313
REMARK  Name = 
REMARK  1 active torsions:
REMARK  status: ('A' for Active; 'I' for Inactive)
REMARK    1  A    between atoms: C_8  and  C_9
REMARK                            x       y       z     vdW  Elec       q    Type
REMARK                         _______ _______ _______ _____ _____    ______ ____
ROOT
ATOM      1  N   UNL     1       8.324   7.569  18.625  0.00  0.00    +0.000 N 
ATOM      2  C   UNL     1       7.554   6.709  17.967  0.00  0.00    +0.000 A 
ATOM      3  N   UNL     1       7.812   6.494  16.656  0.00  0.00    +0.000 NA
ATOM      4  C   UNL     1       6.873   5.642  16.310  0.00  0.00    +0.000 A 
ATOM      5  C   UNL     1       6.552   5.040  15.064  0.00  0.00    +0.000 A 
ATOM      6  C   UNL     1       5.486   4.224  14.973  0.00  0.00    +0.000 A 
ATOM      7  C   UNL     1       4.657   3.927  16.130  0.00  0.00    +0.000 A 
ATOM      8  C   UNL     1       4.963   4.471  17.327  0.00  0.00    +0.000 A 
ATOM      9  N   UNL     1       6.072   5.336  17.417  0.00  0.00    +0.000 N 
ATOM     10  N   UNL     1       6.544   6.023  18.489  0.00  0.00    +0.000 NA
ATOM     11  H   UNL     1       9.211   7.810  18.202  0.00  0.00    +0.000 HD
ATOM     12  H   UNL     1       8.328   7.516  19.634  0.00  0.00    +0.000 HD
ENDROOT
BRANCH   8  13
ATOM     13  C   UNL     1       4.136   4.154  18.506  0.00  0.00    +0.000 A 
ATOM     14  C   UNL     1       4.347   2.922  19.149  0.00  0.00    +0.000 A 
ATOM     15  C   UNL     1       3.612   2.576  20.282  0.00  0.00    +0.000 A 
ATOM     16  C   UNL     1       2.655   3.455  20.784  0.00  0.00    +0.000 A 
ATOM     17  C   UNL     1       2.427   4.682  20.154  0.00  0.00    +0.000 A 
ATOM     18 CL   UNL     1       1.221   5.713  20.846  0.00  0.00    +0.000 Cl
ATOM     19  C   UNL     1       3.166   5.041  19.015  0.00  0.00    +0.000 A 
ATOM     20 CL   UNL     1       2.903   6.576  18.241  0.00  0.00    +0.000 Cl
ENDBRANCH   8  13
TORSDOF 1
ENDMDL
MODEL 8
REMARK VINA RESULT:      -7.3      2.771      5.502
REMARK  Name = 
REMARK  1 active torsions:
REMARK  status: ('A' for Active; 'I' for Inactive)
REMARK    1  A    between atoms: C_8  and  C_9
REMARK                            x       y       z     vdW  Elec       q    Type
REMARK                         _______ _______ _______ _____ _____    ______ ____
ROOT
ATOM      1  N   UNL     1       1.693   8.203  20.008  0.00  0.00    +0.000 N 
ATOM      2  C   UNL     1       2.107   6.942  20.063  0.00  0.00    +0.000 A 
ATOM      3  N   UNL     1       1.464   6.094  20.899  0.00  0.00    +0.000 NA
ATOM      4  C   UNL     1       2.127   4.971  20.741  0.00  0.00    +0.000 A 
ATOM      5  C   UNL     1       1.991   3.697  21.354  0.00  0.00    +0.000 A 
ATOM      6  C   UNL     1       2.851   2.711  21.039  0.00  0.00    +0.000 A 
ATOM      7  C   UNL     1       3.914   2.913  20.068  0.00  0.00    +0.000 A 
ATOM      8  C   UNL     1       4.041   4.110  19.458  0.00  0.00    +0.000 A 
ATOM      9  N   UNL     1       3.148   5.145  19.800  0.00  0.00    +0.000 N 
ATOM     10  N   UNL     1       3.105   6.427  19.354  0.00  0.00    +0.000 NA
ATOM     11  H   UNL     1       0.772   8.403  20.375  0.00  0.00    +0.000 HD
ATOM     12  H   UNL     1       1.963   8.750  19.202  0.00  0.00    +0.000 HD
ENDROOT
BRANCH   8  13
ATOM     13  C   UNL     1       5.105   4.309  18.457  0.00  0.00    +0.000 A 
ATOM     14  C   UNL     1       6.356   4.769  18.905  0.00  0.00    +0.000 A 
ATOM     15  C   UNL     1       7.408   4.954  18.010  0.00  0.00    +0.000 A 
ATOM     16  C   UNL     1       7.223   4.685  16.655  0.00  0.00    +0.000 A 
ATOM     17  C   UNL     1       5.985   4.231  16.191  0.00  0.00    +0.000 A 
ATOM     18 CL   UNL     1       5.844   3.919  14.494  0.00  0.00    +0.000 Cl
ATOM     19  C   UNL     1       4.920   4.038  17.086  0.00  0.00    +0.000 A 
ATOM     20 CL   UNL     1       3.384   3.453  16.517  0.00  0.00    +0.000 Cl
ENDBRANCH   8  13
TORSDOF 1
ENDMDL
MODEL 9
REMARK VINA RESULT:      -7.3      2.241      3.447
REMARK  Name = 
REMARK  1 active torsions:
REMARK  status: ('A' for Active; 'I' for Inactive)
REMARK    1  A    between atoms: C_8  and  C_9
REMARK                            x       y       z     vdW  Elec       q    Type
REMARK                         _______ _______ _______ _____ _____    ______ ____
ROOT
ATOM      1  N   UNL     1       6.342   3.825  13.581  0.00  0.00    +0.000 N 
ATOM      2  C   UNL     1       6.329   4.252  14.839  0.00  0.00    +0.000 A 
ATOM      3  N   UNL     1       7.279   5.137  15.224  0.00  0.00    +0.000 NA
ATOM      4  C   UNL     1       7.008   5.320  16.496  0.00  0.00    +0.000 A 
ATOM      5  C   UNL     1       7.646   6.099  17.498  0.00  0.00    +0.000 A 
ATOM      6  C   UNL     1       7.183   6.068  18.761  0.00  0.00    +0.000 A 
ATOM      7  C   UNL     1       6.027   5.266  19.127  0.00  0.00    +0.000 A 
ATOM      8  C   UNL     1       5.394   4.539  18.181  0.00  0.00    +0.000 A 
ATOM      9  N   UNL     1       5.889   4.562  16.862  0.00  0.00    +0.000 N 
ATOM     10  N   UNL     1       5.449   3.892  15.766  0.00  0.00    +0.000 NA
ATOM     11  H   UNL     1       6.875   4.369  12.915  0.00  0.00    +0.000 HD
ATOM     12  H   UNL     1       5.495   3.410  13.219  0.00  0.00    +0.000 HD
ENDROOT
BRANCH   8  13
ATOM     13  C   UNL     1       4.209   3.742  18.547  0.00  0.00    +0.000 A 
ATOM     14  C   UNL     1       4.220   2.368  18.248  0.00  0.00    +0.000 A 
ATOM     15  C   UNL     1       3.138   1.557  18.590  0.00  0.00    +0.000 A 
ATOM     16  C   UNL     1       2.032   2.109  19.232  0.00  0.00    +0.000 A 
ATOM     17  C   UNL     1       2.001   3.474  19.532  0.00  0.00    +0.000 A 
ATOM     18 CL   UNL     1       0.588   4.076  20.331  0.00  0.00    +0.000 Cl
ATOM     19  C   UNL     1       3.087   4.299  19.195  0.00  0.00    +0.000 A 
ATOM     20 CL   UNL     1       3.065   5.993  19.586  0.00  0.00    +0.000 Cl
ENDBRANCH   8  13
TORSDOF 1
ENDMDL
