MODEL 1
REMARK VINA RESULT:      -7.3      0.000      0.000
REMARK  Name = 
REMARK  4 active torsions:
REMARK  status: ('A' for Active; 'I' for Inactive)
REMARK    1  A    between atoms: C_2  and  C_3
REMARK    2  A    between atoms: C_3  and  C_4
REMARK    3  A    between atoms: C_3  and  S_10
REMARK    4  A    between atoms: S_10  and  O_13
REMARK                            x       y       z     vdW  Elec       q    Type
REMARK                         _______ _______ _______ _____ _____    ______ ____
ROOT
ATOM      1  C   UNL     1       4.927   5.058  17.773  0.00  0.00    +0.000 C 
ENDROOT
BRANCH   1   3
ATOM      2  O   UNL     1       5.508   3.455  19.474  0.00  0.00    +0.000 OA
ATOM      3  C   UNL     1       4.726   3.786  18.579  0.00  0.00    +0.000 C 
ATOM      4  N   UNL     1       3.563   3.042  18.359  0.00  0.00    +0.000 N 
ATOM      5  C   UNL     1       2.592   3.247  17.285  0.00  0.00    +0.000 C 
ATOM      6  C   UNL     1       1.201   3.509  17.856  0.00  0.00    +0.000 C 
ATOM      7  C   UNL     1       0.784   2.413  18.836  0.00  0.00    +0.000 C 
ATOM      8  C   UNL     1       1.855   2.176  19.902  0.00  0.00    +0.000 C 
ATOM      9  C   UNL     1       3.232   1.951  19.277  0.00  0.00    +0.000 C 
ENDBRANCH   1   3
BRANCH   1  10
ATOM     10  C   UNL     1       3.960   6.173  18.153  0.00  0.00    +0.000 A 
ATOM     11  C   UNL     1       3.737   7.271  17.304  0.00  0.00    +0.000 A 
ATOM     12  C   UNL     1       2.855   8.287  17.671  0.00  0.00    +0.000 A 
ATOM     13  C   UNL     1       2.159   8.209  18.874  0.00  0.00    +0.000 A 
ATOM     14  C   UNL     1       2.354   7.119  19.721  0.00  0.00    +0.000 A 
ATOM     15  C   UNL     1       3.259   6.116  19.370  0.00  0.00    +0.000 A 
ENDBRANCH   1  10
BRANCH   1  16
ATOM     16  S   UNL     1       6.628   5.623  17.988  0.00  0.00    +0.000 S 
ATOM     17  O   UNL     1       7.082   6.480  16.913  0.00  0.00    +0.000 OA
ATOM     18  O   UNL     1       6.865   5.933  19.382  0.00  0.00    +0.000 OA
BRANCH  16  19
ATOM     19  O   UNL     1       7.405   4.223  17.706  0.00  0.00    +0.000 OA
ATOM     20  H   UNL     1       7.512   4.151  16.729  0.00  0.00    +0.000 HD
ENDBRANCH  16  19
ENDBRANCH   1  16
TORSDOF 4
ENDMDL
MODEL 2
REMARK VINA RESULT:      -7.3      1.250      1.416
REMARK  Name = 
REMARK  4 active torsions:
REMARK  status: ('A' for Active; 'I' for Inactive)
REMARK    1  A    between atoms: C_2  and  C_3
REMARK    2  A    between atoms: C_3  and  C_4
REMARK    3  A    between atoms: C_3  and  S_10
REMARK    4  A    between atoms: S_10  and  O_13
REMARK                            x       y       z     vdW  Elec       q    Type
REMARK                         _______ _______ _______ _____ _____    ______ ____
ROOT
ATOM      1  C   UNL     1       3.927   5.562  17.593  0.00  0.00    +0.000 C 
ENDROOT
BRANCH   1   3
ATOM      2  O   UNL     1       5.435   4.661  19.240  0.00  0.00    +0.000 OA
ATOM      3  C   UNL     1       4.358   4.556  18.648  0.00  0.00    +0.000 C 
ATOM      4  N   UNL     1       3.452   3.558  19.017  0.00  0.00    +0.000 N 
ATOM      5  C   UNL     1       2.186   3.247  18.354  0.00  0.00    +0.000 C 
ATOM      6  C   UNL     1       1.020   3.367  19.331  0.00  0.00    +0.000 C 
ATOM      7  C   UNL     1       1.257   2.531  20.589  0.00  0.00    +0.000 C 
ATOM      8  C   UNL     1       2.620   2.830  21.213  0.00  0.00    +0.000 C 
ATOM      9  C   UNL     1       3.747   2.726  20.185  0.00  0.00    +0.000 C 
ENDBRANCH   1   3
BRANCH   1  10
ATOM     10  C   UNL     1       3.127   6.728  18.162  0.00  0.00    +0.000 A 
ATOM     11  C   UNL     1       2.818   7.855  17.381  0.00  0.00    +0.000 A 
ATOM     12  C   UNL     1       2.092   8.917  17.919  0.00  0.00    +0.000 A 
ATOM     13  C   UNL     1       1.636   8.858  19.233  0.00  0.00    +0.000 A 
ATOM     14  C   UNL     1       1.916   7.741  20.017  0.00  0.00    +0.000 A 
ATOM     15  C   UNL     1       2.669   6.689  19.490  0.00  0.00    +0.000 A 
ENDBRANCH   1  10
BRANCH   1  16
ATOM     16  S   UNL     1       5.394   6.183  16.743  0.00  0.00    +0.000 S 
ATOM     17  O   UNL     1       5.152   6.502  15.352  0.00  0.00    +0.000 OA
ATOM     18  O   UNL     1       6.130   7.063  17.625  0.00  0.00    +0.000 OA
BRANCH  16  19
ATOM     19  O   UNL     1       6.254   4.805  16.669  0.00  0.00    +0.000 OA
ATOM     20  H   UNL     1       7.180   5.062  16.448  0.00  0.00    +0.000 HD
ENDBRANCH  16  19
ENDBRANCH   1  16
TORSDOF 4
ENDMDL
MODEL 3
REMARK VINA RESULT:      -7.3      2.765      4.303
REMARK  Name = 
REMARK  4 active torsions:
REMARK  status: ('A' for Active; 'I' for Inactive)
REMARK    1  A    between atoms: C_2  and  C_3
REMARK    2  A    between atoms: C_3  and  C_4
REMARK    3  A    between atoms: C_3  and  S_10
REMARK    4  A    between atoms: S_10  and  O_13
REMARK                            x       y       z     vdW  Elec       q    Type
REMARK                         _______ _______ _______ _____ _____    ______ ____
ROOT
ATOM      1  C   UNL     1       6.005   4.327  16.752  0.00  0.00    +0.000 C 
ENDROOT
BRANCH   1   3
ATOM      2  O   UNL     1       4.562   6.254  16.665  0.00  0.00    +0.000 OA
ATOM      3  C   UNL     1       4.767   5.127  17.124  0.00  0.00    +0.000 C 
ATOM      4  N   UNL     1       3.798   4.511  17.921  0.00  0.00    +0.000 N 
ATOM      5  C   UNL     1       3.929   3.228  18.611  0.00  0.00    +0.000 C 
ATOM      6  C   UNL     1       2.840   2.259  18.164  0.00  0.00    +0.000 C 
ATOM      7  C   UNL     1       1.449   2.876  18.310  0.00  0.00    +0.000 C 
ATOM      8  C   UNL     1       1.369   4.247  17.639  0.00  0.00    +0.000 C 
ATOM      9  C   UNL     1       2.501   5.167  18.098  0.00  0.00    +0.000 C 
ENDBRANCH   1   3
BRANCH   1  10
ATOM     10  C   UNL     1       6.301   4.333  15.257  0.00  0.00    +0.000 A 
ATOM     11  C   UNL     1       7.392   5.045  14.729  0.00  0.00    +0.000 A 
ATOM     12  C   UNL     1       7.644   5.046  13.357  0.00  0.00    +0.000 A 
ATOM     13  C   UNL     1       6.833   4.313  12.496  0.00  0.00    +0.000 A 
ATOM     14  C   UNL     1       5.757   3.586  13.003  0.00  0.00    +0.000 A 
ATOM     15  C   UNL     1       5.484   3.608  14.372  0.00  0.00    +0.000 A 
ENDBRANCH   1  10
BRANCH   1  16
ATOM     16  S   UNL     1       7.420   4.986  17.659  0.00  0.00    +0.000 S 
ATOM     17  O   UNL     1       8.516   4.045  17.764  0.00  0.00    +0.000 OA
ATOM     18  O   UNL     1       7.620   6.375  17.305  0.00  0.00    +0.000 OA
BRANCH  16  19
ATOM     19  O   UNL     1       6.788   4.995  19.157  0.00  0.00    +0.000 OA
ATOM     20  H   UNL     1       5.952   5.515  19.107  0.00  0.00    +0.000 HD
ENDBRANCH  16  19
ENDBRANCH   1  16
TORSDOF 4
ENDMDL
MODEL 4
REMARK VINA RESULT:      -7.3      1.254      1.799
REMARK  Name = 
REMARK  4 active torsions:
REMARK  status: ('A' for Active; 'I' for Inactive)
REMARK    1  A    between atoms: C_2  and  C_3
REMARK    2  A    between atoms: C_3  and  C_4
REMARK    3  A    between atoms: C_3  and  S_10
REMARK    4  A    between atoms: S_10  and  O_13
REMARK                            x       y       z     vdW  Elec       q    Type
REMARK                         _______ _______ _______ _____ _____    ______ ____
ROOT
ATOM      1  C   UNL     1       3.915   5.564  17.601  0.00  0.00    +0.000 C 
ENDROOT
BRANCH   1   3
ATOM      2  O   UNL     1       5.429   4.658  19.241  0.00  0.00    +0.000 OA
ATOM      3  C   UNL     1       4.350   4.555  18.652  0.00  0.00    +0.000 C 
ATOM      4  N   UNL     1       3.445   3.555  19.021  0.00  0.00    +0.000 N 
ATOM      5  C   UNL     1       2.177   3.246  18.362  0.00  0.00    +0.000 C 
ATOM      6  C   UNL     1       1.014   3.364  19.343  0.00  0.00    +0.000 C 
ATOM      7  C   UNL     1       1.255   2.525  20.598  0.00  0.00    +0.000 C 
ATOM      8  C   UNL     1       2.620   2.822  21.218  0.00  0.00    +0.000 C 
ATOM      9  C   UNL     1       3.744   2.721  20.187  0.00  0.00    +0.000 C 
ENDBRANCH   1   3
BRANCH   1  10
ATOM     10  C   UNL     1       3.108   6.722  18.174  0.00  0.00    +0.000 A 
ATOM     11  C   UNL     1       2.651   6.711  19.503  0.00  0.00    +0.000 A 
ATOM     12  C   UNL     1       1.908   7.776  20.010  0.00  0.00    +0.000 A 
ATOM     13  C   UNL     1       1.635   8.882  19.209  0.00  0.00    +0.000 A 
ATOM     14  C   UNL     1       2.095   8.920  17.894  0.00  0.00    +0.000 A 
ATOM     15  C   UNL     1       2.814   7.842  17.376  0.00  0.00    +0.000 A 
ENDBRANCH   1  10
BRANCH   1  16
ATOM     16  S   UNL     1       5.380   6.196  16.757  0.00  0.00    +0.000 S 
ATOM     17  O   UNL     1       5.138   6.523  15.367  0.00  0.00    +0.000 OA
ATOM     18  O   UNL     1       6.113   7.072  17.645  0.00  0.00    +0.000 OA
BRANCH  16  19
ATOM     19  O   UNL     1       6.246   4.822  16.674  0.00  0.00    +0.000 OA
ATOM     20  H   UNL     1       5.702   4.120  17.102  0.00  0.00    +0.000 HD
ENDBRANCH  16  19
ENDBRANCH   1  16
TORSDOF 4
ENDMDL
MODEL 5
REMARK VINA RESULT:      -7.2      2.764      4.346
REMARK  Name = 
REMARK  4 active torsions:
REMARK  status: ('A' for Active; 'I' for Inactive)
REMARK    1  A    between atoms: C_2  and  C_3
REMARK    2  A    between atoms: C_3  and  C_4
REMARK    3  A    between atoms: C_3  and  S_10
REMARK    4  A    between atoms: S_10  and  O_13
REMARK                            x       y       z     vdW  Elec       q    Type
REMARK                         _______ _______ _______ _____ _____    ______ ____
ROOT
ATOM      1  C   UNL     1       6.004   4.310  16.755  0.00  0.00    +0.000 C 
ENDROOT
BRANCH   1   3
ATOM      2  O   UNL     1       4.559   6.235  16.664  0.00  0.00    +0.000 OA
ATOM      3  C   UNL     1       4.765   5.109  17.125  0.00  0.00    +0.000 C 
ATOM      4  N   UNL     1       3.797   4.493  17.924  0.00  0.00    +0.000 N 
ATOM      5  C   UNL     1       3.931   3.212  18.617  0.00  0.00    +0.000 C 
ATOM      6  C   UNL     1       2.842   2.240  18.172  0.00  0.00    +0.000 C 
ATOM      7  C   UNL     1       1.451   2.856  18.317  0.00  0.00    +0.000 C 
ATOM      8  C   UNL     1       1.369   4.226  17.644  0.00  0.00    +0.000 C 
ATOM      9  C   UNL     1       2.500   5.148  18.101  0.00  0.00    +0.000 C 
ENDBRANCH   1   3
BRANCH   1  10
ATOM     10  C   UNL     1       6.295   4.307  15.259  0.00  0.00    +0.000 A 
ATOM     11  C   UNL     1       5.486   3.595  14.356  0.00  0.00    +0.000 A 
ATOM     12  C   UNL     1       5.771   3.596  12.991  0.00  0.00    +0.000 A 
ATOM     13  C   UNL     1       6.847   4.331  12.502  0.00  0.00    +0.000 A 
ATOM     14  C   UNL     1       7.650   5.057  13.379  0.00  0.00    +0.000 A 
ATOM     15  C   UNL     1       7.385   5.033  14.750  0.00  0.00    +0.000 A 
ENDBRANCH   1  10
BRANCH   1  16
ATOM     16  S   UNL     1       7.420   4.979  17.653  0.00  0.00    +0.000 S 
ATOM     17  O   UNL     1       8.518   4.040  17.762  0.00  0.00    +0.000 OA
ATOM     18  O   UNL     1       7.617   6.365  17.287  0.00  0.00    +0.000 OA
BRANCH  16  19
ATOM     19  O   UNL     1       6.792   4.999  19.152  0.00  0.00    +0.000 OA
ATOM     20  H   UNL     1       7.191   5.773  19.615  0.00  0.00    +0.000 HD
ENDBRANCH  16  19
ENDBRANCH   1  16
TORSDOF 4
ENDMDL
MODEL 6
REMARK VINA RESULT:      -7.1      0.340      1.440
REMARK  Name = 
REMARK  4 active torsions:
REMARK  status: ('A' for Active; 'I' for Inactive)
REMARK    1  A    between atoms: C_2  and  C_3
REMARK    2  A    between atoms: C_3  and  C_4
REMARK    3  A    between atoms: C_3  and  S_10
REMARK    4  A    between atoms: S_10  and  O_13
REMARK                            x       y       z     vdW  Elec       q    Type
REMARK                         _______ _______ _______ _____ _____    ______ ____
ROOT
ATOM      1  C   UNL     1       4.999   4.925  17.882  0.00  0.00    +0.000 C 
ENDROOT
BRANCH   1   3
ATOM      2  O   UNL     1       5.450   3.230  19.533  0.00  0.00    +0.000 OA
ATOM      3  C   UNL     1       4.707   3.638  18.636  0.00  0.00    +0.000 C 
ATOM      4  N   UNL     1       3.509   2.971  18.365  0.00  0.00    +0.000 N 
ATOM      5  C   UNL     1       2.575   3.271  17.280  0.00  0.00    +0.000 C 
ATOM      6  C   UNL     1       1.190   3.592  17.832  0.00  0.00    +0.000 C 
ATOM      7  C   UNL     1       0.689   2.487  18.762  0.00  0.00    +0.000 C 
ATOM      8  C   UNL     1       1.721   2.149  19.839  0.00  0.00    +0.000 C 
ATOM      9  C   UNL     1       3.096   1.868  19.234  0.00  0.00    +0.000 C 
ENDBRANCH   1   3
BRANCH   1  10
ATOM     10  C   UNL     1       4.024   6.050  18.210  0.00  0.00    +0.000 A 
ATOM     11  C   UNL     1       3.318   6.078  19.425  0.00  0.00    +0.000 A 
ATOM     12  C   UNL     1       2.425   7.111  19.706  0.00  0.00    +0.000 A 
ATOM     13  C   UNL     1       2.244   8.147  18.794  0.00  0.00    +0.000 A 
ATOM     14  C   UNL     1       2.949   8.147  17.592  0.00  0.00    +0.000 A 
ATOM     15  C   UNL     1       3.822   7.098  17.295  0.00  0.00    +0.000 A 
ENDBRANCH   1  10
BRANCH   1  16
ATOM     16  S   UNL     1       6.686   5.449  18.252  0.00  0.00    +0.000 S 
ATOM     17  O   UNL     1       7.673   4.426  17.976  0.00  0.00    +0.000 OA
ATOM     18  O   UNL     1       6.865   6.829  17.852  0.00  0.00    +0.000 OA
BRANCH  16  19
ATOM     19  O   UNL     1       6.604   5.464  19.875  0.00  0.00    +0.000 OA
ATOM     20  H   UNL     1       6.120   6.285  20.127  0.00  0.00    +0.000 HD
ENDBRANCH  16  19
ENDBRANCH   1  16
TORSDOF 4
ENDMDL
MODEL 7
REMARK VINA RESULT:      -7.1      2.926      4.646
REMARK  Name = 
REMARK  4 active torsions:
REMARK  status: ('A' for Active; 'I' for Inactive)
REMARK    1  A    between atoms: C_2  and  C_3
REMARK    2  A    between atoms: C_3  and  C_4
REMARK    3  A    between atoms: C_3  and  S_10
REMARK    4  A    between atoms: S_10  and  O_13
REMARK                            x       y       z     vdW  Elec       q    Type
REMARK                         _______ _______ _______ _____ _____    ______ ____
ROOT
ATOM      1  C   UNL     1       3.083   3.941  19.016  0.00  0.00    +0.000 C 
ENDROOT
BRANCH   1   3
ATOM      2  O   UNL     1       3.070   3.309  16.692  0.00  0.00    +0.000 OA
ATOM      3  C   UNL     1       3.723   3.716  17.656  0.00  0.00    +0.000 C 
ATOM      4  N   UNL     1       5.060   4.088  17.486  0.00  0.00    +0.000 N 
ATOM      5  C   UNL     1       5.987   4.497  18.540  0.00  0.00    +0.000 C 
ATOM      6  C   UNL     1       6.534   5.895  18.267  0.00  0.00    +0.000 C 
ATOM      7  C   UNL     1       7.140   5.994  16.867  0.00  0.00    +0.000 C 
ATOM      8  C   UNL     1       6.170   5.491  15.799  0.00  0.00    +0.000 C 
ATOM      9  C   UNL     1       5.629   4.101  16.137  0.00  0.00    +0.000 C 
ENDBRANCH   1   3
BRANCH   1  10
ATOM     10  C   UNL     1       2.619   5.376  19.235  0.00  0.00    +0.000 A 
ATOM     11  C   UNL     1       2.047   5.784  20.452  0.00  0.00    +0.000 A 
ATOM     12  C   UNL     1       1.621   7.100  20.633  0.00  0.00    +0.000 A 
ATOM     13  C   UNL     1       1.787   8.035  19.616  0.00  0.00    +0.000 A 
ATOM     14  C   UNL     1       2.368   7.654  18.408  0.00  0.00    +0.000 A 
ATOM     15  C   UNL     1       2.768   6.331  18.213  0.00  0.00    +0.000 A 
ENDBRANCH   1  10
BRANCH   1  16
ATOM     16  S   UNL     1       1.686   2.812  19.198  0.00  0.00    +0.000 S 
ATOM     17  O   UNL     1       1.423   2.451  20.575  0.00  0.00    +0.000 OA
ATOM     18  O   UNL     1       0.633   3.190  18.279  0.00  0.00    +0.000 OA
BRANCH  16  19
ATOM     19  O   UNL     1       2.356   1.467  18.578  0.00  0.00    +0.000 OA
ATOM     20  H   UNL     1       3.326   1.536  18.738  0.00  0.00    +0.000 HD
ENDBRANCH  16  19
ENDBRANCH   1  16
TORSDOF 4
ENDMDL
MODEL 8
REMARK VINA RESULT:      -7.1      2.968      4.483
REMARK  Name = 
REMARK  4 active torsions:
REMARK  status: ('A' for Active; 'I' for Inactive)
REMARK    1  A    between atoms: C_2  and  C_3
REMARK    2  A    between atoms: C_3  and  C_4
REMARK    3  A    between atoms: C_3  and  S_10
REMARK    4  A    between atoms: S_10  and  O_13
REMARK                            x       y       z     vdW  Elec       q    Type
REMARK                         _______ _______ _______ _____ _____    ______ ____
ROOT
ATOM      1  C   UNL     1       3.168   4.872  19.582  0.00  0.00    +0.000 C 
ENDROOT
BRANCH   1   3
ATOM      2  O   UNL     1       2.650   3.692  17.548  0.00  0.00    +0.000 OA
ATOM      3  C   UNL     1       3.513   4.223  18.252  0.00  0.00    +0.000 C 
ATOM      4  N   UNL     1       4.825   4.335  17.783  0.00  0.00    +0.000 N 
ATOM      5  C   UNL     1       5.972   4.848  18.530  0.00  0.00    +0.000 C 
ATOM      6  C   UNL     1       6.601   6.035  17.808  0.00  0.00    +0.000 C 
ATOM      7  C   UNL     1       6.939   5.692  16.357  0.00  0.00    +0.000 C 
ATOM      8  C   UNL     1       5.737   5.091  15.628  0.00  0.00    +0.000 C 
ATOM      9  C   UNL     1       5.126   3.927  16.410  0.00  0.00    +0.000 C 
ENDBRANCH   1   3
BRANCH   1  10
ATOM     10  C   UNL     1       2.587   6.274  19.438  0.00  0.00    +0.000 A 
ATOM     11  C   UNL     1       1.984   6.933  20.523  0.00  0.00    +0.000 A 
ATOM     12  C   UNL     1       1.450   8.212  20.372  0.00  0.00    +0.000 A 
ATOM     13  C   UNL     1       1.538   8.866  19.146  0.00  0.00    +0.000 A 
ATOM     14  C   UNL     1       2.148   8.236  18.063  0.00  0.00    +0.000 A 
ATOM     15  C   UNL     1       2.657   6.944  18.204  0.00  0.00    +0.000 A 
ENDBRANCH   1  10
BRANCH   1  16
ATOM     16  S   UNL     1       2.002   3.814  20.464  0.00  0.00    +0.000 S 
ATOM     17  O   UNL     1       2.257   3.749  21.888  0.00  0.00    +0.000 OA
ATOM     18  O   UNL     1       0.673   3.997  19.921  0.00  0.00    +0.000 OA
BRANCH  16  19
ATOM     19  O   UNL     1       2.506   2.365  19.926  0.00  0.00    +0.000 OA
ATOM     20  H   UNL     1       3.482   2.338  20.061  0.00  0.00    +0.000 HD
ENDBRANCH  16  19
ENDBRANCH   1  16
TORSDOF 4
ENDMDL
MODEL 9
REMARK VINA RESULT:      -7.1      2.925      4.519
REMARK  Name = 
REMARK  4 active torsions:
REMARK  status: ('A' for Active; 'I' for Inactive)
REMARK    1  A    between atoms: C_2  and  C_3
REMARK    2  A    between atoms: C_3  and  C_4
REMARK    3  A    between atoms: C_3  and  S_10
REMARK    4  A    between atoms: S_10  and  O_13
REMARK                            x       y       z     vdW  Elec       q    Type
REMARK                         _______ _______ _______ _____ _____    ______ ____
ROOT
ATOM      1  C   UNL     1       3.100   3.934  19.005  0.00  0.00    +0.000 C 
ENDROOT
BRANCH   1   3
ATOM      2  O   UNL     1       3.079   3.303  16.681  0.00  0.00    +0.000 OA
ATOM      3  C   UNL     1       3.736   3.710  17.643  0.00  0.00    +0.000 C 
ATOM      4  N   UNL     1       5.072   4.082  17.469  0.00  0.00    +0.000 N 
ATOM      5  C   UNL     1       6.003   4.491  18.521  0.00  0.00    +0.000 C 
ATOM      6  C   UNL     1       6.548   5.890  18.247  0.00  0.00    +0.000 C 
ATOM      7  C   UNL     1       7.149   5.990  16.845  0.00  0.00    +0.000 C 
ATOM      8  C   UNL     1       6.176   5.486  15.779  0.00  0.00    +0.000 C 
ATOM      9  C   UNL     1       5.636   4.097  16.118  0.00  0.00    +0.000 C 
ENDBRANCH   1   3
BRANCH   1  10
ATOM     10  C   UNL     1       2.644   5.370  19.230  0.00  0.00    +0.000 A 
ATOM     11  C   UNL     1       2.790   6.351  18.232  0.00  0.00    +0.000 A 
ATOM     12  C   UNL     1       2.374   7.662  18.457  0.00  0.00    +0.000 A 
ATOM     13  C   UNL     1       1.779   8.011  19.666  0.00  0.00    +0.000 A 
ATOM     14  C   UNL     1       1.608   7.049  20.660  0.00  0.00    +0.000 A 
ATOM     15  C   UNL     1       2.051   5.741  20.449  0.00  0.00    +0.000 A 
ENDBRANCH   1  10
BRANCH   1  16
ATOM     16  S   UNL     1       1.698   2.811  19.187  0.00  0.00    +0.000 S 
ATOM     17  O   UNL     1       1.439   2.444  20.564  0.00  0.00    +0.000 OA
ATOM     18  O   UNL     1       0.643   3.198  18.274  0.00  0.00    +0.000 OA
BRANCH  16  19
ATOM     19  O   UNL     1       2.359   1.466  18.558  0.00  0.00    +0.000 OA
ATOM     20  H   UNL     1       2.301   0.770  19.254  0.00  0.00    +0.000 HD
ENDBRANCH  16  19
ENDBRANCH   1  16
TORSDOF 4
ENDMDL
