MODEL 1
REMARK VINA RESULT:      -9.1      0.000      0.000
REMARK  Name = 
REMARK  5 active torsions:
REMARK  status: ('A' for Active; 'I' for Inactive)
REMARK    1  A    between atoms: N_14  and  C_15
REMARK    2  A    between atoms: C_15  and  C_16
REMARK    3  A    between atoms: C_16  and  N_17
REMARK    4  A    between atoms: C_20  and  C_21
REMARK    5  A    between atoms: C_21  and  C_22
REMARK                            x       y       z     vdW  Elec       q    Type
REMARK                         _______ _______ _______ _____ _____    ______ ____
ROOT
ATOM      1  N   UNL     1       7.630   7.982  17.445  0.00  0.00    +0.000 NA
ATOM      2  C   UNL     1       8.076   6.957  18.408  0.00  0.00    +0.000 C 
ATOM      3  C   UNL     1       7.565   5.556  18.046  0.00  0.00    +0.000 C 
ATOM      4  C   UNL     1       6.044   5.478  17.970  0.00  0.00    +0.000 C 
ATOM      5  C   UNL     1       5.584   6.600  17.002  0.00  0.00    +0.000 C 
ATOM      6  C   UNL     1       6.161   7.988  17.332  0.00  0.00    +0.000 C 
ENDROOT
BRANCH   1   7
ATOM      7  C   UNL     1       8.125   9.341  17.810  0.00  0.00    +0.000 C 
BRANCH   7   8
ATOM      8  C   UNL     1       8.952   9.398  19.118  0.00  0.00    +0.000 C 
BRANCH   8  22
ATOM      9  O   UNL     1      11.720  11.411  18.131  0.00  0.00    +0.000 OA
ATOM     10  S   UNL     1      10.325  11.694  18.318  0.00  0.00    +0.000 S 
ATOM     11  O   UNL     1       9.445  12.264  17.326  0.00  0.00    +0.000 OA
ATOM     12  C   UNL     1      10.468  13.112  19.394  0.00  0.00    +0.000 A 
ATOM     13  C   UNL     1      11.079  14.338  19.195  0.00  0.00    +0.000 A 
ATOM     14  C   UNL     1      11.013  15.240  20.253  0.00  0.00    +0.000 A 
ATOM     15  C   UNL     1      10.353  14.939  21.468  0.00  0.00    +0.000 A 
ATOM     16  C   UNL     1       9.742  13.671  21.614  0.00  0.00    +0.000 A 
ATOM     17  C   UNL     1       9.040  13.259  22.776  0.00  0.00    +0.000 A 
ATOM     18  C   UNL     1       8.474  11.968  22.819  0.00  0.00    +0.000 A 
ATOM     19  C   UNL     1       8.585  11.068  21.747  0.00  0.00    +0.000 A 
ATOM     20  C   UNL     1       9.287  11.491  20.624  0.00  0.00    +0.000 A 
ATOM     21  C   UNL     1       9.832  12.781  20.581  0.00  0.00    +0.000 A 
ATOM     22  N   UNL     1       9.548  10.705  19.427  0.00  0.00    +0.000 N 
ENDBRANCH   8  22
ENDBRANCH   7   8
ENDBRANCH   1   7
BRANCH   4  23
ATOM     23  C   UNL     1       5.375   5.560  19.356  0.00  0.00    +0.000 C 
BRANCH  23  24
ATOM     24  C   UNL     1       3.904   5.196  19.475  0.00  0.00    +0.000 A 
ATOM     25  C   UNL     1       2.931   6.130  19.796  0.00  0.00    +0.000 A 
ATOM     26  N   UNL     1       1.968   5.437  20.471  0.00  0.00    +0.000 N 
ATOM     27  C   UNL     1       1.825   4.274  19.757  0.00  0.00    +0.000 A 
ATOM     28  C   UNL     1       0.702   3.446  19.632  0.00  0.00    +0.000 A 
ATOM     29  C   UNL     1       0.842   2.310  18.847  0.00  0.00    +0.000 A 
ATOM     30  C   UNL     1       2.089   1.962  18.332  0.00  0.00    +0.000 A 
ATOM     31  C   UNL     1       3.222   2.778  18.541  0.00  0.00    +0.000 A 
ATOM     32  F   UNL     1       4.393   2.384  18.021  0.00  0.00    +0.000 F 
ATOM     33  C   UNL     1       3.098   4.019  19.207  0.00  0.00    +0.000 A 
ATOM     34  H   UNL     1       1.952   5.390  21.479  0.00  0.00    +0.000 HD
ENDBRANCH  23  24
ENDBRANCH   4  23
TORSDOF 5
ENDMDL
MODEL 2
REMARK VINA RESULT:      -9.1      6.218      7.151
REMARK  Name = 
REMARK  5 active torsions:
REMARK  status: ('A' for Active; 'I' for Inactive)
REMARK    1  A    between atoms: N_14  and  C_15
REMARK    2  A    between atoms: C_15  and  C_16
REMARK    3  A    between atoms: C_16  and  N_17
REMARK    4  A    between atoms: C_20  and  C_21
REMARK    5  A    between atoms: C_21  and  C_22
REMARK                            x       y       z     vdW  Elec       q    Type
REMARK                         _______ _______ _______ _____ _____    ______ ____
ROOT
ATOM      1  N   UNL     1       4.094   7.248  17.888  0.00  0.00    +0.000 NA
ATOM      2  C   UNL     1       4.133   6.168  18.893  0.00  0.00    +0.000 C 
ATOM      3  C   UNL     1       5.453   5.386  18.856  0.00  0.00    +0.000 C 
ATOM      4  C   UNL     1       5.734   4.754  17.498  0.00  0.00    +0.000 C 
ATOM      5  C   UNL     1       5.630   5.889  16.444  0.00  0.00    +0.000 C 
ATOM      6  C   UNL     1       4.333   6.713  16.536  0.00  0.00    +0.000 C 
ENDROOT
BRANCH   1   7
ATOM      7  C   UNL     1       2.804   7.997  17.926  0.00  0.00    +0.000 C 
BRANCH   7   8
ATOM      8  C   UNL     1       2.108   8.015  19.309  0.00  0.00    +0.000 C 
BRANCH   8  22
ATOM      9  O   UNL     1       1.709  11.336  18.086  0.00  0.00    +0.000 OA
ATOM     10  S   UNL     1       0.772  10.314  18.459  0.00  0.00    +0.000 S 
ATOM     11  O   UNL     1      -0.271   9.783  17.613  0.00  0.00    +0.000 OA
ATOM     12  C   UNL     1      -0.249  11.262  19.577  0.00  0.00    +0.000 A 
ATOM     13  C   UNL     1      -1.000  12.404  19.364  0.00  0.00    +0.000 A 
ATOM     14  C   UNL     1      -1.690  12.904  20.465  0.00  0.00    +0.000 A 
ATOM     15  C   UNL     1      -1.643  12.284  21.736  0.00  0.00    +0.000 A 
ATOM     16  C   UNL     1      -0.861  11.116  21.894  0.00  0.00    +0.000 A 
ATOM     17  C   UNL     1      -0.746  10.398  23.113  0.00  0.00    +0.000 A 
ATOM     18  C   UNL     1       0.068   9.247  23.163  0.00  0.00    +0.000 A 
ATOM     19  C   UNL     1       0.777   8.786  22.042  0.00  0.00    +0.000 A 
ATOM     20  C   UNL     1       0.658   9.512  20.863  0.00  0.00    +0.000 A 
ATOM     21  C   UNL     1      -0.166  10.644  20.816  0.00  0.00    +0.000 A 
ATOM     22  N   UNL     1       1.333   9.228  19.606  0.00  0.00    +0.000 N 
ENDBRANCH   8  22
ENDBRANCH   7   8
ENDBRANCH   1   7
BRANCH   4  23
ATOM     23  C   UNL     1       4.809   3.558  17.195  0.00  0.00    +0.000 C 
BRANCH  23  24
ATOM     24  C   UNL     1       3.456   3.496  17.884  0.00  0.00    +0.000 A 
ATOM     25  C   UNL     1       2.261   3.583  17.184  0.00  0.00    +0.000 A 
ATOM     26  N   UNL     1       1.378   4.174  18.040  0.00  0.00    +0.000 N 
ATOM     27  C   UNL     1       1.613   3.559  19.245  0.00  0.00    +0.000 A 
ATOM     28  C   UNL     1       0.735   3.351  20.317  0.00  0.00    +0.000 A 
ATOM     29  C   UNL     1       1.248   2.704  21.433  0.00  0.00    +0.000 A 
ATOM     30  C   UNL     1       2.608   2.410  21.512  0.00  0.00    +0.000 A 
ATOM     31  C   UNL     1       3.483   2.704  20.444  0.00  0.00    +0.000 A 
ATOM     32  F   UNL     1       4.782   2.399  20.585  0.00  0.00    +0.000 F 
ATOM     33  C   UNL     1       2.983   3.226  19.229  0.00  0.00    +0.000 A 
ATOM     34  H   UNL     1       1.209   5.169  18.031  0.00  0.00    +0.000 HD
ENDBRANCH  23  24
ENDBRANCH   4  23
TORSDOF 5
ENDMDL
MODEL 3
REMARK VINA RESULT:      -9.0      6.524      8.312
REMARK  Name = 
REMARK  5 active torsions:
REMARK  status: ('A' for Active; 'I' for Inactive)
REMARK    1  A    between atoms: N_14  and  C_15
REMARK    2  A    between atoms: C_15  and  C_16
REMARK    3  A    between atoms: C_16  and  N_17
REMARK    4  A    between atoms: C_20  and  C_21
REMARK    5  A    between atoms: C_21  and  C_22
REMARK                            x       y       z     vdW  Elec       q    Type
REMARK                         _______ _______ _______ _____ _____    ______ ____
ROOT
ATOM      1  N   UNL     1       2.143   4.004  19.733  0.00  0.00    +0.000 NA
ATOM      2  C   UNL     1       1.686   3.853  18.338  0.00  0.00    +0.000 C 
ATOM      3  C   UNL     1       2.596   2.924  17.525  0.00  0.00    +0.000 C 
ATOM      4  C   UNL     1       4.045   3.397  17.481  0.00  0.00    +0.000 C 
ATOM      5  C   UNL     1       4.494   3.610  18.951  0.00  0.00    +0.000 C 
ATOM      6  C   UNL     1       3.535   4.486  19.778  0.00  0.00    +0.000 C 
ENDROOT
BRANCH   1   7
ATOM      7  C   UNL     1       1.256   4.916  20.513  0.00  0.00    +0.000 C 
BRANCH   7   8
ATOM      8  C   UNL     1       1.975   6.137  21.139  0.00  0.00    +0.000 C 
BRANCH   8  22
ATOM      9  O   UNL     1      -0.823   8.147  22.042  0.00  0.00    +0.000 OA
ATOM     10  S   UNL     1       0.578   8.430  21.901  0.00  0.00    +0.000 S 
ATOM     11  O   UNL     1       1.427   8.998  22.922  0.00  0.00    +0.000 OA
ATOM     12  C   UNL     1       0.470   9.852  20.824  0.00  0.00    +0.000 A 
ATOM     13  C   UNL     1      -0.148  11.077  21.007  0.00  0.00    +0.000 A 
ATOM     14  C   UNL     1      -0.048  11.982  19.954  0.00  0.00    +0.000 A 
ATOM     15  C   UNL     1       0.651  11.684  18.760  0.00  0.00    +0.000 A 
ATOM     16  C   UNL     1       1.266  10.417  18.630  0.00  0.00    +0.000 A 
ATOM     17  C   UNL     1       2.004  10.007  17.490  0.00  0.00    +0.000 A 
ATOM     18  C   UNL     1       2.572   8.716  17.461  0.00  0.00    +0.000 A 
ATOM     19  C   UNL     1       2.426   7.814  18.527  0.00  0.00    +0.000 A 
ATOM     20  C   UNL     1       1.689   8.233  19.628  0.00  0.00    +0.000 A 
ATOM     21  C   UNL     1       1.143   9.523  19.657  0.00  0.00    +0.000 A 
ATOM     22  N   UNL     1       1.390   7.445  20.814  0.00  0.00    +0.000 N 
ENDBRANCH   8  22
ENDBRANCH   7   8
ENDBRANCH   1   7
BRANCH   4  23
ATOM     23  C   UNL     1       4.235   4.649  16.601  0.00  0.00    +0.000 C 
BRANCH  23  24
ATOM     24  C   UNL     1       5.510   4.774  15.782  0.00  0.00    +0.000 A 
ATOM     25  C   UNL     1       6.736   5.071  16.358  0.00  0.00    +0.000 A 
ATOM     26  N   UNL     1       7.429   5.762  15.407  0.00  0.00    +0.000 N 
ATOM     27  C   UNL     1       7.181   5.076  14.244  0.00  0.00    +0.000 A 
ATOM     28  C   UNL     1       7.975   4.970  13.095  0.00  0.00    +0.000 A 
ATOM     29  C   UNL     1       7.467   4.212  12.048  0.00  0.00    +0.000 A 
ATOM     30  C   UNL     1       6.171   3.707  12.111  0.00  0.00    +0.000 A 
ATOM     31  C   UNL     1       5.365   3.898  13.254  0.00  0.00    +0.000 A 
ATOM     32  F   UNL     1       4.124   3.389  13.249  0.00  0.00    +0.000 F 
ATOM     33  C   UNL     1       5.889   4.534  14.403  0.00  0.00    +0.000 A 
ATOM     34  H   UNL     1       7.437   6.771  15.380  0.00  0.00    +0.000 HD
ENDBRANCH  23  24
ENDBRANCH   4  23
TORSDOF 5
ENDMDL
MODEL 4
REMARK VINA RESULT:      -8.9      6.009      8.490
REMARK  Name = 
REMARK  5 active torsions:
REMARK  status: ('A' for Active; 'I' for Inactive)
REMARK    1  A    between atoms: N_14  and  C_15
REMARK    2  A    between atoms: C_15  and  C_16
REMARK    3  A    between atoms: C_16  and  N_17
REMARK    4  A    between atoms: C_20  and  C_21
REMARK    5  A    between atoms: C_21  and  C_22
REMARK                            x       y       z     vdW  Elec       q    Type
REMARK                         _______ _______ _______ _____ _____    ______ ____
ROOT
ATOM      1  N   UNL     1       1.648   6.111  19.591  0.00  0.00    +0.000 NA
ATOM      2  C   UNL     1       2.242   5.754  18.288  0.00  0.00    +0.000 C 
ATOM      3  C   UNL     1       1.695   4.429  17.742  0.00  0.00    +0.000 C 
ATOM      4  C   UNL     1       1.926   3.254  18.686  0.00  0.00    +0.000 C 
ATOM      5  C   UNL     1       1.351   3.666  20.067  0.00  0.00    +0.000 C 
ATOM      6  C   UNL     1       1.852   5.031  20.573  0.00  0.00    +0.000 C 
ENDROOT
BRANCH   1   7
ATOM      7  C   UNL     1       2.192   7.396  20.117  0.00  0.00    +0.000 C 
BRANCH   7   8
ATOM      8  C   UNL     1       1.626   8.666  19.435  0.00  0.00    +0.000 C 
BRANCH   8  22
ATOM      9  O   UNL     1      -0.700   8.150  22.083  0.00  0.00    +0.000 OA
ATOM     10  S   UNL     1       0.309   9.145  21.850  0.00  0.00    +0.000 S 
ATOM     11  O   UNL     1       1.392   9.468  22.747  0.00  0.00    +0.000 OA
ATOM     12  C   UNL     1      -0.683  10.611  22.092  0.00  0.00    +0.000 A 
ATOM     13  C   UNL     1      -1.396  11.047  23.195  0.00  0.00    +0.000 A 
ATOM     14  C   UNL     1      -2.078  12.252  23.054  0.00  0.00    +0.000 A 
ATOM     15  C   UNL     1      -2.045  13.007  21.857  0.00  0.00    +0.000 A 
ATOM     16  C   UNL     1      -1.297  12.515  20.763  0.00  0.00    +0.000 A 
ATOM     17  C   UNL     1      -1.177  13.186  19.518  0.00  0.00    +0.000 A 
ATOM     18  C   UNL     1      -0.410  12.602  18.489  0.00  0.00    +0.000 A 
ATOM     19  C   UNL     1       0.241  11.369  18.652  0.00  0.00    +0.000 A 
ATOM     20  C   UNL     1       0.099  10.725  19.875  0.00  0.00    +0.000 A 
ATOM     21  C   UNL     1      -0.650  11.319  20.899  0.00  0.00    +0.000 A 
ATOM     22  N   UNL     1       0.657   9.429  20.235  0.00  0.00    +0.000 N 
ENDBRANCH   8  22
ENDBRANCH   7   8
ENDBRANCH   1   7
BRANCH   4  23
ATOM     23  C   UNL     1       3.406   2.825  18.749  0.00  0.00    +0.000 C 
BRANCH  23  24
ATOM     24  C   UNL     1       4.382   3.437  17.758  0.00  0.00    +0.000 A 
ATOM     25  C   UNL     1       4.356   3.134  16.405  0.00  0.00    +0.000 A 
ATOM     26  N   UNL     1       5.648   3.242  15.981  0.00  0.00    +0.000 N 
ATOM     27  C   UNL     1       6.108   4.385  16.585  0.00  0.00    +0.000 A 
ATOM     28  C   UNL     1       7.109   5.268  16.160  0.00  0.00    +0.000 A 
ATOM     29  C   UNL     1       7.383   6.352  16.984  0.00  0.00    +0.000 A 
ATOM     30  C   UNL     1       6.772   6.457  18.232  0.00  0.00    +0.000 A 
ATOM     31  C   UNL     1       5.822   5.507  18.665  0.00  0.00    +0.000 A 
ATOM     32  F   UNL     1       5.274   5.665  19.879  0.00  0.00    +0.000 F 
ATOM     33  C   UNL     1       5.401   4.469  17.802  0.00  0.00    +0.000 A 
ATOM     34  H   UNL     1       6.262   2.442  15.930  0.00  0.00    +0.000 HD
ENDBRANCH  23  24
ENDBRANCH   4  23
TORSDOF 5
ENDMDL
MODEL 5
REMARK VINA RESULT:      -8.9      1.283      1.632
REMARK  Name = 
REMARK  5 active torsions:
REMARK  status: ('A' for Active; 'I' for Inactive)
REMARK    1  A    between atoms: N_14  and  C_15
REMARK    2  A    between atoms: C_15  and  C_16
REMARK    3  A    between atoms: C_16  and  N_17
REMARK    4  A    between atoms: C_20  and  C_21
REMARK    5  A    between atoms: C_21  and  C_22
REMARK                            x       y       z     vdW  Elec       q    Type
REMARK                         _______ _______ _______ _____ _____    ______ ____
ROOT
ATOM      1  N   UNL     1       7.876   8.140  17.554  0.00  0.00    +0.000 NA
ATOM      2  C   UNL     1       8.203   7.137  18.587  0.00  0.00    +0.000 C 
ATOM      3  C   UNL     1       7.859   5.710  18.141  0.00  0.00    +0.000 C 
ATOM      4  C   UNL     1       6.388   5.534  17.785  0.00  0.00    +0.000 C 
ATOM      5  C   UNL     1       6.042   6.632  16.744  0.00  0.00    +0.000 C 
ATOM      6  C   UNL     1       6.456   8.053  17.171  0.00  0.00    +0.000 C 
ENDROOT
BRANCH   1   7
ATOM      7  C   UNL     1       8.205   9.525  18.000  0.00  0.00    +0.000 C 
BRANCH   7   8
ATOM      8  C   UNL     1       9.102   9.603  19.260  0.00  0.00    +0.000 C 
BRANCH   8  22
ATOM      9  O   UNL     1      11.908  11.560  18.267  0.00  0.00    +0.000 OA
ATOM     10  S   UNL     1      10.509  11.856  18.400  0.00  0.00    +0.000 S 
ATOM     11  O   UNL     1       9.661  12.384  17.358  0.00  0.00    +0.000 OA
ATOM     12  C   UNL     1      10.626  13.321  19.415  0.00  0.00    +0.000 A 
ATOM     13  C   UNL     1      11.249  14.534  19.181  0.00  0.00    +0.000 A 
ATOM     14  C   UNL     1      11.156  15.483  20.195  0.00  0.00    +0.000 A 
ATOM     15  C   UNL     1      10.459  15.238  21.402  0.00  0.00    +0.000 A 
ATOM     16  C   UNL     1       9.838  13.981  21.586  0.00  0.00    +0.000 A 
ATOM     17  C   UNL     1       9.101  13.622  22.744  0.00  0.00    +0.000 A 
ATOM     18  C   UNL     1       8.527  12.336  22.828  0.00  0.00    +0.000 A 
ATOM     19  C   UNL     1       8.665  11.390  21.800  0.00  0.00    +0.000 A 
ATOM     20  C   UNL     1       9.402  11.759  20.681  0.00  0.00    +0.000 A 
ATOM     21  C   UNL     1       9.954  13.045  20.597  0.00  0.00    +0.000 A 
ATOM     22  N   UNL     1       9.695  10.920  19.528  0.00  0.00    +0.000 N 
ENDBRANCH   8  22
ENDBRANCH   7   8
ENDBRANCH   1   7
BRANCH   4  23
ATOM     23  C   UNL     1       5.469   5.561  19.023  0.00  0.00    +0.000 C 
BRANCH  23  24
ATOM     24  C   UNL     1       4.537   4.384  19.261  0.00  0.00    +0.000 A 
ATOM     25  C   UNL     1       4.995   3.077  19.332  0.00  0.00    +0.000 A 
ATOM     26  N   UNL     1       3.973   2.306  18.861  0.00  0.00    +0.000 N 
ATOM     27  C   UNL     1       2.849   2.844  19.437  0.00  0.00    +0.000 A 
ATOM     28  C   UNL     1       1.635   2.222  19.755  0.00  0.00    +0.000 A 
ATOM     29  C   UNL     1       0.651   3.019  20.326  0.00  0.00    +0.000 A 
ATOM     30  C   UNL     1       0.840   4.395  20.439  0.00  0.00    +0.000 A 
ATOM     31  C   UNL     1       2.048   5.004  20.036  0.00  0.00    +0.000 A 
ATOM     32  F   UNL     1       2.164   6.334  20.168  0.00  0.00    +0.000 F 
ATOM     33  C   UNL     1       3.134   4.217  19.587  0.00  0.00    +0.000 A 
ATOM     34  H   UNL     1       3.927   2.011  17.897  0.00  0.00    +0.000 HD
ENDBRANCH  23  24
ENDBRANCH   4  23
TORSDOF 5
ENDMDL
MODEL 6
REMARK VINA RESULT:      -8.9      1.470      1.755
REMARK  Name = 
REMARK  5 active torsions:
REMARK  status: ('A' for Active; 'I' for Inactive)
REMARK    1  A    between atoms: N_14  and  C_15
REMARK    2  A    between atoms: C_15  and  C_16
REMARK    3  A    between atoms: C_16  and  N_17
REMARK    4  A    between atoms: C_20  and  C_21
REMARK    5  A    between atoms: C_21  and  C_22
REMARK                            x       y       z     vdW  Elec       q    Type
REMARK                         _______ _______ _______ _____ _____    ______ ____
ROOT
ATOM      1  N   UNL     1       8.005   7.788  17.706  0.00  0.00    +0.000 NA
ATOM      2  C   UNL     1       8.095   7.005  18.954  0.00  0.00    +0.000 C 
ATOM      3  C   UNL     1       8.019   5.494  18.700  0.00  0.00    +0.000 C 
ATOM      4  C   UNL     1       6.738   5.072  17.989  0.00  0.00    +0.000 C 
ATOM      5  C   UNL     1       6.624   5.945  16.711  0.00  0.00    +0.000 C 
ATOM      6  C   UNL     1       6.774   7.456  16.968  0.00  0.00    +0.000 C 
ENDROOT
BRANCH   1   7
ATOM      7  C   UNL     1       8.072   9.256  17.964  0.00  0.00    +0.000 C 
BRANCH   7   8
ATOM      8  C   UNL     1       9.091   9.676  19.051  0.00  0.00    +0.000 C 
BRANCH   8  22
ATOM      9  O   UNL     1      10.707  12.338  17.324  0.00  0.00    +0.000 OA
ATOM     10  S   UNL     1       9.400  12.202  17.904  0.00  0.00    +0.000 S 
ATOM     11  O   UNL     1       8.150  12.393  17.208  0.00  0.00    +0.000 OA
ATOM     12  C   UNL     1       9.379  13.683  18.902  0.00  0.00    +0.000 A 
ATOM     13  C   UNL     1       9.496  15.015  18.543  0.00  0.00    +0.000 A 
ATOM     14  C   UNL     1       9.442  15.941  19.580  0.00  0.00    +0.000 A 
ATOM     15  C   UNL     1       9.268  15.559  20.931  0.00  0.00    +0.000 A 
ATOM     16  C   UNL     1       9.150  14.184  21.239  0.00  0.00    +0.000 A 
ATOM     17  C   UNL     1       8.959  13.679  22.551  0.00  0.00    +0.000 A 
ATOM     18  C   UNL     1       8.861  12.286  22.748  0.00  0.00    +0.000 A 
ATOM     19  C   UNL     1       8.951  11.374  21.685  0.00  0.00    +0.000 A 
ATOM     20  C   UNL     1       9.150  11.892  20.410  0.00  0.00    +0.000 A 
ATOM     21  C   UNL     1       9.229  13.277  20.220  0.00  0.00    +0.000 A 
ATOM     22  N   UNL     1       9.307  11.123  19.184  0.00  0.00    +0.000 N 
ENDBRANCH   8  22
ENDBRANCH   7   8
ENDBRANCH   1   7
BRANCH   4  23
ATOM     23  C   UNL     1       5.496   5.164  18.899  0.00  0.00    +0.000 C 
BRANCH  23  24
ATOM     24  C   UNL     1       4.315   4.253  18.608  0.00  0.00    +0.000 A 
ATOM     25  C   UNL     1       4.366   3.254  17.647  0.00  0.00    +0.000 A 
ATOM     26  N   UNL     1       3.092   3.138  17.172  0.00  0.00    +0.000 N 
ATOM     27  C   UNL     1       2.305   3.195  18.296  0.00  0.00    +0.000 A 
ATOM     28  C   UNL     1       1.041   2.636  18.518  0.00  0.00    +0.000 A 
ATOM     29  C   UNL     1       0.462   2.864  19.759  0.00  0.00    +0.000 A 
ATOM     30  C   UNL     1       1.070   3.725  20.670  0.00  0.00    +0.000 A 
ATOM     31  C   UNL     1       2.310   4.337  20.384  0.00  0.00    +0.000 A 
ATOM     32  F   UNL     1       2.839   5.159  21.302  0.00  0.00    +0.000 F 
ATOM     33  C   UNL     1       3.010   4.020  19.197  0.00  0.00    +0.000 A 
ATOM     34  H   UNL     1       2.785   3.625  16.343  0.00  0.00    +0.000 HD
ENDBRANCH  23  24
ENDBRANCH   4  23
TORSDOF 5
ENDMDL
MODEL 7
REMARK VINA RESULT:      -8.8      6.146      9.479
REMARK  Name = 
REMARK  5 active torsions:
REMARK  status: ('A' for Active; 'I' for Inactive)
REMARK    1  A    between atoms: N_14  and  C_15
REMARK    2  A    between atoms: C_15  and  C_16
REMARK    3  A    between atoms: C_16  and  N_17
REMARK    4  A    between atoms: C_20  and  C_21
REMARK    5  A    between atoms: C_21  and  C_22
REMARK                            x       y       z     vdW  Elec       q    Type
REMARK                         _______ _______ _______ _____ _____    ______ ____
ROOT
ATOM      1  N   UNL     1       1.576   8.032  19.339  0.00  0.00    +0.000 NA
ATOM      2  C   UNL     1       2.546   7.776  18.257  0.00  0.00    +0.000 C 
ATOM      3  C   UNL     1       2.609   6.293  17.870  0.00  0.00    +0.000 C 
ATOM      4  C   UNL     1       2.980   5.386  19.038  0.00  0.00    +0.000 C 
ATOM      5  C   UNL     1       1.991   5.708  20.189  0.00  0.00    +0.000 C 
ATOM      6  C   UNL     1       1.883   7.207  20.522  0.00  0.00    +0.000 C 
ENDROOT
BRANCH   1   7
ATOM      7  C   UNL     1       1.529   9.474  19.715  0.00  0.00    +0.000 C 
BRANCH   7   8
ATOM      8  C   UNL     1       0.844  10.392  18.672  0.00  0.00    +0.000 C 
BRANCH   8  22
ATOM      9  O   UNL     1      -0.944  11.404  21.582  0.00  0.00    +0.000 OA
ATOM     10  S   UNL     1      -0.795  11.984  20.277  0.00  0.00    +0.000 S 
ATOM     11  O   UNL     1      -0.314  13.317  20.001  0.00  0.00    +0.000 OA
ATOM     12  C   UNL     1      -2.519  12.235  19.882  0.00  0.00    +0.000 A 
ATOM     13  C   UNL     1      -3.491  12.985  20.521  0.00  0.00    +0.000 A 
ATOM     14  C   UNL     1      -4.760  12.967  19.950  0.00  0.00    +0.000 A 
ATOM     15  C   UNL     1      -5.054  12.233  18.776  0.00  0.00    +0.000 A 
ATOM     16  C   UNL     1      -4.020  11.487  18.164  0.00  0.00    +0.000 A 
ATOM     17  C   UNL     1      -4.187  10.724  16.979  0.00  0.00    +0.000 A 
ATOM     18  C   UNL     1      -3.089  10.011  16.455  0.00  0.00    +0.000 A 
ATOM     19  C   UNL     1      -1.828  10.024  17.072  0.00  0.00    +0.000 A 
ATOM     20  C   UNL     1      -1.692  10.768  18.238  0.00  0.00    +0.000 A 
ATOM     21  C   UNL     1      -2.782  11.489  18.742  0.00  0.00    +0.000 A 
ATOM     22  N   UNL     1      -0.488  10.885  19.048  0.00  0.00    +0.000 N 
ENDBRANCH   8  22
ENDBRANCH   7   8
ENDBRANCH   1   7
BRANCH   4  23
ATOM     23  C   UNL     1       4.459   5.525  19.451  0.00  0.00    +0.000 C 
BRANCH  23  24
ATOM     24  C   UNL     1       5.521   5.509  18.364  0.00  0.00    +0.000 A 
ATOM     25  C   UNL     1       6.821   5.934  18.590  0.00  0.00    +0.000 A 
ATOM     26  N   UNL     1       7.254   6.436  17.397  0.00  0.00    +0.000 N 
ATOM     27  C   UNL     1       6.806   5.531  16.467  0.00  0.00    +0.000 A 
ATOM     28  C   UNL     1       7.343   5.215  15.213  0.00  0.00    +0.000 A 
ATOM     29  C   UNL     1       6.670   4.258  14.464  0.00  0.00    +0.000 A 
ATOM     30  C   UNL     1       5.449   3.753  14.904  0.00  0.00    +0.000 A 
ATOM     31  C   UNL     1       4.894   4.151  16.140  0.00  0.00    +0.000 A 
ATOM     32  F   UNL     1       3.713   3.631  16.504  0.00  0.00    +0.000 F 
ATOM     33  C   UNL     1       5.612   5.009  17.005  0.00  0.00    +0.000 A 
ATOM     34  H   UNL     1       7.197   7.420  17.180  0.00  0.00    +0.000 HD
ENDBRANCH  23  24
ENDBRANCH   4  23
TORSDOF 5
ENDMDL
MODEL 8
REMARK VINA RESULT:      -8.8      6.303      8.255
REMARK  Name = 
REMARK  5 active torsions:
REMARK  status: ('A' for Active; 'I' for Inactive)
REMARK    1  A    between atoms: N_14  and  C_15
REMARK    2  A    between atoms: C_15  and  C_16
REMARK    3  A    between atoms: C_16  and  N_17
REMARK    4  A    between atoms: C_20  and  C_21
REMARK    5  A    between atoms: C_21  and  C_22
REMARK                            x       y       z     vdW  Elec       q    Type
REMARK                         _______ _______ _______ _____ _____    ______ ____
ROOT
ATOM      1  N   UNL     1       3.141   6.141  19.050  0.00  0.00    +0.000 NA
ATOM      2  C   UNL     1       2.429   4.974  18.494  0.00  0.00    +0.000 C 
ATOM      3  C   UNL     1       3.231   3.675  18.647  0.00  0.00    +0.000 C 
ATOM      4  C   UNL     1       4.598   3.736  17.976  0.00  0.00    +0.000 C 
ATOM      5  C   UNL     1       5.313   5.001  18.523  0.00  0.00    +0.000 C 
ATOM      6  C   UNL     1       4.471   6.286  18.430  0.00  0.00    +0.000 C 
ENDROOT
BRANCH   1   7
ATOM      7  C   UNL     1       2.358   7.400  18.889  0.00  0.00    +0.000 C 
BRANCH   7   8
ATOM      8  C   UNL     1       1.619   7.870  20.167  0.00  0.00    +0.000 C 
BRANCH   8  22
ATOM      9  O   UNL     1       2.030  10.900  18.340  0.00  0.00    +0.000 OA
ATOM     10  S   UNL     1       0.876  10.123  18.695  0.00  0.00    +0.000 S 
ATOM     11  O   UNL     1      -0.096   9.593  17.768  0.00  0.00    +0.000 OA
ATOM     12  C   UNL     1      -0.122  11.416  19.417  0.00  0.00    +0.000 A 
ATOM     13  C   UNL     1      -0.610  12.591  18.872  0.00  0.00    +0.000 A 
ATOM     14  C   UNL     1      -1.366  13.397  19.717  0.00  0.00    +0.000 A 
ATOM     15  C   UNL     1      -1.637  13.045  21.061  0.00  0.00    +0.000 A 
ATOM     16  C   UNL     1      -1.115  11.831  21.564  0.00  0.00    +0.000 A 
ATOM     17  C   UNL     1      -1.329  11.363  22.887  0.00  0.00    +0.000 A 
ATOM     18  C   UNL     1      -0.756  10.138  23.288  0.00  0.00    +0.000 A 
ATOM     19  C   UNL     1       0.028   9.362  22.420  0.00  0.00    +0.000 A 
ATOM     20  C   UNL     1       0.234   9.846  21.134  0.00  0.00    +0.000 A 
ATOM     21  C   UNL     1      -0.353  11.055  20.736  0.00  0.00    +0.000 A 
ATOM     22  N   UNL     1       1.040   9.218  20.097  0.00  0.00    +0.000 N 
ENDBRANCH   8  22
ENDBRANCH   7   8
ENDBRANCH   1   7
BRANCH   4  23
ATOM     23  C   UNL     1       4.506   3.710  16.437  0.00  0.00    +0.000 C 
BRANCH  23  24
ATOM     24  C   UNL     1       5.718   4.147  15.630  0.00  0.00    +0.000 A 
ATOM     25  C   UNL     1       6.934   4.452  16.222  0.00  0.00    +0.000 A 
ATOM     26  N   UNL     1       7.502   5.400  15.423  0.00  0.00    +0.000 N 
ATOM     27  C   UNL     1       7.268   4.951  14.147  0.00  0.00    +0.000 A 
ATOM     28  C   UNL     1       8.010   5.180  12.980  0.00  0.00    +0.000 A 
ATOM     29  C   UNL     1       7.530   4.607  11.809  0.00  0.00    +0.000 A 
ATOM     30  C   UNL     1       6.298   3.958  11.798  0.00  0.00    +0.000 A 
ATOM     31  C   UNL     1       5.536   3.812  12.977  0.00  0.00    +0.000 A 
ATOM     32  F   UNL     1       4.356   3.180  12.897  0.00  0.00    +0.000 F 
ATOM     33  C   UNL     1       6.049   4.246  14.221  0.00  0.00    +0.000 A 
ATOM     34  H   UNL     1       7.405   6.387  15.613  0.00  0.00    +0.000 HD
ENDBRANCH  23  24
ENDBRANCH   4  23
TORSDOF 5
ENDMDL
MODEL 9
REMARK VINA RESULT:      -8.8      6.110      9.066
REMARK  Name = 
REMARK  5 active torsions:
REMARK  status: ('A' for Active; 'I' for Inactive)
REMARK    1  A    between atoms: N_14  and  C_15
REMARK    2  A    between atoms: C_15  and  C_16
REMARK    3  A    between atoms: C_16  and  N_17
REMARK    4  A    between atoms: C_20  and  C_21
REMARK    5  A    between atoms: C_21  and  C_22
REMARK                            x       y       z     vdW  Elec       q    Type
REMARK                         _______ _______ _______ _____ _____    ______ ____
ROOT
ATOM      1  N   UNL     1       1.525   7.283  20.085  0.00  0.00    +0.000 NA
ATOM      2  C   UNL     1       2.444   7.468  18.945  0.00  0.00    +0.000 C 
ATOM      3  C   UNL     1       2.640   6.176  18.140  0.00  0.00    +0.000 C 
ATOM      4  C   UNL     1       3.183   5.026  18.981  0.00  0.00    +0.000 C 
ATOM      5  C   UNL     1       2.243   4.882  20.208  0.00  0.00    +0.000 C 
ATOM      6  C   UNL     1       1.996   6.199  20.966  0.00  0.00    +0.000 C 
ENDROOT
BRANCH   1   7
ATOM      7  C   UNL     1       1.348   8.541  20.867  0.00  0.00    +0.000 C 
BRANCH   7   8
ATOM      8  C   UNL     1       1.072   9.801  20.009  0.00  0.00    +0.000 C 
BRANCH   8  22
ATOM      9  O   UNL     1      -0.397  11.029  23.013  0.00  0.00    +0.000 OA
ATOM     10  S   UNL     1      -0.073  11.651  21.759  0.00  0.00    +0.000 S 
ATOM     11  O   UNL     1       0.766  12.813  21.590  0.00  0.00    +0.000 OA
ATOM     12  C   UNL     1      -1.652  12.408  21.406  0.00  0.00    +0.000 A 
ATOM     13  C   UNL     1      -2.382  13.345  22.115  0.00  0.00    +0.000 A 
ATOM     14  C   UNL     1      -3.598  13.733  21.559  0.00  0.00    +0.000 A 
ATOM     15  C   UNL     1      -4.070  13.212  20.331  0.00  0.00    +0.000 A 
ATOM     16  C   UNL     1      -3.280  12.259  19.647  0.00  0.00    +0.000 A 
ATOM     17  C   UNL     1      -3.640  11.675  18.404  0.00  0.00    +0.000 A 
ATOM     18  C   UNL     1      -2.780  10.728  17.811  0.00  0.00    +0.000 A 
ATOM     19  C   UNL     1      -1.575  10.335  18.413  0.00  0.00    +0.000 A 
ATOM     20  C   UNL     1      -1.250  10.910  19.636  0.00  0.00    +0.000 A 
ATOM     21  C   UNL     1      -2.100  11.864  20.211  0.00  0.00    +0.000 A 
ATOM     22  N   UNL     1      -0.072  10.616  20.440  0.00  0.00    +0.000 N 
ENDBRANCH   8  22
ENDBRANCH   7   8
ENDBRANCH   1   7
BRANCH   4  23
ATOM     23  C   UNL     1       4.662   5.221  19.370  0.00  0.00    +0.000 C 
BRANCH  23  24
ATOM     24  C   UNL     1       5.704   5.261  18.263  0.00  0.00    +0.000 A 
ATOM     25  C   UNL     1       7.029   5.592  18.503  0.00  0.00    +0.000 A 
ATOM     26  N   UNL     1       7.469   6.190  17.358  0.00  0.00    +0.000 N 
ATOM     27  C   UNL     1       6.958   5.410  16.351  0.00  0.00    +0.000 A 
ATOM     28  C   UNL     1       7.456   5.197  15.059  0.00  0.00    +0.000 A 
ATOM     29  C   UNL     1       6.720   4.359  14.232  0.00  0.00    +0.000 A 
ATOM     30  C   UNL     1       5.480   3.876  14.645  0.00  0.00    +0.000 A 
ATOM     31  C   UNL     1       4.968   4.174  15.927  0.00  0.00    +0.000 A 
ATOM     32  F   UNL     1       3.766   3.682  16.261  0.00  0.00    +0.000 F 
ATOM     33  C   UNL     1       5.745   4.899  16.859  0.00  0.00    +0.000 A 
ATOM     34  H   UNL     1       7.463   7.193  17.243  0.00  0.00    +0.000 HD
ENDBRANCH  23  24
ENDBRANCH   4  23
TORSDOF 5
ENDMDL
