MODEL 1
REMARK VINA RESULT:      -8.2      0.000      0.000
REMARK  Name = 
REMARK  8 active torsions:
REMARK  status: ('A' for Active; 'I' for Inactive)
REMARK    1  A    between atoms: C_1  and  C_2
REMARK    2  A    between atoms: C_2  and  C_3
REMARK    3  A    between atoms: C_3  and  C_4
REMARK    4  A    between atoms: C_6  and  C_7
REMARK    5  A    between atoms: N_9  and  C_10
REMARK    6  A    between atoms: N_9  and  C_17
REMARK    7  A    between atoms: C_10  and  C_11
REMARK    8  A    between atoms: N_24  and  C_25
REMARK                            x       y       z     vdW  Elec       q    Type
REMARK                         _______ _______ _______ _____ _____    ______ ____
ROOT
ATOM      1  C   UNL     1       4.911   5.962  17.219  0.00  0.00    +0.000 C 
ATOM      2  O   UNL     1       5.571   6.939  17.577  0.00  0.00    +0.000 OA
ATOM      3  N   UNL     1       3.633   5.711  17.826  0.00  0.00    +0.000 N 
ENDROOT
BRANCH   3   4
ATOM      4  C   UNL     1       2.834   4.452  17.575  0.00  0.00    +0.000 C 
ATOM      5  C   UNL     1       1.381   4.499  18.133  0.00  0.00    +0.000 C 
ATOM      6  C   UNL     1       1.188   3.807  19.494  0.00  0.00    +0.000 C 
ATOM      7  C   UNL     1       2.129   4.424  20.528  0.00  0.00    +0.000 C 
ATOM      8  C   UNL     1       3.350   3.499  20.510  0.00  0.00    +0.000 C 
ATOM      9  C   UNL     1       3.104   2.544  19.346  0.00  0.00    +0.000 C 
ATOM     10  C   UNL     1       3.462   3.082  17.945  0.00  0.00    +0.000 C 
ATOM     11  N   UNL     1       1.659   2.423  19.516  0.00  0.00    +0.000 NA
ATOM     12  C   UNL     1       0.982   1.466  18.673  0.00  0.00    +0.000 C 
ENDBRANCH   3   4
BRANCH   1  15
ATOM     13  C   UNL     1       6.065   4.270  14.177  0.00  0.00    +0.000 A 
ATOM     14  C   UNL     1       5.222   5.177  14.776  0.00  0.00    +0.000 A 
ATOM     15  C   UNL     1       5.507   5.091  16.175  0.00  0.00    +0.000 A 
ATOM     16  N   UNL     1       6.458   4.168  16.376  0.00  0.00    +0.000 NA
ATOM     17  O   UNL     1       6.783   3.643  15.141  0.00  0.00    +0.000 OA
BRANCH  13  18
ATOM     18  C   UNL     1       6.417   3.942  12.774  0.00  0.00    +0.000 C 
BRANCH  18  20
ATOM     19  C   UNL     1       4.309   3.356  11.457  0.00  0.00    +0.000 C 
ATOM     20  C   UNL     1       5.572   2.843  12.131  0.00  0.00    +0.000 C 
ENDBRANCH  18  20
ENDBRANCH  13  18
ENDBRANCH   1  15
BRANCH   3  21
ATOM     21  C   UNL     1       3.404   6.524  19.042  0.00  0.00    +0.000 C 
BRANCH  21  22
ATOM     22  C   UNL     1       2.464   7.720  18.968  0.00  0.00    +0.000 A 
ATOM     23  C   UNL     1       2.198   8.452  17.805  0.00  0.00    +0.000 A 
ATOM     24  C   UNL     1       1.243   9.473  17.811  0.00  0.00    +0.000 A 
ATOM     25  C   UNL     1       0.567   9.808  18.982  0.00  0.00    +0.000 A 
ATOM     26  C   UNL     1       0.850   9.125  20.161  0.00  0.00    +0.000 A 
ATOM     27  C   UNL     1       1.793   8.097  20.153  0.00  0.00    +0.000 A 
ENDBRANCH  21  22
ENDBRANCH   3  21
TORSDOF 6
ENDMDL
MODEL 2
REMARK VINA RESULT:      -7.3      0.900      1.655
REMARK  Name = 
REMARK  8 active torsions:
REMARK  status: ('A' for Active; 'I' for Inactive)
REMARK    1  A    between atoms: C_1  and  C_2
REMARK    2  A    between atoms: C_2  and  C_3
REMARK    3  A    between atoms: C_3  and  C_4
REMARK    4  A    between atoms: C_6  and  C_7
REMARK    5  A    between atoms: N_9  and  C_10
REMARK    6  A    between atoms: N_9  and  C_17
REMARK    7  A    between atoms: C_10  and  C_11
REMARK    8  A    between atoms: N_24  and  C_25
REMARK                            x       y       z     vdW  Elec       q    Type
REMARK                         _______ _______ _______ _____ _____    ______ ____
ROOT
ATOM      1  C   UNL     1       5.337   6.296  17.153  0.00  0.00    +0.000 C 
ATOM      2  O   UNL     1       5.479   7.519  17.153  0.00  0.00    +0.000 OA
ATOM      3  N   UNL     1       4.503   5.680  18.147  0.00  0.00    +0.000 N 
ENDROOT
BRANCH   3   4
ATOM      4  C   UNL     1       4.404   4.183  18.330  0.00  0.00    +0.000 C 
ATOM      5  C   UNL     1       3.652   3.450  17.179  0.00  0.00    +0.000 C 
ATOM      6  C   UNL     1       2.177   3.126  17.475  0.00  0.00    +0.000 C 
ATOM      7  C   UNL     1       1.421   4.412  17.813  0.00  0.00    +0.000 C 
ATOM      8  C   UNL     1       1.458   4.465  19.343  0.00  0.00    +0.000 C 
ATOM      9  C   UNL     1       2.384   3.325  19.756  0.00  0.00    +0.000 C 
ATOM     10  C   UNL     1       3.897   3.626  19.686  0.00  0.00    +0.000 C 
ATOM     11  N   UNL     1       1.980   2.382  18.718  0.00  0.00    +0.000 NA
ATOM     12  C   UNL     1       2.530   1.049  18.800  0.00  0.00    +0.000 C 
ENDBRANCH   3   4
BRANCH   1  15
ATOM     13  C   UNL     1       6.541   4.513  14.182  0.00  0.00    +0.000 A 
ATOM     14  C   UNL     1       5.495   5.064  14.885  0.00  0.00    +0.000 A 
ATOM     15  C   UNL     1       6.067   5.532  16.110  0.00  0.00    +0.000 A 
ATOM     16  N   UNL     1       7.378   5.250  16.120  0.00  0.00    +0.000 NA
ATOM     17  O   UNL     1       7.664   4.597  14.938  0.00  0.00    +0.000 OA
BRANCH  13  18
ATOM     18  C   UNL     1       6.710   3.989  12.805  0.00  0.00    +0.000 C 
BRANCH  18  20
ATOM     19  C   UNL     1       5.779   2.001  11.499  0.00  0.00    +0.000 C 
ATOM     20  C   UNL     1       5.476   3.311  12.211  0.00  0.00    +0.000 C 
ENDBRANCH  18  20
ENDBRANCH  13  18
ENDBRANCH   1  15
BRANCH   3  21
ATOM     21  C   UNL     1       4.145   6.603  19.248  0.00  0.00    +0.000 C 
BRANCH  21  22
ATOM     22  C   UNL     1       2.912   7.485  19.106  0.00  0.00    +0.000 A 
ATOM     23  C   UNL     1       2.056   7.830  20.158  0.00  0.00    +0.000 A 
ATOM     24  C   UNL     1       1.004   8.728  19.952  0.00  0.00    +0.000 A 
ATOM     25  C   UNL     1       0.764   9.266  18.689  0.00  0.00    +0.000 A 
ATOM     26  C   UNL     1       1.575   8.900  17.619  0.00  0.00    +0.000 A 
ATOM     27  C   UNL     1       2.632   8.015  17.827  0.00  0.00    +0.000 A 
ENDBRANCH  21  22
ENDBRANCH   3  21
TORSDOF 6
ENDMDL
MODEL 3
REMARK VINA RESULT:      -7.3      2.366      7.090
REMARK  Name = 
REMARK  8 active torsions:
REMARK  status: ('A' for Active; 'I' for Inactive)
REMARK    1  A    between atoms: C_1  and  C_2
REMARK    2  A    between atoms: C_2  and  C_3
REMARK    3  A    between atoms: C_3  and  C_4
REMARK    4  A    between atoms: C_6  and  C_7
REMARK    5  A    between atoms: N_9  and  C_10
REMARK    6  A    between atoms: N_9  and  C_17
REMARK    7  A    between atoms: C_10  and  C_11
REMARK    8  A    between atoms: N_24  and  C_25
REMARK                            x       y       z     vdW  Elec       q    Type
REMARK                         _______ _______ _______ _____ _____    ______ ____
ROOT
ATOM      1  C   UNL     1       2.429   7.521  18.628  0.00  0.00    +0.000 C 
ATOM      2  O   UNL     1       2.539   8.058  17.525  0.00  0.00    +0.000 OA
ATOM      3  N   UNL     1       2.914   6.181  18.814  0.00  0.00    +0.000 N 
ENDROOT
BRANCH   3   4
ATOM      4  C   UNL     1       2.671   5.384  20.075  0.00  0.00    +0.000 C 
ATOM      5  C   UNL     1       3.590   4.135  20.225  0.00  0.00    +0.000 C 
ATOM      6  C   UNL     1       2.944   2.803  19.801  0.00  0.00    +0.000 C 
ATOM      7  C   UNL     1       2.474   2.894  18.349  0.00  0.00    +0.000 C 
ATOM      8  C   UNL     1       0.998   3.286  18.467  0.00  0.00    +0.000 C 
ATOM      9  C   UNL     1       0.783   3.575  19.949  0.00  0.00    +0.000 C 
ATOM     10  C   UNL     1       1.218   4.976  20.433  0.00  0.00    +0.000 C 
ATOM     11  N   UNL     1       1.669   2.536  20.465  0.00  0.00    +0.000 NA
ATOM     12  C   UNL     1       1.681   2.341  21.896  0.00  0.00    +0.000 C 
ENDBRANCH   3   4
BRANCH   1  15
ATOM     13  C   UNL     1       0.464   9.795  20.730  0.00  0.00    +0.000 A 
ATOM     14  C   UNL     1       0.934   9.448  19.485  0.00  0.00    +0.000 A 
ATOM     15  C   UNL     1       1.775   8.311  19.701  0.00  0.00    +0.000 A 
ATOM     16  N   UNL     1       1.802   8.025  21.010  0.00  0.00    +0.000 NA
ATOM     17  O   UNL     1       1.011   8.960  21.648  0.00  0.00    +0.000 OA
BRANCH  13  18
ATOM     18  C   UNL     1      -0.549  10.755  21.231  0.00  0.00    +0.000 C 
BRANCH  18  20
ATOM     19  C   UNL     1      -1.908  11.644  23.203  0.00  0.00    +0.000 C 
ATOM     20  C   UNL     1      -0.843  10.667  22.728  0.00  0.00    +0.000 C 
ENDBRANCH  18  20
ENDBRANCH  13  18
ENDBRANCH   1  15
BRANCH   3  21
ATOM     21  C   UNL     1       3.232   5.502  17.537  0.00  0.00    +0.000 C 
BRANCH  21  22
ATOM     22  C   UNL     1       4.687   5.370  17.110  0.00  0.00    +0.000 A 
ATOM     23  C   UNL     1       5.737   6.151  17.607  0.00  0.00    +0.000 A 
ATOM     24  C   UNL     1       7.058   5.890  17.229  0.00  0.00    +0.000 A 
ATOM     25  C   UNL     1       7.351   4.875  16.321  0.00  0.00    +0.000 A 
ATOM     26  C   UNL     1       6.318   4.116  15.778  0.00  0.00    +0.000 A 
ATOM     27  C   UNL     1       5.001   4.367  16.165  0.00  0.00    +0.000 A 
ENDBRANCH  21  22
ENDBRANCH   3  21
TORSDOF 6
ENDMDL
MODEL 4
REMARK VINA RESULT:      -7.3      1.418      6.156
REMARK  Name = 
REMARK  8 active torsions:
REMARK  status: ('A' for Active; 'I' for Inactive)
REMARK    1  A    between atoms: C_1  and  C_2
REMARK    2  A    between atoms: C_2  and  C_3
REMARK    3  A    between atoms: C_3  and  C_4
REMARK    4  A    between atoms: C_6  and  C_7
REMARK    5  A    between atoms: N_9  and  C_10
REMARK    6  A    between atoms: N_9  and  C_17
REMARK    7  A    between atoms: C_10  and  C_11
REMARK    8  A    between atoms: N_24  and  C_25
REMARK                            x       y       z     vdW  Elec       q    Type
REMARK                         _______ _______ _______ _____ _____    ______ ____
ROOT
ATOM      1  C   UNL     1       4.485   6.548  17.695  0.00  0.00    +0.000 C 
ATOM      2  O   UNL     1       5.613   7.029  17.582  0.00  0.00    +0.000 OA
ATOM      3  N   UNL     1       4.319   5.121  17.685  0.00  0.00    +0.000 N 
ENDROOT
BRANCH   3   4
ATOM      4  C   UNL     1       2.966   4.448  17.648  0.00  0.00    +0.000 C 
ATOM      5  C   UNL     1       2.118   4.652  18.939  0.00  0.00    +0.000 C 
ATOM      6  C   UNL     1       2.168   3.481  19.936  0.00  0.00    +0.000 C 
ATOM      7  C   UNL     1       3.616   3.205  20.341  0.00  0.00    +0.000 C 
ATOM      8  C   UNL     1       4.055   2.087  19.389  0.00  0.00    +0.000 C 
ATOM      9  C   UNL     1       2.905   1.941  18.396  0.00  0.00    +0.000 C 
ATOM     10  C   UNL     1       2.885   2.955  17.233  0.00  0.00    +0.000 C 
ATOM     11  N   UNL     1       1.820   2.192  19.340  0.00  0.00    +0.000 NA
ATOM     12  C   UNL     1       0.474   2.018  18.846  0.00  0.00    +0.000 C 
ENDBRANCH   3   4
BRANCH   1  15
ATOM     13  C   UNL     1       1.764   8.787  18.715  0.00  0.00    +0.000 A 
ATOM     14  C   UNL     1       2.641   7.775  19.029  0.00  0.00    +0.000 A 
ATOM     15  C   UNL     1       3.355   7.503  17.820  0.00  0.00    +0.000 A 
ATOM     16  N   UNL     1       2.901   8.309  16.849  0.00  0.00    +0.000 NA
ATOM     17  O   UNL     1       1.900   9.084  17.399  0.00  0.00    +0.000 OA
BRANCH  13  18
ATOM     18  C   UNL     1       0.846   9.651  19.496  0.00  0.00    +0.000 C 
BRANCH  18  20
ATOM     19  C   UNL     1      -0.302   8.619  21.530  0.00  0.00    +0.000 C 
ATOM     20  C   UNL     1       0.874   9.429  21.008  0.00  0.00    +0.000 C 
ENDBRANCH  18  20
ENDBRANCH  13  18
ENDBRANCH   1  15
BRANCH   3  21
ATOM     21  C   UNL     1       5.535   4.405  17.239  0.00  0.00    +0.000 C 
BRANCH  21  22
ATOM     22  C   UNL     1       5.944   4.478  15.774  0.00  0.00    +0.000 A 
ATOM     23  C   UNL     1       7.147   5.021  15.310  0.00  0.00    +0.000 A 
ATOM     24  C   UNL     1       7.482   4.955  13.954  0.00  0.00    +0.000 A 
ATOM     25  C   UNL     1       6.607   4.381  13.033  0.00  0.00    +0.000 A 
ATOM     26  C   UNL     1       5.384   3.876  13.466  0.00  0.00    +0.000 A 
ATOM     27  C   UNL     1       5.056   3.931  14.820  0.00  0.00    +0.000 A 
ENDBRANCH  21  22
ENDBRANCH   3  21
TORSDOF 6
ENDMDL
MODEL 5
REMARK VINA RESULT:      -7.3      1.494      6.025
REMARK  Name = 
REMARK  8 active torsions:
REMARK  status: ('A' for Active; 'I' for Inactive)
REMARK    1  A    between atoms: C_1  and  C_2
REMARK    2  A    between atoms: C_2  and  C_3
REMARK    3  A    between atoms: C_3  and  C_4
REMARK    4  A    between atoms: C_6  and  C_7
REMARK    5  A    between atoms: N_9  and  C_10
REMARK    6  A    between atoms: N_9  and  C_17
REMARK    7  A    between atoms: C_10  and  C_11
REMARK    8  A    between atoms: N_24  and  C_25
REMARK                            x       y       z     vdW  Elec       q    Type
REMARK                         _______ _______ _______ _____ _____    ______ ____
ROOT
ATOM      1  C   UNL     1       4.398   6.610  17.837  0.00  0.00    +0.000 C 
ATOM      2  O   UNL     1       5.532   7.079  17.736  0.00  0.00    +0.000 OA
ATOM      3  N   UNL     1       4.222   5.185  17.879  0.00  0.00    +0.000 N 
ENDROOT
BRANCH   3   4
ATOM      4  C   UNL     1       2.865   4.519  17.831  0.00  0.00    +0.000 C 
ATOM      5  C   UNL     1       2.083   4.571  19.177  0.00  0.00    +0.000 C 
ATOM      6  C   UNL     1       2.175   3.292  20.028  0.00  0.00    +0.000 C 
ATOM      7  C   UNL     1       3.641   2.972  20.326  0.00  0.00    +0.000 C 
ATOM      8  C   UNL     1       4.027   1.973  19.230  0.00  0.00    +0.000 C 
ATOM      9  C   UNL     1       2.829   1.942  18.285  0.00  0.00    +0.000 C 
ATOM     10  C   UNL     1       2.757   3.085  17.250  0.00  0.00    +0.000 C 
ATOM     11  N   UNL     1       1.793   2.081  19.304  0.00  0.00    +0.000 NA
ATOM     12  C   UNL     1       0.424   1.964  18.861  0.00  0.00    +0.000 C 
ENDBRANCH   3   4
BRANCH   1  15
ATOM     13  C   UNL     1       1.620   8.851  18.685  0.00  0.00    +0.000 A 
ATOM     14  C   UNL     1       2.454   7.817  19.041  0.00  0.00    +0.000 A 
ATOM     15  C   UNL     1       3.271   7.576  17.892  0.00  0.00    +0.000 A 
ATOM     16  N   UNL     1       2.917   8.421  16.914  0.00  0.00    +0.000 NA
ATOM     17  O   UNL     1       1.878   9.192  17.397  0.00  0.00    +0.000 OA
BRANCH  13  18
ATOM     18  C   UNL     1       0.644   9.701  19.410  0.00  0.00    +0.000 C 
BRANCH  18  20
ATOM     19  C   UNL     1      -1.425  10.262  18.023  0.00  0.00    +0.000 C 
ATOM     20  C   UNL     1      -0.079  10.736  18.551  0.00  0.00    +0.000 C 
ENDBRANCH  18  20
ENDBRANCH  13  18
ENDBRANCH   1  15
BRANCH   3  21
ATOM     21  C   UNL     1       5.444   4.443  17.495  0.00  0.00    +0.000 C 
BRANCH  21  22
ATOM     22  C   UNL     1       5.859   4.404  16.031  0.00  0.00    +0.000 A 
ATOM     23  C   UNL     1       5.084   3.864  14.999  0.00  0.00    +0.000 A 
ATOM     24  C   UNL     1       5.503   3.963  13.668  0.00  0.00    +0.000 A 
ATOM     25  C   UNL     1       6.719   4.565  13.348  0.00  0.00    +0.000 A 
ATOM     26  C   UNL     1       7.527   5.067  14.364  0.00  0.00    +0.000 A 
ATOM     27  C   UNL     1       7.103   4.980  15.689  0.00  0.00    +0.000 A 
ENDBRANCH  21  22
ENDBRANCH   3  21
TORSDOF 6
ENDMDL
MODEL 6
REMARK VINA RESULT:      -7.0      2.093      6.381
REMARK  Name = 
REMARK  8 active torsions:
REMARK  status: ('A' for Active; 'I' for Inactive)
REMARK    1  A    between atoms: C_1  and  C_2
REMARK    2  A    between atoms: C_2  and  C_3
REMARK    3  A    between atoms: C_3  and  C_4
REMARK    4  A    between atoms: C_6  and  C_7
REMARK    5  A    between atoms: N_9  and  C_10
REMARK    6  A    between atoms: N_9  and  C_17
REMARK    7  A    between atoms: C_10  and  C_11
REMARK    8  A    between atoms: N_24  and  C_25
REMARK                            x       y       z     vdW  Elec       q    Type
REMARK                         _______ _______ _______ _____ _____    ______ ____
ROOT
ATOM      1  C   UNL     1       2.817   7.014  18.125  0.00  0.00    +0.000 C 
ATOM      2  O   UNL     1       3.440   7.425  17.145  0.00  0.00    +0.000 OA
ATOM      3  N   UNL     1       2.821   5.610  18.430  0.00  0.00    +0.000 N 
ENDROOT
BRANCH   3   4
ATOM      4  C   UNL     1       1.953   4.997  19.505  0.00  0.00    +0.000 C 
ATOM      5  C   UNL     1       2.695   4.742  20.851  0.00  0.00    +0.000 C 
ATOM      6  C   UNL     1       3.183   3.296  21.057  0.00  0.00    +0.000 C 
ATOM      7  C   UNL     1       4.105   2.892  19.906  0.00  0.00    +0.000 C 
ATOM      8  C   UNL     1       3.172   2.174  18.925  0.00  0.00    +0.000 C 
ATOM      9  C   UNL     1       1.769   2.386  19.488  0.00  0.00    +0.000 C 
ATOM     10  C   UNL     1       1.109   3.742  19.159  0.00  0.00    +0.000 C 
ATOM     11  N   UNL     1       2.127   2.296  20.900  0.00  0.00    +0.000 NA
ATOM     12  C   UNL     1       1.039   2.310  21.850  0.00  0.00    +0.000 C 
ENDBRANCH   3   4
BRANCH   1  15
ATOM     13  C   UNL     1       0.738   9.724  19.465  0.00  0.00    +0.000 A 
ATOM     14  C   UNL     1       1.338   9.119  18.385  0.00  0.00    +0.000 A 
ATOM     15  C   UNL     1       2.081   8.024  18.928  0.00  0.00    +0.000 A 
ATOM     16  N   UNL     1       1.930   8.006  20.260  0.00  0.00    +0.000 NA
ATOM     17  O   UNL     1       1.120   9.073  20.592  0.00  0.00    +0.000 OA
BRANCH  13  18
ATOM     18  C   UNL     1      -0.273  10.796  19.631  0.00  0.00    +0.000 C 
BRANCH  18  20
ATOM     19  C   UNL     1      -2.180  10.198  18.041  0.00  0.00    +0.000 C 
ATOM     20  C   UNL     1      -1.047  11.161  18.366  0.00  0.00    +0.000 C 
ENDBRANCH  18  20
ENDBRANCH  13  18
ENDBRANCH   1  15
BRANCH   3  21
ATOM     21  C   UNL     1       3.354   4.784  17.323  0.00  0.00    +0.000 C 
BRANCH  21  22
ATOM     22  C   UNL     1       4.852   4.790  17.048  0.00  0.00    +0.000 A 
ATOM     23  C   UNL     1       5.835   5.079  18.002  0.00  0.00    +0.000 A 
ATOM     24  C   UNL     1       7.191   4.962  17.683  0.00  0.00    +0.000 A 
ATOM     25  C   UNL     1       7.591   4.594  16.400  0.00  0.00    +0.000 A 
ATOM     26  C   UNL     1       6.631   4.348  15.423  0.00  0.00    +0.000 A 
ATOM     27  C   UNL     1       5.278   4.451  15.744  0.00  0.00    +0.000 A 
ENDBRANCH  21  22
ENDBRANCH   3  21
TORSDOF 6
ENDMDL
MODEL 7
REMARK VINA RESULT:      -6.9      2.336      6.714
REMARK  Name = 
REMARK  8 active torsions:
REMARK  status: ('A' for Active; 'I' for Inactive)
REMARK    1  A    between atoms: C_1  and  C_2
REMARK    2  A    between atoms: C_2  and  C_3
REMARK    3  A    between atoms: C_3  and  C_4
REMARK    4  A    between atoms: C_6  and  C_7
REMARK    5  A    between atoms: N_9  and  C_10
REMARK    6  A    between atoms: N_9  and  C_17
REMARK    7  A    between atoms: C_10  and  C_11
REMARK    8  A    between atoms: N_24  and  C_25
REMARK                            x       y       z     vdW  Elec       q    Type
REMARK                         _______ _______ _______ _____ _____    ______ ____
ROOT
ATOM      1  C   UNL     1       2.454   7.419  18.513  0.00  0.00    +0.000 C 
ATOM      2  O   UNL     1       2.609   7.910  17.394  0.00  0.00    +0.000 OA
ATOM      3  N   UNL     1       2.883   6.071  18.760  0.00  0.00    +0.000 N 
ENDROOT
BRANCH   3   4
ATOM      4  C   UNL     1       2.582   5.332  20.044  0.00  0.00    +0.000 C 
ATOM      5  C   UNL     1       3.531   4.128  20.323  0.00  0.00    +0.000 C 
ATOM      6  C   UNL     1       2.963   2.753  19.930  0.00  0.00    +0.000 C 
ATOM      7  C   UNL     1       2.591   2.749  18.447  0.00  0.00    +0.000 C 
ATOM      8  C   UNL     1       1.098   3.090  18.444  0.00  0.00    +0.000 C 
ATOM      9  C   UNL     1       0.771   3.448  19.891  0.00  0.00    +0.000 C 
ATOM     10  C   UNL     1       1.122   4.887  20.325  0.00  0.00    +0.000 C 
ATOM     11  N   UNL     1       1.655   2.471  20.520  0.00  0.00    +0.000 NA
ATOM     12  C   UNL     1       1.575   2.351  21.957  0.00  0.00    +0.000 C 
ENDBRANCH   3   4
BRANCH   1  15
ATOM     13  C   UNL     1       0.537   9.850  20.481  0.00  0.00    +0.000 A 
ATOM     14  C   UNL     1       1.028   9.442  19.263  0.00  0.00    +0.000 A 
ATOM     15  C   UNL     1       1.806   8.274  19.540  0.00  0.00    +0.000 A 
ATOM     16  N   UNL     1       1.778   8.028  20.858  0.00  0.00    +0.000 NA
ATOM     17  O   UNL     1       1.014   9.019  21.441  0.00  0.00    +0.000 OA
BRANCH  13  18
ATOM     18  C   UNL     1      -0.443  10.873  20.921  0.00  0.00    +0.000 C 
BRANCH  18  20
ATOM     19  C   UNL     1      -2.041  11.542  19.045  0.00  0.00    +0.000 C 
ATOM     20  C   UNL     1      -0.815  11.913  19.865  0.00  0.00    +0.000 C 
ENDBRANCH  18  20
ENDBRANCH  13  18
ENDBRANCH   1  15
BRANCH   3  21
ATOM     21  C   UNL     1       3.204   5.333  17.518  0.00  0.00    +0.000 C 
BRANCH  21  22
ATOM     22  C   UNL     1       4.662   5.119  17.137  0.00  0.00    +0.000 A 
ATOM     23  C   UNL     1       5.101   4.267  16.117  0.00  0.00    +0.000 A 
ATOM     24  C   UNL     1       6.455   4.210  15.772  0.00  0.00    +0.000 A 
ATOM     25  C   UNL     1       7.398   4.970  16.462  0.00  0.00    +0.000 A 
ATOM     26  C   UNL     1       6.989   5.789  17.510  0.00  0.00    +0.000 A 
ATOM     27  C   UNL     1       5.637   5.856  17.846  0.00  0.00    +0.000 A 
ENDBRANCH  21  22
ENDBRANCH   3  21
TORSDOF 6
ENDMDL
MODEL 8
REMARK VINA RESULT:      -6.9      2.441      6.482
REMARK  Name = 
REMARK  8 active torsions:
REMARK  status: ('A' for Active; 'I' for Inactive)
REMARK    1  A    between atoms: C_1  and  C_2
REMARK    2  A    between atoms: C_2  and  C_3
REMARK    3  A    between atoms: C_3  and  C_4
REMARK    4  A    between atoms: C_6  and  C_7
REMARK    5  A    between atoms: N_9  and  C_10
REMARK    6  A    between atoms: N_9  and  C_17
REMARK    7  A    between atoms: C_10  and  C_11
REMARK    8  A    between atoms: N_24  and  C_25
REMARK                            x       y       z     vdW  Elec       q    Type
REMARK                         _______ _______ _______ _____ _____    ______ ____
ROOT
ATOM      1  C   UNL     1       3.316   7.386  17.810  0.00  0.00    +0.000 C 
ATOM      2  O   UNL     1       4.298   7.980  17.363  0.00  0.00    +0.000 OA
ATOM      3  N   UNL     1       3.295   5.950  17.807  0.00  0.00    +0.000 N 
ENDROOT
BRANCH   3   4
ATOM      4  C   UNL     1       2.072   5.142  18.176  0.00  0.00    +0.000 C 
ATOM      5  C   UNL     1       1.976   4.790  19.691  0.00  0.00    +0.000 C 
ATOM      6  C   UNL     1       2.461   3.376  20.058  0.00  0.00    +0.000 C 
ATOM      7  C   UNL     1       3.909   3.191  19.604  0.00  0.00    +0.000 C 
ATOM      8  C   UNL     1       3.780   2.520  18.233  0.00  0.00    +0.000 C 
ATOM      9  C   UNL     1       2.286   2.545  17.921  0.00  0.00    +0.000 C 
ATOM     10  C   UNL     1       1.739   3.871  17.350  0.00  0.00    +0.000 C 
ATOM     11  N   UNL     1       1.815   2.317  19.284  0.00  0.00    +0.000 NA
ATOM     12  C   UNL     1       0.394   2.126  19.458  0.00  0.00    +0.000 C 
ENDBRANCH   3   4
BRANCH   1  15
ATOM     13  C   UNL     1       0.811   9.272  19.715  0.00  0.00    +0.000 A 
ATOM     14  C   UNL     1       1.803   8.320  19.688  0.00  0.00    +0.000 A 
ATOM     15  C   UNL     1       2.196   8.220  18.316  0.00  0.00    +0.000 A 
ATOM     16  N   UNL     1       1.456   9.063  17.583  0.00  0.00    +0.000 NA
ATOM     17  O   UNL     1       0.582   9.694  18.446  0.00  0.00    +0.000 OA
BRANCH  13  18
ATOM     18  C   UNL     1       0.071   9.977  20.789  0.00  0.00    +0.000 C 
BRANCH  18  20
ATOM     19  C   UNL     1      -0.200   9.676  23.310  0.00  0.00    +0.000 C 
ATOM     20  C   UNL     1      -0.428   9.088  21.926  0.00  0.00    +0.000 C 
ENDBRANCH  18  20
ENDBRANCH  13  18
ENDBRANCH   1  15
BRANCH   3  21
ATOM     21  C   UNL     1       4.371   5.361  16.977  0.00  0.00    +0.000 C 
BRANCH  21  22
ATOM     22  C   UNL     1       5.748   5.149  17.589  0.00  0.00    +0.000 A 
ATOM     23  C   UNL     1       6.826   4.544  16.931  0.00  0.00    +0.000 A 
ATOM     24  C   UNL     1       8.085   4.482  17.538  0.00  0.00    +0.000 A 
ATOM     25  C   UNL     1       8.281   4.985  18.823  0.00  0.00    +0.000 A 
ATOM     26  C   UNL     1       7.211   5.548  19.513  0.00  0.00    +0.000 A 
ATOM     27  C   UNL     1       5.959   5.622  18.903  0.00  0.00    +0.000 A 
ENDBRANCH  21  22
ENDBRANCH   3  21
TORSDOF 6
ENDMDL
MODEL 9
REMARK VINA RESULT:      -6.8      0.860      1.284
REMARK  Name = 
REMARK  8 active torsions:
REMARK  status: ('A' for Active; 'I' for Inactive)
REMARK    1  A    between atoms: C_1  and  C_2
REMARK    2  A    between atoms: C_2  and  C_3
REMARK    3  A    between atoms: C_3  and  C_4
REMARK    4  A    between atoms: C_6  and  C_7
REMARK    5  A    between atoms: N_9  and  C_10
REMARK    6  A    between atoms: N_9  and  C_17
REMARK    7  A    between atoms: C_10  and  C_11
REMARK    8  A    between atoms: N_24  and  C_25
REMARK                            x       y       z     vdW  Elec       q    Type
REMARK                         _______ _______ _______ _____ _____    ______ ____
ROOT
ATOM      1  C   UNL     1       4.552   6.451  17.309  0.00  0.00    +0.000 C 
ATOM      2  O   UNL     1       4.973   7.554  17.660  0.00  0.00    +0.000 OA
ATOM      3  N   UNL     1       3.462   5.848  18.026  0.00  0.00    +0.000 N 
ENDROOT
BRANCH   3   4
ATOM      4  C   UNL     1       2.994   4.432  17.777  0.00  0.00    +0.000 C 
ATOM      5  C   UNL     1       1.448   4.252  17.849  0.00  0.00    +0.000 C 
ATOM      6  C   UNL     1       0.923   3.706  19.190  0.00  0.00    +0.000 C 
ATOM      7  C   UNL     1       1.363   4.623  20.331  0.00  0.00    +0.000 C 
ATOM      8  C   UNL     1       2.647   3.969  20.851  0.00  0.00    +0.000 C 
ATOM      9  C   UNL     1       2.949   2.849  19.860  0.00  0.00    +0.000 C 
ATOM     10  C   UNL     1       3.665   3.274  18.560  0.00  0.00    +0.000 C 
ATOM     11  N   UNL     1       1.566   2.460  19.604  0.00  0.00    +0.000 NA
ATOM     12  C   UNL     1       1.360   1.290  18.782  0.00  0.00    +0.000 C 
ENDBRANCH   3   4
BRANCH   1  15
ATOM     13  C   UNL     1       5.853   4.271  14.661  0.00  0.00    +0.000 A 
ATOM     14  C   UNL     1       5.198   4.407  15.863  0.00  0.00    +0.000 A 
ATOM     15  C   UNL     1       5.228   5.807  16.154  0.00  0.00    +0.000 A 
ATOM     16  N   UNL     1       5.882   6.448  15.175  0.00  0.00    +0.000 NA
ATOM     17  O   UNL     1       6.290   5.493  14.265  0.00  0.00    +0.000 OA
BRANCH  13  18
ATOM     18  C   UNL     1       6.060   3.155  13.707  0.00  0.00    +0.000 C 
BRANCH  18  20
ATOM     19  C   UNL     1       4.537   3.237  11.659  0.00  0.00    +0.000 C 
ATOM     20  C   UNL     1       5.916   3.526  12.232  0.00  0.00    +0.000 C 
ENDBRANCH  18  20
ENDBRANCH  13  18
ENDBRANCH   1  15
BRANCH   3  21
ATOM     21  C   UNL     1       3.173   6.527  19.309  0.00  0.00    +0.000 C 
BRANCH  21  22
ATOM     22  C   UNL     1       2.186   7.686  19.329  0.00  0.00    +0.000 A 
ATOM     23  C   UNL     1       1.580   8.195  20.484  0.00  0.00    +0.000 A 
ATOM     24  C   UNL     1       0.763   9.328  20.418  0.00  0.00    +0.000 A 
ATOM     25  C   UNL     1       0.504   9.947  19.197  0.00  0.00    +0.000 A 
ATOM     26  C   UNL     1       1.058   9.430  18.030  0.00  0.00    +0.000 A 
ATOM     27  C   UNL     1       1.884   8.308  18.097  0.00  0.00    +0.000 A 
ENDBRANCH  21  22
ENDBRANCH   3  21
TORSDOF 6
ENDMDL
