MODEL 1
REMARK VINA RESULT:      -7.5      0.000      0.000
REMARK  Name = 
REMARK  9 active torsions:
REMARK  status: ('A' for Active; 'I' for Inactive)
REMARK    1  A    between atoms: C_1  and  C_2
REMARK    2  A    between atoms: C_2  and  S_3
REMARK    3  A    between atoms: S_3  and  C_6
REMARK    4  A    between atoms: C_12  and  C_13
REMARK    5  A    between atoms: C_16  and  O_17
REMARK    6  A    between atoms: O_17  and  C_18
REMARK    7  A    between atoms: C_18  and  C_20
REMARK    8  A    between atoms: C_25  and  O_26
REMARK    9  A    between atoms: O_26  and  C_27
REMARK                            x       y       z     vdW  Elec       q    Type
REMARK                         _______ _______ _______ _____ _____    ______ ____
ROOT
ATOM      1  C   UNL     1      -2.623  11.271  17.660  0.00  0.00    +0.000 C 
ATOM      2  N   UNL     1      -1.448  10.788  17.392  0.00  0.00    +0.000 NA
ATOM      3  N   UNL     1      -0.690  10.820  18.532  0.00  0.00    +0.000 N 
ATOM      4  C   UNL     1       0.285   9.864  18.712  0.00  0.00    +0.000 C 
ATOM      5  N   UNL     1       0.547   9.007  17.769  0.00  0.00    +0.000 NA
ATOM      6  C   UNL     1       0.938   9.862  20.050  0.00  0.00    +0.000 C 
ATOM      7  C   UNL     1       1.729   8.878  20.515  0.00  0.00    +0.000 C 
ATOM      8  C   UNL     1       0.566  10.993  20.979  0.00  0.00    +0.000 C 
ATOM      9  O   UNL     1       1.326  11.351  21.870  0.00  0.00    +0.000 OA
ATOM     10  N   UNL     1      -0.693  11.562  20.805  0.00  0.00    +0.000 NA
ATOM     11  C   UNL     1      -1.218  11.456  19.630  0.00  0.00    +0.000 C 
ATOM     12  S   UNL     1      -2.833  12.017  19.246  0.00  0.00    +0.000 S 
ATOM     13  H   UNL     1      -0.111   9.216  17.003  0.00  0.00    +0.000 HD
ENDROOT
BRANCH   7  14
ATOM     14  C   UNL     1       2.008   7.596  19.855  0.00  0.00    +0.000 A 
ATOM     15  C   UNL     1       2.727   7.515  18.658  0.00  0.00    +0.000 A 
ATOM     16  C   UNL     1       3.005   6.268  18.092  0.00  0.00    +0.000 A 
ATOM     17  C   UNL     1       2.586   5.102  18.741  0.00  0.00    +0.000 A 
ATOM     18  C   UNL     1       1.830   5.163  19.915  0.00  0.00    +0.000 A 
ATOM     19  C   UNL     1       1.530   6.420  20.453  0.00  0.00    +0.000 A 
BRANCH  18  20
ATOM     20  O   UNL     1       1.373   3.987  20.446  0.00  0.00    +0.000 OA
ATOM     21  C   UNL     1       2.085   3.528  21.591  0.00  0.00    +0.000 C 
ENDBRANCH  18  20
BRANCH  17  22
ATOM     22  O   UNL     1       2.828   3.888  18.068  0.00  0.00    +0.000 OA
BRANCH  22  23
ATOM     23  C   UNL     1       3.951   3.118  18.357  0.00  0.00    +0.000 C 
ATOM     24  O   UNL     1       3.976   2.099  19.046  0.00  0.00    +0.000 OA
BRANCH  23  25
ATOM     25  C   UNL     1       5.110   3.729  17.733  0.00  0.00    +0.000 A 
ATOM     26  C   UNL     1       5.435   3.971  16.407  0.00  0.00    +0.000 A 
ATOM     27  C   UNL     1       6.675   4.661  16.407  0.00  0.00    +0.000 A 
ATOM     28  C   UNL     1       7.048   4.777  17.723  0.00  0.00    +0.000 A 
ATOM     29  O   UNL     1       6.118   4.211  18.530  0.00  0.00    +0.000 OA
ENDBRANCH  23  25
ENDBRANCH  22  23
ENDBRANCH  17  22
ENDBRANCH   7  14
BRANCH   1  30
ATOM     30  S   UNL     1      -3.887  10.983  16.458  0.00  0.00    +0.000 S 
ATOM     31  O   UNL     1      -4.272   9.584  16.570  0.00  0.00    +0.000 OA
ATOM     32  O   UNL     1      -3.383  11.533  15.217  0.00  0.00    +0.000 OA
BRANCH  30  34
ATOM     33  C   UNL     1      -6.155  11.205  17.926  0.00  0.00    +0.000 C 
ATOM     34  C   UNL     1      -5.240  12.003  17.020  0.00  0.00    +0.000 C 
ENDBRANCH  30  34
ENDBRANCH   1  30
TORSDOF 7
ENDMDL
MODEL 2
REMARK VINA RESULT:      -7.5      4.631      9.933
REMARK  Name = 
REMARK  9 active torsions:
REMARK  status: ('A' for Active; 'I' for Inactive)
REMARK    1  A    between atoms: C_1  and  C_2
REMARK    2  A    between atoms: C_2  and  S_3
REMARK    3  A    between atoms: S_3  and  C_6
REMARK    4  A    between atoms: C_12  and  C_13
REMARK    5  A    between atoms: C_16  and  O_17
REMARK    6  A    between atoms: O_17  and  C_18
REMARK    7  A    between atoms: C_18  and  C_20
REMARK    8  A    between atoms: C_25  and  O_26
REMARK    9  A    between atoms: O_26  and  C_27
REMARK                            x       y       z     vdW  Elec       q    Type
REMARK                         _______ _______ _______ _____ _____    ______ ____
ROOT
ATOM      1  C   UNL     1       3.861   6.854  17.762  0.00  0.00    +0.000 C 
ATOM      2  N   UNL     1       3.043   7.801  17.413  0.00  0.00    +0.000 NA
ATOM      3  N   UNL     1       2.202   8.063  18.461  0.00  0.00    +0.000 N 
ATOM      4  C   UNL     1       1.706   9.339  18.615  0.00  0.00    +0.000 C 
ATOM      5  N   UNL     1       1.954  10.252  17.723  0.00  0.00    +0.000 NA
ATOM      6  C   UNL     1       0.947   9.581  19.873  0.00  0.00    +0.000 C 
ATOM      7  C   UNL     1       0.591  10.794  20.331  0.00  0.00    +0.000 C 
ATOM      8  C   UNL     1       0.684   8.373  20.741  0.00  0.00    +0.000 C 
ATOM      9  O   UNL     1      -0.264   8.349  21.515  0.00  0.00    +0.000 OA
ATOM     10  N   UNL     1       1.598   7.325  20.653  0.00  0.00    +0.000 NA
ATOM     11  C   UNL     1       2.266   7.231  19.553  0.00  0.00    +0.000 C 
ATOM     12  S   UNL     1       3.530   6.044  19.295  0.00  0.00    +0.000 S 
ATOM     13  H   UNL     1       2.555   9.804  17.015  0.00  0.00    +0.000 HD
ENDROOT
BRANCH   7  14
ATOM     14  C   UNL     1       0.966  12.091  19.752  0.00  0.00    +0.000 A 
ATOM     15  C   UNL     1       0.119  12.795  18.891  0.00  0.00    +0.000 A 
ATOM     16  C   UNL     1       0.503  14.047  18.402  0.00  0.00    +0.000 A 
ATOM     17  C   UNL     1       1.723  14.603  18.797  0.00  0.00    +0.000 A 
ATOM     18  C   UNL     1       2.602  13.898  19.624  0.00  0.00    +0.000 A 
ATOM     19  C   UNL     1       2.220  12.631  20.080  0.00  0.00    +0.000 A 
BRANCH  18  20
ATOM     20  O   UNL     1       3.819  14.462  19.897  0.00  0.00    +0.000 OA
ATOM     21  C   UNL     1       4.126  14.586  21.282  0.00  0.00    +0.000 C 
ENDBRANCH  18  20
BRANCH  17  22
ATOM     22  O   UNL     1       2.079  15.827  18.197  0.00  0.00    +0.000 OA
BRANCH  22  23
ATOM     23  C   UNL     1       1.990  17.025  18.900  0.00  0.00    +0.000 C 
ATOM     24  O   UNL     1       2.899  17.571  19.525  0.00  0.00    +0.000 OA
BRANCH  23  25
ATOM     25  C   UNL     1       0.630  17.524  18.803  0.00  0.00    +0.000 A 
ATOM     26  C   UNL     1      -0.266  17.587  17.747  0.00  0.00    +0.000 A 
ATOM     27  C   UNL     1      -1.476  18.117  18.266  0.00  0.00    +0.000 A 
ATOM     28  C   UNL     1      -1.243  18.371  19.595  0.00  0.00    +0.000 A 
ATOM     29  O   UNL     1       0.025  18.027  19.928  0.00  0.00    +0.000 OA
ENDBRANCH  23  25
ENDBRANCH  22  23
ENDBRANCH  17  22
ENDBRANCH   7  14
BRANCH   1  30
ATOM     30  S   UNL     1       5.272   6.608  16.727  0.00  0.00    +0.000 S 
ATOM     31  O   UNL     1       6.416   7.179  17.423  0.00  0.00    +0.000 OA
ATOM     32  O   UNL     1       4.879   7.067  15.411  0.00  0.00    +0.000 OA
BRANCH  30  34
ATOM     33  C   UNL     1       5.447   4.349  15.240  0.00  0.00    +0.000 C 
ATOM     34  C   UNL     1       5.451   4.833  16.676  0.00  0.00    +0.000 C 
ENDBRANCH  30  34
ENDBRANCH   1  30
TORSDOF 7
ENDMDL
MODEL 3
REMARK VINA RESULT:      -7.5      1.601      2.172
REMARK  Name = 
REMARK  9 active torsions:
REMARK  status: ('A' for Active; 'I' for Inactive)
REMARK    1  A    between atoms: C_1  and  C_2
REMARK    2  A    between atoms: C_2  and  S_3
REMARK    3  A    between atoms: S_3  and  C_6
REMARK    4  A    between atoms: C_12  and  C_13
REMARK    5  A    between atoms: C_16  and  O_17
REMARK    6  A    between atoms: O_17  and  C_18
REMARK    7  A    between atoms: C_18  and  C_20
REMARK    8  A    between atoms: C_25  and  O_26
REMARK    9  A    between atoms: O_26  and  C_27
REMARK                            x       y       z     vdW  Elec       q    Type
REMARK                         _______ _______ _______ _____ _____    ______ ____
ROOT
ATOM      1  C   UNL     1      -3.842  11.996  18.547  0.00  0.00    +0.000 C 
ATOM      2  N   UNL     1      -2.677  11.709  18.047  0.00  0.00    +0.000 NA
ATOM      3  N   UNL     1      -1.727  11.890  19.016  0.00  0.00    +0.000 N 
ATOM      4  C   UNL     1      -0.591  11.112  18.990  0.00  0.00    +0.000 C 
ATOM      5  N   UNL     1      -0.380  10.290  18.004  0.00  0.00    +0.000 NA
ATOM      6  C   UNL     1       0.303  11.248  20.173  0.00  0.00    +0.000 C 
ATOM      7  C   UNL     1       1.321  10.418  20.462  0.00  0.00    +0.000 C 
ATOM      8  C   UNL     1      -0.062  12.322  21.170  0.00  0.00    +0.000 C 
ATOM      9  O   UNL     1       0.787  12.820  21.898  0.00  0.00    +0.000 OA
ATOM     10  N   UNL     1      -1.408  12.671  21.253  0.00  0.00    +0.000 NA
ATOM     11  C   UNL     1      -2.128  12.454  20.204  0.00  0.00    +0.000 C 
ATOM     12  S   UNL     1      -3.858  12.732  20.151  0.00  0.00    +0.000 S 
ATOM     13  H   UNL     1      -1.201  10.371  17.385  0.00  0.00    +0.000 HD
ENDROOT
BRANCH   7  14
ATOM     14  C   UNL     1       1.675   9.186  19.746  0.00  0.00    +0.000 A 
ATOM     15  C   UNL     1       2.009   9.183  18.388  0.00  0.00    +0.000 A 
ATOM     16  C   UNL     1       2.382   7.990  17.762  0.00  0.00    +0.000 A 
ATOM     17  C   UNL     1       2.445   6.807  18.503  0.00  0.00    +0.000 A 
ATOM     18  C   UNL     1       2.075   6.781  19.851  0.00  0.00    +0.000 A 
ATOM     19  C   UNL     1       1.671   7.976  20.458  0.00  0.00    +0.000 A 
BRANCH  18  20
ATOM     20  O   UNL     1       2.071   5.571  20.492  0.00  0.00    +0.000 OA
ATOM     21  C   UNL     1       0.881   4.807  20.323  0.00  0.00    +0.000 C 
ENDBRANCH  18  20
BRANCH  17  22
ATOM     22  O   UNL     1       2.745   5.632  17.786  0.00  0.00    +0.000 OA
BRANCH  22  23
ATOM     23  C   UNL     1       4.025   5.084  17.808  0.00  0.00    +0.000 C 
ATOM     24  O   UNL     1       5.060   5.639  17.441  0.00  0.00    +0.000 OA
BRANCH  23  25
ATOM     25  C   UNL     1       3.943   3.726  18.314  0.00  0.00    +0.000 A 
ATOM     26  C   UNL     1       3.442   2.556  17.765  0.00  0.00    +0.000 A 
ATOM     27  C   UNL     1       3.697   1.520  18.701  0.00  0.00    +0.000 A 
ATOM     28  C   UNL     1       4.310   2.118  19.774  0.00  0.00    +0.000 A 
ATOM     29  O   UNL     1       4.455   3.448  19.557  0.00  0.00    +0.000 OA
ENDBRANCH  23  25
ENDBRANCH  22  23
ENDBRANCH  17  22
ENDBRANCH   7  14
BRANCH   1  30
ATOM     30  S   UNL     1      -5.251  11.477  17.614  0.00  0.00    +0.000 S 
ATOM     31  O   UNL     1      -6.020  10.582  18.466  0.00  0.00    +0.000 OA
ATOM     32  O   UNL     1      -4.736  11.046  16.331  0.00  0.00    +0.000 OA
BRANCH  30  34
ATOM     33  C   UNL     1      -7.480  12.926  18.140  0.00  0.00    +0.000 C 
ATOM     34  C   UNL     1      -6.174  12.985  17.374  0.00  0.00    +0.000 C 
ENDBRANCH  30  34
ENDBRANCH   1  30
TORSDOF 7
ENDMDL
MODEL 4
REMARK VINA RESULT:      -7.4      4.582      9.907
REMARK  Name = 
REMARK  9 active torsions:
REMARK  status: ('A' for Active; 'I' for Inactive)
REMARK    1  A    between atoms: C_1  and  C_2
REMARK    2  A    between atoms: C_2  and  S_3
REMARK    3  A    between atoms: S_3  and  C_6
REMARK    4  A    between atoms: C_12  and  C_13
REMARK    5  A    between atoms: C_16  and  O_17
REMARK    6  A    between atoms: O_17  and  C_18
REMARK    7  A    between atoms: C_18  and  C_20
REMARK    8  A    between atoms: C_25  and  O_26
REMARK    9  A    between atoms: O_26  and  C_27
REMARK                            x       y       z     vdW  Elec       q    Type
REMARK                         _______ _______ _______ _____ _____    ______ ____
ROOT
ATOM      1  C   UNL     1       3.838   6.760  17.768  0.00  0.00    +0.000 C 
ATOM      2  N   UNL     1       3.020   7.708  17.423  0.00  0.00    +0.000 NA
ATOM      3  N   UNL     1       2.207   7.995  18.487  0.00  0.00    +0.000 N 
ATOM      4  C   UNL     1       1.726   9.277  18.633  0.00  0.00    +0.000 C 
ATOM      5  N   UNL     1       1.959  10.174  17.719  0.00  0.00    +0.000 NA
ATOM      6  C   UNL     1       1.000   9.546  19.904  0.00  0.00    +0.000 C 
ATOM      7  C   UNL     1       0.666  10.770  20.351  0.00  0.00    +0.000 C 
ATOM      8  C   UNL     1       0.748   8.355  20.798  0.00  0.00    +0.000 C 
ATOM      9  O   UNL     1      -0.181   8.352  21.596  0.00  0.00    +0.000 OA
ATOM     10  N   UNL     1       1.651   7.298  20.705  0.00  0.00    +0.000 NA
ATOM     11  C   UNL     1       2.291   7.180  19.591  0.00  0.00    +0.000 C 
ATOM     12  S   UNL     1       3.538   5.978  19.322  0.00  0.00    +0.000 S 
ATOM     13  H   UNL     1       2.539   9.709  17.005  0.00  0.00    +0.000 HD
ENDROOT
BRANCH   7  14
ATOM     14  C   UNL     1       1.038  12.054  19.742  0.00  0.00    +0.000 A 
ATOM     15  C   UNL     1       0.203  12.719  18.839  0.00  0.00    +0.000 A 
ATOM     16  C   UNL     1       0.581  13.961  18.321  0.00  0.00    +0.000 A 
ATOM     17  C   UNL     1       1.783  14.547  18.729  0.00  0.00    +0.000 A 
ATOM     18  C   UNL     1       2.651  13.879  19.599  0.00  0.00    +0.000 A 
ATOM     19  C   UNL     1       2.275  12.622  20.084  0.00  0.00    +0.000 A 
BRANCH  18  20
ATOM     20  O   UNL     1       3.853  14.469  19.884  0.00  0.00    +0.000 OA
ATOM     21  C   UNL     1       4.126  14.636  21.272  0.00  0.00    +0.000 C 
ENDBRANCH  18  20
BRANCH  17  22
ATOM     22  O   UNL     1       2.137  15.757  18.100  0.00  0.00    +0.000 OA
BRANCH  22  23
ATOM     23  C   UNL     1       2.003  16.976  18.760  0.00  0.00    +0.000 C 
ATOM     24  O   UNL     1       2.913  17.634  19.263  0.00  0.00    +0.000 OA
BRANCH  23  25
ATOM     25  C   UNL     1       0.599  17.340  18.786  0.00  0.00    +0.000 A 
ATOM     26  C   UNL     1      -0.318  17.592  17.777  0.00  0.00    +0.000 A 
ATOM     27  C   UNL     1      -1.566  17.837  18.407  0.00  0.00    +0.000 A 
ATOM     28  C   UNL     1      -1.336  17.748  19.757  0.00  0.00    +0.000 A 
ATOM     29  O   UNL     1      -0.034  17.459  19.998  0.00  0.00    +0.000 OA
ENDBRANCH  23  25
ENDBRANCH  22  23
ENDBRANCH  17  22
ENDBRANCH   7  14
BRANCH   1  30
ATOM     30  S   UNL     1       5.221   6.485  16.703  0.00  0.00    +0.000 S 
ATOM     31  O   UNL     1       4.896   7.083  15.417  0.00  0.00    +0.000 OA
ATOM     32  O   UNL     1       5.538   5.077  16.825  0.00  0.00    +0.000 OA
BRANCH  30  34
ATOM     33  C   UNL     1       7.632   6.500  17.942  0.00  0.00    +0.000 C 
ATOM     34  C   UNL     1       6.531   7.427  17.466  0.00  0.00    +0.000 C 
ENDBRANCH  30  34
ENDBRANCH   1  30
TORSDOF 7
ENDMDL
MODEL 5
REMARK VINA RESULT:      -7.4      4.705      9.852
REMARK  Name = 
REMARK  9 active torsions:
REMARK  status: ('A' for Active; 'I' for Inactive)
REMARK    1  A    between atoms: C_1  and  C_2
REMARK    2  A    between atoms: C_2  and  S_3
REMARK    3  A    between atoms: S_3  and  C_6
REMARK    4  A    between atoms: C_12  and  C_13
REMARK    5  A    between atoms: C_16  and  O_17
REMARK    6  A    between atoms: O_17  and  C_18
REMARK    7  A    between atoms: C_18  and  C_20
REMARK    8  A    between atoms: C_25  and  O_26
REMARK    9  A    between atoms: O_26  and  C_27
REMARK                            x       y       z     vdW  Elec       q    Type
REMARK                         _______ _______ _______ _____ _____    ______ ____
ROOT
ATOM      1  C   UNL     1       4.048   6.795  17.675  0.00  0.00    +0.000 C 
ATOM      2  N   UNL     1       3.188   7.710  17.342  0.00  0.00    +0.000 NA
ATOM      3  N   UNL     1       2.337   7.916  18.395  0.00  0.00    +0.000 N 
ATOM      4  C   UNL     1       1.785   9.166  18.572  0.00  0.00    +0.000 C 
ATOM      5  N   UNL     1       1.991  10.105  17.695  0.00  0.00    +0.000 NA
ATOM      6  C   UNL     1       1.018   9.352  19.833  0.00  0.00    +0.000 C 
ATOM      7  C   UNL     1       0.609  10.540  20.313  0.00  0.00    +0.000 C 
ATOM      8  C   UNL     1       0.809   8.118  20.680  0.00  0.00    +0.000 C 
ATOM      9  O   UNL     1      -0.136   8.038  21.454  0.00  0.00    +0.000 OA
ATOM     10  N   UNL     1       1.769   7.114  20.574  0.00  0.00    +0.000 NA
ATOM     11  C   UNL     1       2.440   7.069  19.472  0.00  0.00    +0.000 C 
ATOM     12  S   UNL     1       3.755   5.944  19.193  0.00  0.00    +0.000 S 
ATOM     13  H   UNL     1       2.612   9.697  16.980  0.00  0.00    +0.000 HD
ENDROOT
BRANCH   7  14
ATOM     14  C   UNL     1       0.925  11.862  19.757  0.00  0.00    +0.000 A 
ATOM     15  C   UNL     1       0.055  12.535  18.893  0.00  0.00    +0.000 A 
ATOM     16  C   UNL     1       0.381  13.811  18.426  0.00  0.00    +0.000 A 
ATOM     17  C   UNL     1       1.565  14.423  18.847  0.00  0.00    +0.000 A 
ATOM     18  C   UNL     1       2.468  13.751  19.676  0.00  0.00    +0.000 A 
ATOM     19  C   UNL     1       2.145  12.460  20.110  0.00  0.00    +0.000 A 
BRANCH  18  20
ATOM     20  O   UNL     1       3.651  14.372  19.973  0.00  0.00    +0.000 OA
ATOM     21  C   UNL     1       3.851  14.653  21.356  0.00  0.00    +0.000 C 
ENDBRANCH  18  20
BRANCH  17  22
ATOM     22  O   UNL     1       1.867  15.671  18.267  0.00  0.00    +0.000 OA
BRANCH  22  23
ATOM     23  C   UNL     1       1.136  16.810  18.596  0.00  0.00    +0.000 C 
ATOM     24  O   UNL     1       0.203  17.287  17.951  0.00  0.00    +0.000 OA
BRANCH  23  25
ATOM     25  C   UNL     1       1.674  17.372  19.821  0.00  0.00    +0.000 A 
ATOM     26  C   UNL     1       1.223  17.351  21.132  0.00  0.00    +0.000 A 
ATOM     27  C   UNL     1       2.203  18.015  21.915  0.00  0.00    +0.000 A 
ATOM     28  C   UNL     1       3.177  18.426  21.039  0.00  0.00    +0.000 A 
ATOM     29  O   UNL     1       2.865  18.053  19.774  0.00  0.00    +0.000 OA
ENDBRANCH  23  25
ENDBRANCH  22  23
ENDBRANCH  17  22
ENDBRANCH   7  14
BRANCH   1  30
ATOM     30  S   UNL     1       5.468   6.630  16.635  0.00  0.00    +0.000 S 
ATOM     31  O   UNL     1       6.513   7.469  17.204  0.00  0.00    +0.000 OA
ATOM     32  O   UNL     1       4.990   6.827  15.282  0.00  0.00    +0.000 OA
BRANCH  30  34
ATOM     33  C   UNL     1       7.281   4.814  17.508  0.00  0.00    +0.000 C 
ATOM     34  C   UNL     1       5.931   4.918  16.826  0.00  0.00    +0.000 C 
ENDBRANCH  30  34
ENDBRANCH   1  30
TORSDOF 7
ENDMDL
MODEL 6
REMARK VINA RESULT:      -7.2      1.330      1.588
REMARK  Name = 
REMARK  9 active torsions:
REMARK  status: ('A' for Active; 'I' for Inactive)
REMARK    1  A    between atoms: C_1  and  C_2
REMARK    2  A    between atoms: C_2  and  S_3
REMARK    3  A    between atoms: S_3  and  C_6
REMARK    4  A    between atoms: C_12  and  C_13
REMARK    5  A    between atoms: C_16  and  O_17
REMARK    6  A    between atoms: O_17  and  C_18
REMARK    7  A    between atoms: C_18  and  C_20
REMARK    8  A    between atoms: C_25  and  O_26
REMARK    9  A    between atoms: O_26  and  C_27
REMARK                            x       y       z     vdW  Elec       q    Type
REMARK                         _______ _______ _______ _____ _____    ______ ____
ROOT
ATOM      1  C   UNL     1      -3.542  11.625  18.148  0.00  0.00    +0.000 C 
ATOM      2  N   UNL     1      -2.349  11.358  17.709  0.00  0.00    +0.000 NA
ATOM      3  N   UNL     1      -1.457  11.523  18.734  0.00  0.00    +0.000 N 
ATOM      4  C   UNL     1      -0.315  10.754  18.756  0.00  0.00    +0.000 C 
ATOM      5  N   UNL     1      -0.042   9.957  17.765  0.00  0.00    +0.000 NA
ATOM      6  C   UNL     1       0.509  10.869  19.990  0.00  0.00    +0.000 C 
ATOM      7  C   UNL     1       1.517  10.040  20.318  0.00  0.00    +0.000 C 
ATOM      8  C   UNL     1       0.079  11.917  20.989  0.00  0.00    +0.000 C 
ATOM      9  O   UNL     1       0.882  12.404  21.775  0.00  0.00    +0.000 OA
ATOM     10  N   UNL     1      -1.272  12.255  21.003  0.00  0.00    +0.000 NA
ATOM     11  C   UNL     1      -1.930  12.057  19.910  0.00  0.00    +0.000 C 
ATOM     12  S   UNL     1      -3.656  12.324  19.765  0.00  0.00    +0.000 S 
ATOM     13  H   UNL     1      -0.826  10.046  17.102  0.00  0.00    +0.000 HD
ENDROOT
BRANCH   7  14
ATOM     14  C   UNL     1       1.920   8.827  19.595  0.00  0.00    +0.000 A 
ATOM     15  C   UNL     1       2.322   8.856  18.256  0.00  0.00    +0.000 A 
ATOM     16  C   UNL     1       2.740   7.681  17.625  0.00  0.00    +0.000 A 
ATOM     17  C   UNL     1       2.781   6.484  18.344  0.00  0.00    +0.000 A 
ATOM     18  C   UNL     1       2.345   6.425  19.671  0.00  0.00    +0.000 A 
ATOM     19  C   UNL     1       1.897   7.602  20.281  0.00  0.00    +0.000 A 
BRANCH  18  20
ATOM     20  O   UNL     1       2.324   5.202  20.287  0.00  0.00    +0.000 OA
ATOM     21  C   UNL     1       1.032   4.615  20.411  0.00  0.00    +0.000 C 
ENDBRANCH  18  20
BRANCH  17  22
ATOM     22  O   UNL     1       3.130   5.327  17.619  0.00  0.00    +0.000 OA
BRANCH  22  23
ATOM     23  C   UNL     1       4.396   4.760  17.739  0.00  0.00    +0.000 C 
ATOM     24  O   UNL     1       4.914   4.350  18.777  0.00  0.00    +0.000 OA
BRANCH  23  25
ATOM     25  C   UNL     1       5.030   4.751  16.433  0.00  0.00    +0.000 A 
ATOM     26  C   UNL     1       5.222   5.743  15.484  0.00  0.00    +0.000 A 
ATOM     27  C   UNL     1       5.968   5.161  14.426  0.00  0.00    +0.000 A 
ATOM     28  C   UNL     1       6.164   3.847  14.775  0.00  0.00    +0.000 A 
ATOM     29  O   UNL     1       5.595   3.586  15.977  0.00  0.00    +0.000 OA
ENDBRANCH  23  25
ENDBRANCH  22  23
ENDBRANCH  17  22
ENDBRANCH   7  14
BRANCH   1  30
ATOM     30  S   UNL     1      -4.892  11.118  17.126  0.00  0.00    +0.000 S 
ATOM     31  O   UNL     1      -5.689  10.182  17.904  0.00  0.00    +0.000 OA
ATOM     32  O   UNL     1      -4.304  10.741  15.857  0.00  0.00    +0.000 OA
BRANCH  30  34
ATOM     33  C   UNL     1      -7.179  12.504  17.564  0.00  0.00    +0.000 C 
ATOM     34  C   UNL     1      -5.827  12.619  16.890  0.00  0.00    +0.000 C 
ENDBRANCH  30  34
ENDBRANCH   1  30
TORSDOF 7
ENDMDL
MODEL 7
REMARK VINA RESULT:      -7.2      1.170      1.590
REMARK  Name = 
REMARK  9 active torsions:
REMARK  status: ('A' for Active; 'I' for Inactive)
REMARK    1  A    between atoms: C_1  and  C_2
REMARK    2  A    between atoms: C_2  and  S_3
REMARK    3  A    between atoms: S_3  and  C_6
REMARK    4  A    between atoms: C_12  and  C_13
REMARK    5  A    between atoms: C_16  and  O_17
REMARK    6  A    between atoms: O_17  and  C_18
REMARK    7  A    between atoms: C_18  and  C_20
REMARK    8  A    between atoms: C_25  and  O_26
REMARK    9  A    between atoms: O_26  and  C_27
REMARK                            x       y       z     vdW  Elec       q    Type
REMARK                         _______ _______ _______ _____ _____    ______ ____
ROOT
ATOM      1  C   UNL     1      -2.683  11.284  17.688  0.00  0.00    +0.000 C 
ATOM      2  N   UNL     1      -1.444  10.911  17.575  0.00  0.00    +0.000 NA
ATOM      3  N   UNL     1      -0.882  10.869  18.823  0.00  0.00    +0.000 N 
ATOM      4  C   UNL     1       0.127   9.965  19.070  0.00  0.00    +0.000 C 
ATOM      5  N   UNL     1       0.605   9.234  18.106  0.00  0.00    +0.000 NA
ATOM      6  C   UNL     1       0.557   9.861  20.492  0.00  0.00    +0.000 C 
ATOM      7  C   UNL     1       1.342   8.886  20.985  0.00  0.00    +0.000 C 
ATOM      8  C   UNL     1      -0.049  10.859  21.450  0.00  0.00    +0.000 C 
ATOM      9  O   UNL     1       0.527  11.167  22.486  0.00  0.00    +0.000 OA
ATOM     10  N   UNL     1      -1.308  11.359  21.124  0.00  0.00    +0.000 NA
ATOM     11  C   UNL     1      -1.629  11.346  19.874  0.00  0.00    +0.000 C 
ATOM     12  S   UNL     1      -3.203  11.839  19.281  0.00  0.00    +0.000 S 
ATOM     13  H   UNL     1       0.063   9.481  17.265  0.00  0.00    +0.000 HD
ENDROOT
BRANCH   7  14
ATOM     14  C   UNL     1       1.826   7.704  20.261  0.00  0.00    +0.000 A 
ATOM     15  C   UNL     1       2.717   7.802  19.187  0.00  0.00    +0.000 A 
ATOM     16  C   UNL     1       3.184   6.644  18.559  0.00  0.00    +0.000 A 
ATOM     17  C   UNL     1       2.780   5.390  19.025  0.00  0.00    +0.000 A 
ATOM     18  C   UNL     1       1.859   5.272  20.070  0.00  0.00    +0.000 A 
ATOM     19  C   UNL     1       1.373   6.440  20.669  0.00  0.00    +0.000 A 
BRANCH  18  20
ATOM     20  O   UNL     1       1.435   4.016  20.414  0.00  0.00    +0.000 OA
ATOM     21  C   UNL     1       2.063   3.466  21.569  0.00  0.00    +0.000 C 
ENDBRANCH  18  20
BRANCH  17  22
ATOM     22  O   UNL     1       3.224   4.273  18.289  0.00  0.00    +0.000 OA
BRANCH  22  23
ATOM     23  C   UNL     1       4.508   3.764  18.461  0.00  0.00    +0.000 C 
ATOM     24  O   UNL     1       4.916   3.136  19.438  0.00  0.00    +0.000 OA
BRANCH  23  25
ATOM     25  C   UNL     1       5.310   4.117  17.304  0.00  0.00    +0.000 A 
ATOM     26  C   UNL     1       6.602   4.605  17.180  0.00  0.00    +0.000 A 
ATOM     27  C   UNL     1       6.874   4.698  15.791  0.00  0.00    +0.000 A 
ATOM     28  C   UNL     1       5.731   4.291  15.149  0.00  0.00    +0.000 A 
ATOM     29  O   UNL     1       4.779   3.948  16.050  0.00  0.00    +0.000 OA
ENDBRANCH  23  25
ENDBRANCH  22  23
ENDBRANCH  17  22
ENDBRANCH   7  14
BRANCH   1  30
ATOM     30  S   UNL     1      -3.711  11.045  16.271  0.00  0.00    +0.000 S 
ATOM     31  O   UNL     1      -3.512  12.194  15.399  0.00  0.00    +0.000 OA
ATOM     32  O   UNL     1      -5.021  10.705  16.788  0.00  0.00    +0.000 OA
BRANCH  30  34
ATOM     33  C   UNL     1      -2.974   9.786  13.987  0.00  0.00    +0.000 C 
ATOM     34  C   UNL     1      -3.020   9.597  15.489  0.00  0.00    +0.000 C 
ENDBRANCH  30  34
ENDBRANCH   1  30
TORSDOF 7
ENDMDL
MODEL 8
REMARK VINA RESULT:      -7.1      3.849      9.319
REMARK  Name = 
REMARK  9 active torsions:
REMARK  status: ('A' for Active; 'I' for Inactive)
REMARK    1  A    between atoms: C_1  and  C_2
REMARK    2  A    between atoms: C_2  and  S_3
REMARK    3  A    between atoms: S_3  and  C_6
REMARK    4  A    between atoms: C_12  and  C_13
REMARK    5  A    between atoms: C_16  and  O_17
REMARK    6  A    between atoms: O_17  and  C_18
REMARK    7  A    between atoms: C_18  and  C_20
REMARK    8  A    between atoms: C_25  and  O_26
REMARK    9  A    between atoms: O_26  and  C_27
REMARK                            x       y       z     vdW  Elec       q    Type
REMARK                         _______ _______ _______ _____ _____    ______ ____
ROOT
ATOM      1  C   UNL     1       5.143   5.422  17.385  0.00  0.00    +0.000 C 
ATOM      2  N   UNL     1       4.024   6.081  17.360  0.00  0.00    +0.000 NA
ATOM      3  N   UNL     1       3.259   5.687  18.425  0.00  0.00    +0.000 N 
ATOM      4  C   UNL     1       2.384   6.590  18.988  0.00  0.00    +0.000 C 
ATOM      5  N   UNL     1       2.216   7.764  18.452  0.00  0.00    +0.000 NA
ATOM      6  C   UNL     1       1.725   6.142  20.246  0.00  0.00    +0.000 C 
ATOM      7  C   UNL     1       1.035   6.943  21.076  0.00  0.00    +0.000 C 
ATOM      8  C   UNL     1       1.975   4.711  20.661  0.00  0.00    +0.000 C 
ATOM      9  O   UNL     1       1.177   4.113  21.372  0.00  0.00    +0.000 OA
ATOM     10  N   UNL     1       3.172   4.135  20.241  0.00  0.00    +0.000 NA
ATOM     11  C   UNL     1       3.713   4.632  19.181  0.00  0.00    +0.000 C 
ATOM     12  S   UNL     1       5.266   4.109  18.559  0.00  0.00    +0.000 S 
ATOM     13  H   UNL     1       2.855   7.802  17.644  0.00  0.00    +0.000 HD
ENDROOT
BRANCH   7  14
ATOM     14  C   UNL     1       0.891   8.401  20.965  0.00  0.00    +0.000 A 
ATOM     15  C   UNL     1       1.729   9.287  21.650  0.00  0.00    +0.000 A 
ATOM     16  C   UNL     1       1.581  10.666  21.476  0.00  0.00    +0.000 A 
ATOM     17  C   UNL     1       0.610  11.154  20.596  0.00  0.00    +0.000 A 
ATOM     18  C   UNL     1      -0.265  10.287  19.935  0.00  0.00    +0.000 A 
ATOM     19  C   UNL     1      -0.127   8.910  20.144  0.00  0.00    +0.000 A 
BRANCH  18  20
ATOM     20  O   UNL     1      -1.251  10.837  19.161  0.00  0.00    +0.000 OA
ATOM     21  C   UNL     1      -1.779   9.974  18.158  0.00  0.00    +0.000 C 
ENDBRANCH  18  20
BRANCH  17  22
ATOM     22  O   UNL     1       0.463  12.554  20.539  0.00  0.00    +0.000 OA
BRANCH  22  23
ATOM     23  C   UNL     1       0.202  13.296  21.688  0.00  0.00    +0.000 C 
ATOM     24  O   UNL     1       0.969  14.092  22.230  0.00  0.00    +0.000 OA
BRANCH  23  25
ATOM     25  C   UNL     1      -1.125  12.961  22.169  0.00  0.00    +0.000 A 
ATOM     26  C   UNL     1      -2.393  13.274  21.703  0.00  0.00    +0.000 A 
ATOM     27  C   UNL     1      -3.318  12.609  22.548  0.00  0.00    +0.000 A 
ATOM     28  C   UNL     1      -2.569  11.953  23.493  0.00  0.00    +0.000 A 
ATOM     29  O   UNL     1      -1.247  12.165  23.281  0.00  0.00    +0.000 OA
ENDBRANCH  23  25
ENDBRANCH  22  23
ENDBRANCH  17  22
ENDBRANCH   7  14
BRANCH   1  30
ATOM     30  S   UNL     1       6.438   6.026  16.345  0.00  0.00    +0.000 S 
ATOM     31  O   UNL     1       7.498   6.508  17.218  0.00  0.00    +0.000 OA
ATOM     32  O   UNL     1       5.795   6.897  15.382  0.00  0.00    +0.000 OA
BRANCH  30  34
ATOM     33  C   UNL     1       5.918   4.034  14.582  0.00  0.00    +0.000 C 
ATOM     34  C   UNL     1       7.007   4.566  15.492  0.00  0.00    +0.000 C 
ENDBRANCH  30  34
ENDBRANCH   1  30
TORSDOF 7
ENDMDL
MODEL 9
REMARK VINA RESULT:      -7.1      4.724      9.848
REMARK  Name = 
REMARK  9 active torsions:
REMARK  status: ('A' for Active; 'I' for Inactive)
REMARK    1  A    between atoms: C_1  and  C_2
REMARK    2  A    between atoms: C_2  and  S_3
REMARK    3  A    between atoms: S_3  and  C_6
REMARK    4  A    between atoms: C_12  and  C_13
REMARK    5  A    between atoms: C_16  and  O_17
REMARK    6  A    between atoms: O_17  and  C_18
REMARK    7  A    between atoms: C_18  and  C_20
REMARK    8  A    between atoms: C_25  and  O_26
REMARK    9  A    between atoms: O_26  and  C_27
REMARK                            x       y       z     vdW  Elec       q    Type
REMARK                         _______ _______ _______ _____ _____    ______ ____
ROOT
ATOM      1  C   UNL     1       3.903   6.589  18.168  0.00  0.00    +0.000 C 
ATOM      2  N   UNL     1       3.164   7.575  17.757  0.00  0.00    +0.000 NA
ATOM      3  N   UNL     1       2.239   7.863  18.725  0.00  0.00    +0.000 N 
ATOM      4  C   UNL     1       1.786   9.157  18.851  0.00  0.00    +0.000 C 
ATOM      5  N   UNL     1       2.157  10.069  18.000  0.00  0.00    +0.000 NA
ATOM      6  C   UNL     1       0.922   9.419  20.035  0.00  0.00    +0.000 C 
ATOM      7  C   UNL     1       0.577  10.642  20.476  0.00  0.00    +0.000 C 
ATOM      8  C   UNL     1       0.525   8.214  20.855  0.00  0.00    +0.000 C 
ATOM      9  O   UNL     1      -0.493   8.223  21.535  0.00  0.00    +0.000 OA
ATOM     10  N   UNL     1       1.397   7.128  20.838  0.00  0.00    +0.000 NA
ATOM     11  C   UNL     1       2.162   7.016  19.805  0.00  0.00    +0.000 C 
ATOM     12  S   UNL     1       3.392   5.777  19.650  0.00  0.00    +0.000 S 
ATOM     13  H   UNL     1       2.804   9.603  17.346  0.00  0.00    +0.000 HD
ENDROOT
BRANCH   7  14
ATOM     14  C   UNL     1       1.061  11.927  19.956  0.00  0.00    +0.000 A 
ATOM     15  C   UNL     1       0.392  12.620  18.942  0.00  0.00    +0.000 A 
ATOM     16  C   UNL     1       0.868  13.862  18.511  0.00  0.00    +0.000 A 
ATOM     17  C   UNL     1       1.998  14.419  19.116  0.00  0.00    +0.000 A 
ATOM     18  C   UNL     1       2.705  13.725  20.102  0.00  0.00    +0.000 A 
ATOM     19  C   UNL     1       2.237  12.467  20.500  0.00  0.00    +0.000 A 
BRANCH  18  20
ATOM     20  O   UNL     1       3.856  14.288  20.585  0.00  0.00    +0.000 OA
ATOM     21  C   UNL     1       3.768  14.781  21.919  0.00  0.00    +0.000 C 
ENDBRANCH  18  20
BRANCH  17  22
ATOM     22  O   UNL     1       2.468  15.631  18.572  0.00  0.00    +0.000 OA
BRANCH  22  23
ATOM     23  C   UNL     1       2.018  16.858  19.056  0.00  0.00    +0.000 C 
ATOM     24  O   UNL     1       2.273  17.342  20.158  0.00  0.00    +0.000 OA
BRANCH  23  25
ATOM     25  C   UNL     1       1.168  17.472  18.053  0.00  0.00    +0.000 A 
ATOM     26  C   UNL     1      -0.209  17.596  17.948  0.00  0.00    +0.000 A 
ATOM     27  C   UNL     1      -0.466  18.357  16.779  0.00  0.00    +0.000 A 
ATOM     28  C   UNL     1       0.760  18.630  16.224  0.00  0.00    +0.000 A 
ATOM     29  O   UNL     1       1.751  18.094  16.977  0.00  0.00    +0.000 OA
ENDBRANCH  23  25
ENDBRANCH  22  23
ENDBRANCH  17  22
ENDBRANCH   7  14
BRANCH   1  30
ATOM     30  S   UNL     1       5.395   6.292  17.268  0.00  0.00    +0.000 S 
ATOM     31  O   UNL     1       6.291   5.564  18.154  0.00  0.00    +0.000 OA
ATOM     32  O   UNL     1       5.768   7.569  16.694  0.00  0.00    +0.000 OA
BRANCH  30  34
ATOM     33  C   UNL     1       5.736   3.959  15.931  0.00  0.00    +0.000 C 
ATOM     34  C   UNL     1       4.880   5.209  15.947  0.00  0.00    +0.000 C 
ENDBRANCH  30  34
ENDBRANCH   1  30
TORSDOF 7
ENDMDL
