MODEL 1
REMARK VINA RESULT:      -7.5      0.000      0.000
REMARK  Name = 
REMARK  9 active torsions:
REMARK  status: ('A' for Active; 'I' for Inactive)
REMARK    1  A    between atoms: C_1  and  O_2
REMARK    2  A    between atoms: O_2  and  C_3
REMARK    3  A    between atoms: C_5  and  C_6
REMARK    4  A    between atoms: C_16  and  C_17
REMARK    5  A    between atoms: C_20  and  N_21
REMARK    6  A    between atoms: C_29  and  O_30
REMARK    7  A    between atoms: O_30  and  C_31
REMARK    8  A    between atoms: C_32  and  O_33
REMARK    9  A    between atoms: O_33  and  C_34
REMARK                            x       y       z     vdW  Elec       q    Type
REMARK                         _______ _______ _______ _____ _____    ______ ____
ROOT
ATOM      1  C   UNL     1       1.017   6.162  20.779  0.00  0.00    +0.000 C 
ATOM      2  C   UNL     1       1.661   4.952  20.786  0.00  0.00    +0.000 C 
ATOM      3  C   UNL     1       3.094   4.394  20.959  0.00  0.00    +0.000 C 
ATOM      4  C   UNL     1       3.462   3.093  20.179  0.00  0.00    +0.000 A 
ATOM      5  C   UNL     1       4.625   2.348  20.405  0.00  0.00    +0.000 A 
ATOM      6  C   UNL     1       4.945   1.241  19.583  0.00  0.00    +0.000 A 
ATOM      7  C   UNL     1       4.095   0.829  18.557  0.00  0.00    +0.000 A 
ATOM      8  C   UNL     1       2.927   1.538  18.329  0.00  0.00    +0.000 A 
ATOM      9  C   UNL     1       2.662   2.678  19.103  0.00  0.00    +0.000 A 
ATOM     10  C   UNL     1       1.624   3.613  18.719  0.00  0.00    +0.000 C 
ATOM     11  C   UNL     1       1.913   4.620  17.855  0.00  0.00    +0.000 C 
ATOM     12  C   UNL     1       0.808   4.050  19.902  0.00  0.00    +0.000 C 
ATOM     13  O   UNL     1      -0.358   3.748  20.100  0.00  0.00    +0.000 OA
ENDROOT
BRANCH   1  16
ATOM     14  C   UNL     1       1.351   9.601  19.221  0.00  0.00    +0.000 A 
ATOM     15  C   UNL     1       1.591   8.215  19.353  0.00  0.00    +0.000 A 
ATOM     16  C   UNL     1       1.383   7.585  20.573  0.00  0.00    +0.000 A 
ATOM     17  C   UNL     1       1.150   8.429  21.688  0.00  0.00    +0.000 A 
ATOM     18  C   UNL     1       0.793   9.783  21.553  0.00  0.00    +0.000 A 
ATOM     19  C   UNL     1       0.775  10.342  20.278  0.00  0.00    +0.000 A 
BRANCH  14  21
ATOM     20  C   UNL     1       2.534  11.173  17.894  0.00  0.00    +0.000 C 
ATOM     21  O   UNL     1       1.466  10.245  18.015  0.00  0.00    +0.000 OA
ENDBRANCH  14  21
BRANCH  18  22
ATOM     22  O   UNL     1       0.488  10.387  22.743  0.00  0.00    +0.000 OA
ATOM     23  C   UNL     1      -0.842  10.255  23.233  0.00  0.00    +0.000 C 
ENDBRANCH  18  22
BRANCH  19  24
ATOM     24  O   UNL     1       0.265  11.602  20.071  0.00  0.00    +0.000 OA
ATOM     25  C   UNL     1      -1.143  11.579  19.797  0.00  0.00    +0.000 C 
ENDBRANCH  19  24
ENDBRANCH   1  16
BRANCH  11  26
ATOM     26  C   UNL     1       3.305   5.071  17.515  0.00  0.00    +0.000 A 
ATOM     27  C   UNL     1       3.917   6.276  17.881  0.00  0.00    +0.000 A 
ATOM     28  C   UNL     1       5.184   6.636  17.386  0.00  0.00    +0.000 A 
ATOM     29  C   UNL     1       5.866   5.777  16.519  0.00  0.00    +0.000 A 
ATOM     30  C   UNL     1       5.269   4.588  16.121  0.00  0.00    +0.000 A 
ATOM     31  C   UNL     1       4.023   4.238  16.649  0.00  0.00    +0.000 A 
BRANCH  29  32
ATOM     32  N   UNL     1       7.229   6.093  16.067  0.00  0.00    +0.000 N 
ATOM     33  O   UNL     1       7.693   5.422  15.135  0.00  0.00    +0.000 OA
ATOM     34  O   UNL     1       7.825   7.020  16.632  0.00  0.00    +0.000 OA
ENDBRANCH  29  32
ENDBRANCH  11  26
TORSDOF 6
ENDMDL
MODEL 2
REMARK VINA RESULT:      -7.4      6.443     11.654
REMARK  Name = 
REMARK  9 active torsions:
REMARK  status: ('A' for Active; 'I' for Inactive)
REMARK    1  A    between atoms: C_1  and  O_2
REMARK    2  A    between atoms: O_2  and  C_3
REMARK    3  A    between atoms: C_5  and  C_6
REMARK    4  A    between atoms: C_16  and  C_17
REMARK    5  A    between atoms: C_20  and  N_21
REMARK    6  A    between atoms: C_29  and  O_30
REMARK    7  A    between atoms: O_30  and  C_31
REMARK    8  A    between atoms: C_32  and  O_33
REMARK    9  A    between atoms: O_33  and  C_34
REMARK                            x       y       z     vdW  Elec       q    Type
REMARK                         _______ _______ _______ _____ _____    ______ ____
ROOT
ATOM      1  C   UNL     1      -1.230  13.402  23.219  0.00  0.00    +0.000 C 
ATOM      2  C   UNL     1      -2.483  13.426  23.776  0.00  0.00    +0.000 C 
ATOM      3  C   UNL     1      -3.761  12.554  23.808  0.00  0.00    +0.000 C 
ATOM      4  C   UNL     1      -5.133  13.288  23.934  0.00  0.00    +0.000 A 
ATOM      5  C   UNL     1      -6.344  12.641  24.204  0.00  0.00    +0.000 A 
ATOM      6  C   UNL     1      -7.565  13.358  24.194  0.00  0.00    +0.000 A 
ATOM      7  C   UNL     1      -7.596  14.733  23.963  0.00  0.00    +0.000 A 
ATOM      8  C   UNL     1      -6.407  15.399  23.718  0.00  0.00    +0.000 A 
ATOM      9  C   UNL     1      -5.215  14.660  23.655  0.00  0.00    +0.000 A 
ATOM     10  C   UNL     1      -4.004  15.246  23.116  0.00  0.00    +0.000 C 
ATOM     11  C   UNL     1      -3.770  15.193  21.779  0.00  0.00    +0.000 C 
ATOM     12  C   UNL     1      -2.804  14.905  23.952  0.00  0.00    +0.000 C 
ATOM     13  O   UNL     1      -2.178  15.697  24.638  0.00  0.00    +0.000 OA
ENDROOT
BRANCH   1  16
ATOM     14  C   UNL     1      -0.255  10.785  20.658  0.00  0.00    +0.000 A 
ATOM     15  C   UNL     1      -0.339  11.364  21.943  0.00  0.00    +0.000 A 
ATOM     16  C   UNL     1      -0.561  12.729  22.080  0.00  0.00    +0.000 A 
ATOM     17  C   UNL     1      -0.468  13.505  20.898  0.00  0.00    +0.000 A 
ATOM     18  C   UNL     1      -0.506  12.936  19.612  0.00  0.00    +0.000 A 
ATOM     19  C   UNL     1      -0.524  11.548  19.498  0.00  0.00    +0.000 A 
BRANCH  14  21
ATOM     20  C   UNL     1      -0.208   8.629  21.648  0.00  0.00    +0.000 C 
ATOM     21  O   UNL     1      -0.119   9.432  20.479  0.00  0.00    +0.000 OA
ENDBRANCH  14  21
BRANCH  18  22
ATOM     22  O   UNL     1      -0.531  13.864  18.606  0.00  0.00    +0.000 OA
ATOM     23  C   UNL     1      -0.175  15.204  18.930  0.00  0.00    +0.000 C 
ENDBRANCH  18  22
BRANCH  19  24
ATOM     24  O   UNL     1      -0.739  10.945  18.281  0.00  0.00    +0.000 OA
ATOM     25  C   UNL     1      -2.094  10.495  18.131  0.00  0.00    +0.000 C 
ENDBRANCH  19  24
ENDBRANCH   1  16
BRANCH  11  26
ATOM     26  C   UNL     1      -4.486  14.276  20.830  0.00  0.00    +0.000 A 
ATOM     27  C   UNL     1      -4.084  12.999  20.422  0.00  0.00    +0.000 A 
ATOM     28  C   UNL     1      -4.780  12.294  19.422  0.00  0.00    +0.000 A 
ATOM     29  C   UNL     1      -5.908  12.862  18.822  0.00  0.00    +0.000 A 
ATOM     30  C   UNL     1      -6.312  14.138  19.191  0.00  0.00    +0.000 A 
ATOM     31  C   UNL     1      -5.622  14.807  20.207  0.00  0.00    +0.000 A 
BRANCH  29  32
ATOM     32  N   UNL     1      -6.703  12.103  17.845  0.00  0.00    +0.000 N 
ATOM     33  O   UNL     1      -7.078  12.698  16.826  0.00  0.00    +0.000 OA
ATOM     34  O   UNL     1      -6.935  10.911  18.091  0.00  0.00    +0.000 OA
ENDBRANCH  29  32
ENDBRANCH  11  26
TORSDOF 6
ENDMDL
MODEL 3
REMARK VINA RESULT:      -7.2      6.167     11.595
REMARK  Name = 
REMARK  9 active torsions:
REMARK  status: ('A' for Active; 'I' for Inactive)
REMARK    1  A    between atoms: C_1  and  O_2
REMARK    2  A    between atoms: O_2  and  C_3
REMARK    3  A    between atoms: C_5  and  C_6
REMARK    4  A    between atoms: C_16  and  C_17
REMARK    5  A    between atoms: C_20  and  N_21
REMARK    6  A    between atoms: C_29  and  O_30
REMARK    7  A    between atoms: O_30  and  C_31
REMARK    8  A    between atoms: C_32  and  O_33
REMARK    9  A    between atoms: O_33  and  C_34
REMARK                            x       y       z     vdW  Elec       q    Type
REMARK                         _______ _______ _______ _____ _____    ______ ____
ROOT
ATOM      1  C   UNL     1      -1.458  13.576  23.554  0.00  0.00    +0.000 C 
ATOM      2  C   UNL     1      -2.759  13.562  23.986  0.00  0.00    +0.000 C 
ATOM      3  C   UNL     1      -4.018  12.671  23.865  0.00  0.00    +0.000 C 
ATOM      4  C   UNL     1      -5.409  13.380  23.881  0.00  0.00    +0.000 A 
ATOM      5  C   UNL     1      -6.629  12.706  24.010  0.00  0.00    +0.000 A 
ATOM      6  C   UNL     1      -7.855  13.404  23.904  0.00  0.00    +0.000 A 
ATOM      7  C   UNL     1      -7.889  14.786  23.716  0.00  0.00    +0.000 A 
ATOM      8  C   UNL     1      -6.694  15.477  23.609  0.00  0.00    +0.000 A 
ATOM      9  C   UNL     1      -5.488  14.759  23.639  0.00  0.00    +0.000 A 
ATOM     10  C   UNL     1      -4.242  15.381  23.240  0.00  0.00    +0.000 C 
ATOM     11  C   UNL     1      -3.878  15.376  21.932  0.00  0.00    +0.000 C 
ATOM     12  C   UNL     1      -3.122  15.030  24.178  0.00  0.00    +0.000 C 
ATOM     13  O   UNL     1      -2.580  15.807  24.947  0.00  0.00    +0.000 OA
ENDROOT
BRANCH   1  16
ATOM     14  C   UNL     1      -0.357  11.189  20.824  0.00  0.00    +0.000 A 
ATOM     15  C   UNL     1      -0.625  11.599  22.149  0.00  0.00    +0.000 A 
ATOM     16  C   UNL     1      -0.669  12.951  22.464  0.00  0.00    +0.000 A 
ATOM     17  C   UNL     1      -0.217  13.848  21.464  0.00  0.00    +0.000 A 
ATOM     18  C   UNL     1      -0.067  13.469  20.118  0.00  0.00    +0.000 A 
ATOM     19  C   UNL     1      -0.263  12.133  19.776  0.00  0.00    +0.000 A 
BRANCH  14  21
ATOM     20  C   UNL     1       0.738   9.084  20.830  0.00  0.00    +0.000 C 
ATOM     21  O   UNL     1      -0.385   9.868  20.454  0.00  0.00    +0.000 OA
ENDBRANCH  14  21
BRANCH  18  22
ATOM     22  O   UNL     1       0.256  14.511  19.291  0.00  0.00    +0.000 OA
ATOM     23  C   UNL     1      -0.494  15.715  19.418  0.00  0.00    +0.000 C 
ENDBRANCH  18  22
BRANCH  19  24
ATOM     24  O   UNL     1      -0.302  11.743  18.459  0.00  0.00    +0.000 OA
ATOM     25  C   UNL     1      -1.590  11.964  17.866  0.00  0.00    +0.000 C 
ENDBRANCH  19  24
ENDBRANCH   1  16
BRANCH  11  26
ATOM     26  C   UNL     1      -4.482  14.482  20.888  0.00  0.00    +0.000 A 
ATOM     27  C   UNL     1      -5.731  14.627  20.271  0.00  0.00    +0.000 A 
ATOM     28  C   UNL     1      -6.238  13.643  19.401  0.00  0.00    +0.000 A 
ATOM     29  C   UNL     1      -5.487  12.496  19.127  0.00  0.00    +0.000 A 
ATOM     30  C   UNL     1      -4.257  12.318  19.747  0.00  0.00    +0.000 A 
ATOM     31  C   UNL     1      -3.760  13.322  20.584  0.00  0.00    +0.000 A 
BRANCH  29  32
ATOM     32  N   UNL     1      -5.958  11.504  18.149  0.00  0.00    +0.000 N 
ATOM     33  O   UNL     1      -5.170  11.159  17.259  0.00  0.00    +0.000 OA
ATOM     34  O   UNL     1      -7.107  11.062  18.284  0.00  0.00    +0.000 OA
ENDBRANCH  29  32
ENDBRANCH  11  26
TORSDOF 6
ENDMDL
MODEL 4
REMARK VINA RESULT:      -7.1      0.414      1.053
REMARK  Name = 
REMARK  9 active torsions:
REMARK  status: ('A' for Active; 'I' for Inactive)
REMARK    1  A    between atoms: C_1  and  O_2
REMARK    2  A    between atoms: O_2  and  C_3
REMARK    3  A    between atoms: C_5  and  C_6
REMARK    4  A    between atoms: C_16  and  C_17
REMARK    5  A    between atoms: C_20  and  N_21
REMARK    6  A    between atoms: C_29  and  O_30
REMARK    7  A    between atoms: O_30  and  C_31
REMARK    8  A    between atoms: C_32  and  O_33
REMARK    9  A    between atoms: O_33  and  C_34
REMARK                            x       y       z     vdW  Elec       q    Type
REMARK                         _______ _______ _______ _____ _____    ______ ____
ROOT
ATOM      1  C   UNL     1       1.011   6.138  20.740  0.00  0.00    +0.000 C 
ATOM      2  C   UNL     1       1.649   4.924  20.751  0.00  0.00    +0.000 C 
ATOM      3  C   UNL     1       3.077   4.359  20.941  0.00  0.00    +0.000 C 
ATOM      4  C   UNL     1       3.449   3.060  20.161  0.00  0.00    +0.000 A 
ATOM      5  C   UNL     1       4.606   2.308  20.400  0.00  0.00    +0.000 A 
ATOM      6  C   UNL     1       4.933   1.204  19.578  0.00  0.00    +0.000 A 
ATOM      7  C   UNL     1       4.095   0.801  18.537  0.00  0.00    +0.000 A 
ATOM      8  C   UNL     1       2.934   1.516  18.297  0.00  0.00    +0.000 A 
ATOM      9  C   UNL     1       2.664   2.654  19.072  0.00  0.00    +0.000 A 
ATOM     10  C   UNL     1       1.635   3.595  18.677  0.00  0.00    +0.000 C 
ATOM     11  C   UNL     1       1.942   4.605  17.822  0.00  0.00    +0.000 C 
ATOM     12  C   UNL     1       0.804   4.031  19.850  0.00  0.00    +0.000 C 
ATOM     13  O   UNL     1      -0.366   3.734  20.030  0.00  0.00    +0.000 OA
ENDROOT
BRANCH   1  16
ATOM     14  C   UNL     1       1.357   9.590  19.217  0.00  0.00    +0.000 A 
ATOM     15  C   UNL     1       1.587   8.201  19.331  0.00  0.00    +0.000 A 
ATOM     16  C   UNL     1       1.386   7.560  20.547  0.00  0.00    +0.000 A 
ATOM     17  C   UNL     1       1.172   8.393  21.673  0.00  0.00    +0.000 A 
ATOM     18  C   UNL     1       0.824   9.751  21.556  0.00  0.00    +0.000 A 
ATOM     19  C   UNL     1       0.798  10.325  20.288  0.00  0.00    +0.000 A 
BRANCH  14  21
ATOM     20  C   UNL     1       2.474  11.243  17.931  0.00  0.00    +0.000 C 
ATOM     21  O   UNL     1       1.465  10.247  18.017  0.00  0.00    +0.000 OA
ENDBRANCH  14  21
BRANCH  18  22
ATOM     22  O   UNL     1       0.537  10.345  22.756  0.00  0.00    +0.000 OA
ATOM     23  C   UNL     1      -0.811  10.299  23.213  0.00  0.00    +0.000 C 
ENDBRANCH  18  22
BRANCH  19  24
ATOM     24  O   UNL     1       0.296  11.591  20.100  0.00  0.00    +0.000 OA
ATOM     25  C   UNL     1      -1.108  11.580  19.803  0.00  0.00    +0.000 C 
ENDBRANCH  19  24
ENDBRANCH   1  16
BRANCH  11  26
ATOM     26  C   UNL     1       3.340   5.051  17.505  0.00  0.00    +0.000 A 
ATOM     27  C   UNL     1       4.349   4.297  16.892  0.00  0.00    +0.000 A 
ATOM     28  C   UNL     1       5.661   4.790  16.769  0.00  0.00    +0.000 A 
ATOM     29  C   UNL     1       5.979   6.062  17.253  0.00  0.00    +0.000 A 
ATOM     30  C   UNL     1       5.003   6.818  17.888  0.00  0.00    +0.000 A 
ATOM     31  C   UNL     1       3.698   6.321  17.972  0.00  0.00    +0.000 A 
BRANCH  29  32
ATOM     32  N   UNL     1       7.320   6.631  17.050  0.00  0.00    +0.000 N 
ATOM     33  O   UNL     1       7.834   7.239  17.998  0.00  0.00    +0.000 OA
ATOM     34  O   UNL     1       7.861   6.454  15.950  0.00  0.00    +0.000 OA
ENDBRANCH  29  32
ENDBRANCH  11  26
TORSDOF 6
ENDMDL
MODEL 5
REMARK VINA RESULT:      -7.1      7.884     10.659
REMARK  Name = 
REMARK  9 active torsions:
REMARK  status: ('A' for Active; 'I' for Inactive)
REMARK    1  A    between atoms: C_1  and  O_2
REMARK    2  A    between atoms: O_2  and  C_3
REMARK    3  A    between atoms: C_5  and  C_6
REMARK    4  A    between atoms: C_16  and  C_17
REMARK    5  A    between atoms: C_20  and  N_21
REMARK    6  A    between atoms: C_29  and  O_30
REMARK    7  A    between atoms: O_30  and  C_31
REMARK    8  A    between atoms: C_32  and  O_33
REMARK    9  A    between atoms: O_33  and  C_34
REMARK                            x       y       z     vdW  Elec       q    Type
REMARK                         _______ _______ _______ _____ _____    ______ ____
ROOT
ATOM      1  C   UNL     1       6.768  15.653  17.800  0.00  0.00    +0.000 C 
ATOM      2  C   UNL     1       7.831  14.787  17.784  0.00  0.00    +0.000 C 
ATOM      3  C   UNL     1       8.137  13.310  18.129  0.00  0.00    +0.000 C 
ATOM      4  C   UNL     1       9.569  12.972  18.650  0.00  0.00    +0.000 A 
ATOM      5  C   UNL     1      10.065  11.670  18.785  0.00  0.00    +0.000 A 
ATOM      6  C   UNL     1      11.333  11.437  19.369  0.00  0.00    +0.000 A 
ATOM      7  C   UNL     1      12.145  12.492  19.784  0.00  0.00    +0.000 A 
ATOM      8  C   UNL     1      11.685  13.790  19.639  0.00  0.00    +0.000 A 
ATOM      9  C   UNL     1      10.395  14.000  19.129  0.00  0.00    +0.000 A 
ATOM     10  C   UNL     1       9.757  15.297  19.232  0.00  0.00    +0.000 C 
ATOM     11  C   UNL     1       9.054  15.613  20.350  0.00  0.00    +0.000 C 
ATOM     12  C   UNL     1       9.059  15.673  17.956  0.00  0.00    +0.000 C 
ATOM     13  O   UNL     1       9.412  16.563  17.199  0.00  0.00    +0.000 OA
ENDROOT
BRANCH   1  16
ATOM     14  C   UNL     1       3.517  17.038  19.168  0.00  0.00    +0.000 A 
ATOM     15  C   UNL     1       4.918  16.877  19.086  0.00  0.00    +0.000 A 
ATOM     16  C   UNL     1       5.454  15.747  18.483  0.00  0.00    +0.000 A 
ATOM     17  C   UNL     1       4.547  14.702  18.178  0.00  0.00    +0.000 A 
ATOM     18  C   UNL     1       3.154  14.894  18.142  0.00  0.00    +0.000 A 
ATOM     19  C   UNL     1       2.642  16.130  18.529  0.00  0.00    +0.000 A 
BRANCH  14  21
ATOM     20  C   UNL     1       3.022  18.339  21.091  0.00  0.00    +0.000 C 
ATOM     21  O   UNL     1       2.946  18.176  19.682  0.00  0.00    +0.000 OA
ENDBRANCH  14  21
BRANCH  18  22
ATOM     22  O   UNL     1       2.464  13.796  17.704  0.00  0.00    +0.000 OA
ATOM     23  C   UNL     1       2.379  12.674  18.576  0.00  0.00    +0.000 C 
ENDBRANCH  18  22
BRANCH  19  24
ATOM     24  O   UNL     1       1.312  16.429  18.345  0.00  0.00    +0.000 OA
ATOM     25  C   UNL     1       0.489  15.908  19.399  0.00  0.00    +0.000 C 
ENDBRANCH  19  24
ENDBRANCH   1  16
BRANCH  11  26
ATOM     26  C   UNL     1       8.581  14.612  21.365  0.00  0.00    +0.000 A 
ATOM     27  C   UNL     1       9.372  13.750  22.134  0.00  0.00    +0.000 A 
ATOM     28  C   UNL     1       8.797  12.763  22.956  0.00  0.00    +0.000 A 
ATOM     29  C   UNL     1       7.406  12.636  23.027  0.00  0.00    +0.000 A 
ATOM     30  C   UNL     1       6.601  13.462  22.254  0.00  0.00    +0.000 A 
ATOM     31  C   UNL     1       7.194  14.454  21.467  0.00  0.00    +0.000 A 
BRANCH  29  32
ATOM     32  N   UNL     1       6.785  11.675  23.952  0.00  0.00    +0.000 N 
ATOM     33  O   UNL     1       5.556  11.537  23.894  0.00  0.00    +0.000 OA
ATOM     34  O   UNL     1       7.529  11.049  24.720  0.00  0.00    +0.000 OA
ENDBRANCH  29  32
ENDBRANCH  11  26
TORSDOF 6
ENDMDL
MODEL 6
REMARK VINA RESULT:      -7.1      8.306     11.750
REMARK  Name = 
REMARK  9 active torsions:
REMARK  status: ('A' for Active; 'I' for Inactive)
REMARK    1  A    between atoms: C_1  and  O_2
REMARK    2  A    between atoms: O_2  and  C_3
REMARK    3  A    between atoms: C_5  and  C_6
REMARK    4  A    between atoms: C_16  and  C_17
REMARK    5  A    between atoms: C_20  and  N_21
REMARK    6  A    between atoms: C_29  and  O_30
REMARK    7  A    between atoms: O_30  and  C_31
REMARK    8  A    between atoms: C_32  and  O_33
REMARK    9  A    between atoms: O_33  and  C_34
REMARK                            x       y       z     vdW  Elec       q    Type
REMARK                         _______ _______ _______ _____ _____    ______ ____
ROOT
ATOM      1  C   UNL     1      -7.539  13.873  21.629  0.00  0.00    +0.000 C 
ATOM      2  C   UNL     1      -6.681  14.702  22.304  0.00  0.00    +0.000 C 
ATOM      3  C   UNL     1      -5.482  15.635  22.005  0.00  0.00    +0.000 C 
ATOM      4  C   UNL     1      -4.389  15.783  23.109  0.00  0.00    +0.000 A 
ATOM      5  C   UNL     1      -3.378  16.750  23.084  0.00  0.00    +0.000 A 
ATOM      6  C   UNL     1      -2.355  16.752  24.063  0.00  0.00    +0.000 A 
ATOM      7  C   UNL     1      -2.348  15.826  25.106  0.00  0.00    +0.000 A 
ATOM      8  C   UNL     1      -3.352  14.874  25.165  0.00  0.00    +0.000 A 
ATOM      9  C   UNL     1      -4.314  14.838  24.143  0.00  0.00    +0.000 A 
ATOM     10  C   UNL     1      -5.197  13.698  23.994  0.00  0.00    +0.000 C 
ATOM     11  C   UNL     1      -4.796  12.629  23.259  0.00  0.00    +0.000 C 
ATOM     12  C   UNL     1      -6.610  14.126  23.713  0.00  0.00    +0.000 C 
ATOM     13  O   UNL     1      -7.547  14.003  24.486  0.00  0.00    +0.000 OA
ENDROOT
BRANCH   1  16
ATOM     14  C   UNL     1      -6.752  12.873  18.059  0.00  0.00    +0.000 A 
ATOM     15  C   UNL     1      -7.273  13.693  19.085  0.00  0.00    +0.000 A 
ATOM     16  C   UNL     1      -7.556  13.152  20.332  0.00  0.00    +0.000 A 
ATOM     17  C   UNL     1      -7.511  11.740  20.434  0.00  0.00    +0.000 A 
ATOM     18  C   UNL     1      -6.884  10.930  19.469  0.00  0.00    +0.000 A 
ATOM     19  C   UNL     1      -6.386  11.532  18.316  0.00  0.00    +0.000 A 
BRANCH  14  21
ATOM     20  C   UNL     1      -6.917  14.655  16.500  0.00  0.00    +0.000 C 
ATOM     21  O   UNL     1      -6.382  13.383  16.840  0.00  0.00    +0.000 OA
ENDBRANCH  14  21
BRANCH  18  22
ATOM     22  O   UNL     1      -6.838   9.606  19.815  0.00  0.00    +0.000 OA
ATOM     23  C   UNL     1      -7.810   9.128  20.740  0.00  0.00    +0.000 C 
ENDBRANCH  18  22
BRANCH  19  24
ATOM     24  O   UNL     1      -5.613  10.821  17.429  0.00  0.00    +0.000 OA
ATOM     25  C   UNL     1      -4.230  10.798  17.813  0.00  0.00    +0.000 C 
ENDBRANCH  19  24
ENDBRANCH   1  16
BRANCH  11  26
ATOM     26  C   UNL     1      -3.648  12.650  22.292  0.00  0.00    +0.000 A 
ATOM     27  C   UNL     1      -3.709  12.872  20.911  0.00  0.00    +0.000 A 
ATOM     28  C   UNL     1      -2.572  12.734  20.093  0.00  0.00    +0.000 A 
ATOM     29  C   UNL     1      -1.343  12.380  20.658  0.00  0.00    +0.000 A 
ATOM     30  C   UNL     1      -1.262  12.129  22.022  0.00  0.00    +0.000 A 
ATOM     31  C   UNL     1      -2.398  12.301  22.819  0.00  0.00    +0.000 A 
BRANCH  29  32
ATOM     32  N   UNL     1      -0.126  12.324  19.836  0.00  0.00    +0.000 N 
ATOM     33  O   UNL     1       0.497  11.254  19.808  0.00  0.00    +0.000 OA
ATOM     34  O   UNL     1       0.194  13.342  19.207  0.00  0.00    +0.000 OA
ENDBRANCH  29  32
ENDBRANCH  11  26
TORSDOF 6
ENDMDL
MODEL 7
REMARK VINA RESULT:      -6.7      7.622     10.334
REMARK  Name = 
REMARK  9 active torsions:
REMARK  status: ('A' for Active; 'I' for Inactive)
REMARK    1  A    between atoms: C_1  and  O_2
REMARK    2  A    between atoms: O_2  and  C_3
REMARK    3  A    between atoms: C_5  and  C_6
REMARK    4  A    between atoms: C_16  and  C_17
REMARK    5  A    between atoms: C_20  and  N_21
REMARK    6  A    between atoms: C_29  and  O_30
REMARK    7  A    between atoms: O_30  and  C_31
REMARK    8  A    between atoms: C_32  and  O_33
REMARK    9  A    between atoms: O_33  and  C_34
REMARK                            x       y       z     vdW  Elec       q    Type
REMARK                         _______ _______ _______ _____ _____    ______ ____
ROOT
ATOM      1  C   UNL     1      -2.716  15.610  22.527  0.00  0.00    +0.000 C 
ATOM      2  C   UNL     1      -1.565  15.564  21.783  0.00  0.00    +0.000 C 
ATOM      3  C   UNL     1      -1.139  15.518  20.296  0.00  0.00    +0.000 C 
ATOM      4  C   UNL     1       0.172  14.748  19.944  0.00  0.00    +0.000 A 
ATOM      5  C   UNL     1       0.804  14.809  18.696  0.00  0.00    +0.000 A 
ATOM      6  C   UNL     1       1.928  13.996  18.415  0.00  0.00    +0.000 A 
ATOM      7  C   UNL     1       2.469  13.147  19.380  0.00  0.00    +0.000 A 
ATOM      8  C   UNL     1       1.875  13.088  20.630  0.00  0.00    +0.000 A 
ATOM      9  C   UNL     1       0.715  13.842  20.867  0.00  0.00    +0.000 A 
ATOM     10  C   UNL     1      -0.106  13.596  22.035  0.00  0.00    +0.000 C 
ATOM     11  C   UNL     1      -1.079  12.651  21.985  0.00  0.00    +0.000 C 
ATOM     12  C   UNL     1      -0.545  14.878  22.684  0.00  0.00    +0.000 C 
ATOM     13  O   UNL     1      -0.160  15.284  23.769  0.00  0.00    +0.000 OA
ENDROOT
BRANCH   1  16
ATOM     14  C   UNL     1      -6.007  14.714  20.877  0.00  0.00    +0.000 A 
ATOM     15  C   UNL     1      -4.907  15.540  21.197  0.00  0.00    +0.000 A 
ATOM     16  C   UNL     1      -4.149  15.281  22.332  0.00  0.00    +0.000 A 
ATOM     17  C   UNL     1      -4.669  14.320  23.234  0.00  0.00    +0.000 A 
ATOM     18  C   UNL     1      -5.685  13.415  22.874  0.00  0.00    +0.000 A 
ATOM     19  C   UNL     1      -6.277  13.542  21.621  0.00  0.00    +0.000 A 
BRANCH  14  21
ATOM     20  C   UNL     1      -7.442  16.108  19.601  0.00  0.00    +0.000 C 
ATOM     21  O   UNL     1      -6.731  14.885  19.724  0.00  0.00    +0.000 OA
ENDBRANCH  14  21
BRANCH  18  22
ATOM     22  O   UNL     1      -5.956  12.487  23.844  0.00  0.00    +0.000 OA
ATOM     23  C   UNL     1      -4.947  12.229  24.815  0.00  0.00    +0.000 C 
ENDBRANCH  18  22
BRANCH  19  24
ATOM     24  O   UNL     1      -7.144  12.583  21.152  0.00  0.00    +0.000 OA
ATOM     25  C   UNL     1      -6.460  11.526  20.463  0.00  0.00    +0.000 C 
ENDBRANCH  19  24
ENDBRANCH   1  16
BRANCH  11  26
ATOM     26  C   UNL     1      -1.622  12.061  20.715  0.00  0.00    +0.000 A 
ATOM     27  C   UNL     1      -0.972  11.172  19.850  0.00  0.00    +0.000 A 
ATOM     28  C   UNL     1      -1.542  10.796  18.619  0.00  0.00    +0.000 A 
ATOM     29  C   UNL     1      -2.790  11.301  18.243  0.00  0.00    +0.000 A 
ATOM     30  C   UNL     1      -3.443  12.204  19.072  0.00  0.00    +0.000 A 
ATOM     31  C   UNL     1      -2.871  12.541  20.302  0.00  0.00    +0.000 A 
BRANCH  29  32
ATOM     32  N   UNL     1      -3.444  10.846  17.007  0.00  0.00    +0.000 N 
ATOM     33  O   UNL     1      -3.072   9.767  16.527  0.00  0.00    +0.000 OA
ATOM     34  O   UNL     1      -4.337  11.559  16.530  0.00  0.00    +0.000 OA
ENDBRANCH  29  32
ENDBRANCH  11  26
TORSDOF 6
ENDMDL
MODEL 8
REMARK VINA RESULT:      -6.6      6.489     11.647
REMARK  Name = 
REMARK  9 active torsions:
REMARK  status: ('A' for Active; 'I' for Inactive)
REMARK    1  A    between atoms: C_1  and  O_2
REMARK    2  A    between atoms: O_2  and  C_3
REMARK    3  A    between atoms: C_5  and  C_6
REMARK    4  A    between atoms: C_16  and  C_17
REMARK    5  A    between atoms: C_20  and  N_21
REMARK    6  A    between atoms: C_29  and  O_30
REMARK    7  A    between atoms: O_30  and  C_31
REMARK    8  A    between atoms: C_32  and  O_33
REMARK    9  A    between atoms: O_33  and  C_34
REMARK                            x       y       z     vdW  Elec       q    Type
REMARK                         _______ _______ _______ _____ _____    ______ ____
ROOT
ATOM      1  C   UNL     1      -1.375  14.142  23.710  0.00  0.00    +0.000 C 
ATOM      2  C   UNL     1      -2.672  13.980  24.123  0.00  0.00    +0.000 C 
ATOM      3  C   UNL     1      -3.784  12.904  24.082  0.00  0.00    +0.000 C 
ATOM      4  C   UNL     1      -5.263  13.396  24.003  0.00  0.00    +0.000 A 
ATOM      5  C   UNL     1      -6.374  12.566  24.187  0.00  0.00    +0.000 A 
ATOM      6  C   UNL     1      -7.686  13.060  23.990  0.00  0.00    +0.000 A 
ATOM      7  C   UNL     1      -7.916  14.394  23.654  0.00  0.00    +0.000 A 
ATOM      8  C   UNL     1      -6.832  15.240  23.490  0.00  0.00    +0.000 A 
ATOM      9  C   UNL     1      -5.536  14.716  23.613  0.00  0.00    +0.000 A 
ATOM     10  C   UNL     1      -4.383  15.471  23.166  0.00  0.00    +0.000 C 
ATOM     11  C   UNL     1      -3.984  15.384  21.871  0.00  0.00    +0.000 C 
ATOM     12  C   UNL     1      -3.252  15.389  24.151  0.00  0.00    +0.000 C 
ATOM     13  O   UNL     1      -2.852  16.315  24.839  0.00  0.00    +0.000 OA
ENDROOT
BRANCH   1  16
ATOM     14  C   UNL     1      -0.091  11.996  20.863  0.00  0.00    +0.000 A 
ATOM     15  C   UNL     1      -0.585  12.258  22.160  0.00  0.00    +0.000 A 
ATOM     16  C   UNL     1      -0.472  13.531  22.704  0.00  0.00    +0.000 A 
ATOM     17  C   UNL     1       0.345  14.449  21.998  0.00  0.00    +0.000 A 
ATOM     18  C   UNL     1       0.738  14.244  20.663  0.00  0.00    +0.000 A 
ATOM     19  C   UNL     1       0.404  13.040  20.048  0.00  0.00    +0.000 A 
BRANCH  14  21
ATOM     20  C   UNL     1       0.663   9.758  20.629  0.00  0.00    +0.000 C 
ATOM     21  O   UNL     1      -0.255  10.775  20.257  0.00  0.00    +0.000 OA
ENDBRANCH  14  21
BRANCH  18  22
ATOM     22  O   UNL     1       1.416  15.305  20.125  0.00  0.00    +0.000 OA
ATOM     23  C   UNL     1       1.239  16.581  20.732  0.00  0.00    +0.000 C 
ENDBRANCH  18  22
BRANCH  19  24
ATOM     24  O   UNL     1       0.606  12.859  18.700  0.00  0.00    +0.000 OA
ATOM     25  C   UNL     1       1.971  12.538  18.395  0.00  0.00    +0.000 C 
ENDBRANCH  19  24
ENDBRANCH   1  16
BRANCH  11  26
ATOM     26  C   UNL     1      -4.421  14.305  20.921  0.00  0.00    +0.000 A 
ATOM     27  C   UNL     1      -3.707  13.155  20.562  0.00  0.00    +0.000 A 
ATOM     28  C   UNL     1      -4.173  12.286  19.558  0.00  0.00    +0.000 A 
ATOM     29  C   UNL     1      -5.378  12.556  18.902  0.00  0.00    +0.000 A 
ATOM     30  C   UNL     1      -6.090  13.704  19.222  0.00  0.00    +0.000 A 
ATOM     31  C   UNL     1      -5.624  14.537  20.244  0.00  0.00    +0.000 A 
BRANCH  29  32
ATOM     32  N   UNL     1      -5.927  11.612  17.918  0.00  0.00    +0.000 N 
ATOM     33  O   UNL     1      -7.083  11.206  18.097  0.00  0.00    +0.000 OA
ATOM     34  O   UNL     1      -5.208  11.292  16.961  0.00  0.00    +0.000 OA
ENDBRANCH  29  32
ENDBRANCH  11  26
TORSDOF 6
ENDMDL
MODEL 9
REMARK VINA RESULT:      -6.5      7.050     10.302
REMARK  Name = 
REMARK  9 active torsions:
REMARK  status: ('A' for Active; 'I' for Inactive)
REMARK    1  A    between atoms: C_1  and  O_2
REMARK    2  A    between atoms: O_2  and  C_3
REMARK    3  A    between atoms: C_5  and  C_6
REMARK    4  A    between atoms: C_16  and  C_17
REMARK    5  A    between atoms: C_20  and  N_21
REMARK    6  A    between atoms: C_29  and  O_30
REMARK    7  A    between atoms: O_30  and  C_31
REMARK    8  A    between atoms: C_32  and  O_33
REMARK    9  A    between atoms: O_33  and  C_34
REMARK                            x       y       z     vdW  Elec       q    Type
REMARK                         _______ _______ _______ _____ _____    ______ ____
ROOT
ATOM      1  C   UNL     1      -2.784  16.037  22.120  0.00  0.00    +0.000 C 
ATOM      2  C   UNL     1      -1.580  16.064  21.463  0.00  0.00    +0.000 C 
ATOM      3  C   UNL     1      -1.015  15.777  20.051  0.00  0.00    +0.000 C 
ATOM      4  C   UNL     1       0.445  15.234  19.954  0.00  0.00    +0.000 A 
ATOM      5  C   UNL     1       1.168  15.144  18.759  0.00  0.00    +0.000 A 
ATOM      6  C   UNL     1       2.446  14.538  18.732  0.00  0.00    +0.000 A 
ATOM      7  C   UNL     1       3.045  14.055  19.896  0.00  0.00    +0.000 A 
ATOM      8  C   UNL     1       2.358  14.155  21.094  0.00  0.00    +0.000 A 
ATOM      9  C   UNL     1       1.060  14.688  21.090  0.00  0.00    +0.000 A 
ATOM     10  C   UNL     1       0.194  14.545  22.243  0.00  0.00    +0.000 C 
ATOM     11  C   UNL     1      -0.574  13.433  22.372  0.00  0.00    +0.000 C 
ATOM     12  C   UNL     1      -0.538  15.821  22.548  0.00  0.00    +0.000 C 
ATOM     13  O   UNL     1      -0.341  16.528  23.523  0.00  0.00    +0.000 OA
ENDROOT
BRANCH   1  16
ATOM     14  C   UNL     1      -5.649  14.077  20.602  0.00  0.00    +0.000 A 
ATOM     15  C   UNL     1      -4.756  15.163  20.734  0.00  0.00    +0.000 A 
ATOM     16  C   UNL     1      -4.104  15.386  21.940  0.00  0.00    +0.000 A 
ATOM     17  C   UNL     1      -4.552  14.627  23.050  0.00  0.00    +0.000 A 
ATOM     18  C   UNL     1      -5.344  13.473  22.909  0.00  0.00    +0.000 A 
ATOM     19  C   UNL     1      -5.797  13.127  21.639  0.00  0.00    +0.000 A 
BRANCH  14  21
ATOM     20  C   UNL     1      -6.800  14.864  18.681  0.00  0.00    +0.000 C 
ATOM     21  O   UNL     1      -6.251  13.773  19.406  0.00  0.00    +0.000 OA
ENDBRANCH  14  21
BRANCH  18  22
ATOM     22  O   UNL     1      -5.562  12.815  24.090  0.00  0.00    +0.000 OA
ATOM     23  C   UNL     1      -4.424  12.355  24.813  0.00  0.00    +0.000 C 
ENDBRANCH  18  22
BRANCH  19  24
ATOM     24  O   UNL     1      -6.421  11.922  21.419  0.00  0.00    +0.000 OA
ATOM     25  C   UNL     1      -7.812  11.959  21.772  0.00  0.00    +0.000 C 
ENDBRANCH  19  24
ENDBRANCH   1  16
BRANCH  11  26
ATOM     26  C   UNL     1      -0.874  12.476  21.253  0.00  0.00    +0.000 A 
ATOM     27  C   UNL     1      -0.001  11.542  20.683  0.00  0.00    +0.000 A 
ATOM     28  C   UNL     1      -0.365  10.794  19.548  0.00  0.00    +0.000 A 
ATOM     29  C   UNL     1      -1.628  10.966  18.973  0.00  0.00    +0.000 A 
ATOM     30  C   UNL     1      -2.502  11.905  19.504  0.00  0.00    +0.000 A 
ATOM     31  C   UNL     1      -2.129  12.616  20.650  0.00  0.00    +0.000 A 
BRANCH  29  32
ATOM     32  N   UNL     1      -2.061  10.127  17.846  0.00  0.00    +0.000 N 
ATOM     33  O   UNL     1      -3.279   9.962  17.690  0.00  0.00    +0.000 OA
ATOM     34  O   UNL     1      -1.186   9.649  17.111  0.00  0.00    +0.000 OA
ENDBRANCH  29  32
ENDBRANCH  11  26
TORSDOF 6
ENDMDL
