MODEL 1
REMARK VINA RESULT:      -8.0      0.000      0.000
REMARK  Name = 
REMARK  7 active torsions:
REMARK  status: ('A' for Active; 'I' for Inactive)
REMARK    1  A    between atoms: C_1  and  O_2
REMARK    2  A    between atoms: O_2  and  C_3
REMARK    3  A    between atoms: C_3  and  C_5
REMARK    4  A    between atoms: C_6  and  C_7
REMARK    5  A    between atoms: C_11  and  N_12
REMARK    6  A    between atoms: N_12  and  C_13
REMARK    7  A    between atoms: C_18  and  C_19
REMARK                            x       y       z     vdW  Elec       q    Type
REMARK                         _______ _______ _______ _____ _____    ______ ____
ROOT
ATOM      1  N   UNL     1       3.421   5.290  18.083  0.00  0.00    +0.000 N 
ATOM      2  H   UNL     1       3.183   6.273  18.240  0.00  0.00    +0.000 HD
ENDROOT
BRANCH   1   7
ATOM      3  C   UNL     1       6.472   4.884  15.957  0.00  0.00    +0.000 A 
ATOM      4  C   UNL     1       7.462   4.821  16.939  0.00  0.00    +0.000 A 
ATOM      5  C   UNL     1       7.131   4.997  18.287  0.00  0.00    +0.000 A 
ATOM      6  C   UNL     1       5.800   5.179  18.674  0.00  0.00    +0.000 A 
ATOM      7  C   UNL     1       4.789   5.178  17.711  0.00  0.00    +0.000 A 
ATOM      8  C   UNL     1       5.152   5.109  16.357  0.00  0.00    +0.000 A 
BRANCH   3  10
ATOM      9  C   UNL     1       5.926   3.986  13.714  0.00  0.00    +0.000 C 
ATOM     10  C   UNL     1       6.787   4.581  14.555  0.00  0.00    +0.000 C 
BRANCH   9  11
ATOM     11  C   UNL     1       6.359   3.615  12.351  0.00  0.00    +0.000 C 
ATOM     12  O   UNL     1       7.311   4.102  11.759  0.00  0.00    +0.000 OA
BRANCH  11  14
ATOM     13  C   UNL     1       4.307   3.118  11.375  0.00  0.00    +0.000 C 
ATOM     14  O   UNL     1       5.544   2.636  11.903  0.00  0.00    +0.000 OA
ENDBRANCH  11  14
ENDBRANCH   9  11
ENDBRANCH   3  10
ENDBRANCH   1   7
BRANCH   1  15
ATOM     15  C   UNL     1       2.827   4.530  19.143  0.00  0.00    +0.000 A 
ATOM     16  C   UNL     1       2.440   5.201  20.328  0.00  0.00    +0.000 A 
ATOM     17  C   UNL     1       1.813   4.542  21.378  0.00  0.00    +0.000 A 
ATOM     18  C   UNL     1       1.496   3.198  21.247  0.00  0.00    +0.000 A 
ATOM     19  C   UNL     1       1.838   2.516  20.076  0.00  0.00    +0.000 A 
ATOM     20  C   UNL     1       2.506   3.163  19.015  0.00  0.00    +0.000 A 
BRANCH  20  21
ATOM     21  C   UNL     1       2.871   2.303  17.844  0.00  0.00    +0.000 C 
ATOM     22  N   UNL     1       3.684   1.226  18.059  0.00  0.00    +0.000 N 
ATOM     23  O   UNL     1       2.449   2.533  16.718  0.00  0.00    +0.000 OA
ATOM     24  H   UNL     1       3.912   0.924  18.999  0.00  0.00    +0.000 HD
ATOM     25  H   UNL     1       3.824   0.581  17.293  0.00  0.00    +0.000 HD
ENDBRANCH  20  21
ENDBRANCH   1  15
TORSDOF 6
ENDMDL
MODEL 2
REMARK VINA RESULT:      -7.8      3.589      7.550
REMARK  Name = 
REMARK  7 active torsions:
REMARK  status: ('A' for Active; 'I' for Inactive)
REMARK    1  A    between atoms: C_1  and  O_2
REMARK    2  A    between atoms: O_2  and  C_3
REMARK    3  A    between atoms: C_3  and  C_5
REMARK    4  A    between atoms: C_6  and  C_7
REMARK    5  A    between atoms: C_11  and  N_12
REMARK    6  A    between atoms: N_12  and  C_13
REMARK    7  A    between atoms: C_18  and  C_19
REMARK                            x       y       z     vdW  Elec       q    Type
REMARK                         _______ _______ _______ _____ _____    ______ ____
ROOT
ATOM      1  N   UNL     1       5.239   3.745  19.216  0.00  0.00    +0.000 N 
ATOM      2  H   UNL     1       5.840   4.139  19.945  0.00  0.00    +0.000 HD
ENDROOT
BRANCH   1   7
ATOM      3  C   UNL     1       1.907   4.992  20.373  0.00  0.00    +0.000 A 
ATOM      4  C   UNL     1       1.263   3.785  20.647  0.00  0.00    +0.000 A 
ATOM      5  C   UNL     1       1.896   2.568  20.371  0.00  0.00    +0.000 A 
ATOM      6  C   UNL     1       3.202   2.544  19.874  0.00  0.00    +0.000 A 
ATOM      7  C   UNL     1       3.886   3.742  19.655  0.00  0.00    +0.000 A 
ATOM      8  C   UNL     1       3.196   4.950  19.835  0.00  0.00    +0.000 A 
BRANCH   3  10
ATOM      9  C   UNL     1       1.885   7.462  20.560  0.00  0.00    +0.000 C 
ATOM     10  C   UNL     1       1.303   6.270  20.769  0.00  0.00    +0.000 C 
BRANCH   9  11
ATOM     11  C   UNL     1       1.264   8.694  21.088  0.00  0.00    +0.000 C 
ATOM     12  O   UNL     1       1.297   9.052  22.257  0.00  0.00    +0.000 OA
BRANCH  11  14
ATOM     13  C   UNL     1       0.301  10.688  20.380  0.00  0.00    +0.000 C 
ATOM     14  O   UNL     1       0.692   9.352  20.057  0.00  0.00    +0.000 OA
ENDBRANCH  11  14
ENDBRANCH   9  11
ENDBRANCH   3  10
ENDBRANCH   1   7
BRANCH   1  15
ATOM     15  C   UNL     1       5.661   4.300  17.965  0.00  0.00    +0.000 A 
ATOM     16  C   UNL     1       4.997   3.895  16.781  0.00  0.00    +0.000 A 
ATOM     17  C   UNL     1       5.316   4.425  15.537  0.00  0.00    +0.000 A 
ATOM     18  C   UNL     1       6.269   5.429  15.449  0.00  0.00    +0.000 A 
ATOM     19  C   UNL     1       6.919   5.873  16.604  0.00  0.00    +0.000 A 
ATOM     20  C   UNL     1       6.631   5.319  17.870  0.00  0.00    +0.000 A 
BRANCH  20  21
ATOM     21  C   UNL     1       7.443   5.838  19.016  0.00  0.00    +0.000 C 
ATOM     22  N   UNL     1       8.271   6.903  18.796  0.00  0.00    +0.000 N 
ATOM     23  O   UNL     1       7.370   5.346  20.135  0.00  0.00    +0.000 OA
ATOM     24  H   UNL     1       8.228   7.425  17.928  0.00  0.00    +0.000 HD
ATOM     25  H   UNL     1       8.718   7.326  19.597  0.00  0.00    +0.000 HD
ENDBRANCH  20  21
ENDBRANCH   1  15
TORSDOF 6
ENDMDL
MODEL 3
REMARK VINA RESULT:      -7.7      1.012      1.047
REMARK  Name = 
REMARK  7 active torsions:
REMARK  status: ('A' for Active; 'I' for Inactive)
REMARK    1  A    between atoms: C_1  and  O_2
REMARK    2  A    between atoms: O_2  and  C_3
REMARK    3  A    between atoms: C_3  and  C_5
REMARK    4  A    between atoms: C_6  and  C_7
REMARK    5  A    between atoms: C_11  and  N_12
REMARK    6  A    between atoms: N_12  and  C_13
REMARK    7  A    between atoms: C_18  and  C_19
REMARK                            x       y       z     vdW  Elec       q    Type
REMARK                         _______ _______ _______ _____ _____    ______ ____
ROOT
ATOM      1  N   UNL     1       5.100   3.611  19.281  0.00  0.00    +0.000 N 
ATOM      2  H   UNL     1       5.258   2.653  18.959  0.00  0.00    +0.000 HD
ENDROOT
BRANCH   1   7
ATOM      3  C   UNL     1       6.302   5.281  16.156  0.00  0.00    +0.000 A 
ATOM      4  C   UNL     1       7.186   6.220  16.691  0.00  0.00    +0.000 A 
ATOM      5  C   UNL     1       7.318   6.355  18.077  0.00  0.00    +0.000 A 
ATOM      6  C   UNL     1       6.613   5.514  18.943  0.00  0.00    +0.000 A 
ATOM      7  C   UNL     1       5.774   4.525  18.424  0.00  0.00    +0.000 A 
ATOM      8  C   UNL     1       5.573   4.477  17.037  0.00  0.00    +0.000 A 
BRANCH   3  10
ATOM      9  C   UNL     1       6.394   3.835  14.146  0.00  0.00    +0.000 C 
ATOM     10  C   UNL     1       6.245   5.046  14.707  0.00  0.00    +0.000 C 
BRANCH   9  11
ATOM     11  C   UNL     1       6.435   3.701  12.675  0.00  0.00    +0.000 C 
ATOM     12  O   UNL     1       7.201   4.302  11.935  0.00  0.00    +0.000 OA
BRANCH  11  14
ATOM     13  C   UNL     1       4.434   3.335  11.548  0.00  0.00    +0.000 C 
ATOM     14  O   UNL     1       5.511   2.786  12.311  0.00  0.00    +0.000 OA
ENDBRANCH  11  14
ENDBRANCH   9  11
ENDBRANCH   3  10
ENDBRANCH   1   7
BRANCH   1  15
ATOM     15  C   UNL     1       3.714   3.728  19.623  0.00  0.00    +0.000 A 
ATOM     16  C   UNL     1       3.325   4.707  20.568  0.00  0.00    +0.000 A 
ATOM     17  C   UNL     1       1.995   4.913  20.913  0.00  0.00    +0.000 A 
ATOM     18  C   UNL     1       1.004   4.184  20.273  0.00  0.00    +0.000 A 
ATOM     19  C   UNL     1       1.355   3.232  19.312  0.00  0.00    +0.000 A 
ATOM     20  C   UNL     1       2.703   2.986  18.975  0.00  0.00    +0.000 A 
BRANCH  20  21
ATOM     21  C   UNL     1       2.946   1.896  17.978  0.00  0.00    +0.000 C 
ATOM     22  N   UNL     1       3.810   0.891  18.312  0.00  0.00    +0.000 N 
ATOM     23  O   UNL     1       2.381   1.877  16.891  0.00  0.00    +0.000 OA
ATOM     24  H   UNL     1       4.161   0.800  19.258  0.00  0.00    +0.000 HD
ATOM     25  H   UNL     1       3.872   0.097  17.689  0.00  0.00    +0.000 HD
ENDBRANCH  20  21
ENDBRANCH   1  15
TORSDOF 6
ENDMDL
MODEL 4
REMARK VINA RESULT:      -7.7      1.577      1.771
REMARK  Name = 
REMARK  7 active torsions:
REMARK  status: ('A' for Active; 'I' for Inactive)
REMARK    1  A    between atoms: C_1  and  O_2
REMARK    2  A    between atoms: O_2  and  C_3
REMARK    3  A    between atoms: C_3  and  C_5
REMARK    4  A    between atoms: C_6  and  C_7
REMARK    5  A    between atoms: C_11  and  N_12
REMARK    6  A    between atoms: N_12  and  C_13
REMARK    7  A    between atoms: C_18  and  C_19
REMARK                            x       y       z     vdW  Elec       q    Type
REMARK                         _______ _______ _______ _____ _____    ______ ____
ROOT
ATOM      1  N   UNL     1       5.228   4.606  19.508  0.00  0.00    +0.000 N 
ATOM      2  H   UNL     1       5.768   3.795  19.821  0.00  0.00    +0.000 HD
ENDROOT
BRANCH   1   7
ATOM      3  C   UNL     1       5.804   4.992  15.832  0.00  0.00    +0.000 A 
ATOM      4  C   UNL     1       6.847   5.919  15.832  0.00  0.00    +0.000 A 
ATOM      5  C   UNL     1       7.297   6.476  17.035  0.00  0.00    +0.000 A 
ATOM      6  C   UNL     1       6.750   6.066  18.254  0.00  0.00    +0.000 A 
ATOM      7  C   UNL     1       5.752   5.091  18.278  0.00  0.00    +0.000 A 
ATOM      8  C   UNL     1       5.239   4.626  17.057  0.00  0.00    +0.000 A 
BRANCH   3  10
ATOM      9  C   UNL     1       6.282   3.876  13.672  0.00  0.00    +0.000 C 
ATOM     10  C   UNL     1       5.406   4.313  14.592  0.00  0.00    +0.000 C 
BRANCH   9  11
ATOM     11  C   UNL     1       5.796   3.303  12.400  0.00  0.00    +0.000 C 
ATOM     12  O   UNL     1       4.648   3.381  11.987  0.00  0.00    +0.000 OA
BRANCH  11  14
ATOM     13  C   UNL     1       6.504   1.489  11.129  0.00  0.00    +0.000 C 
ATOM     14  O   UNL     1       6.841   2.718  11.777  0.00  0.00    +0.000 OA
ENDBRANCH  11  14
ENDBRANCH   9  11
ENDBRANCH   3  10
ENDBRANCH   1   7
BRANCH   1  15
ATOM     15  C   UNL     1       3.842   4.303  19.710  0.00  0.00    +0.000 A 
ATOM     16  C   UNL     1       2.930   5.371  19.891  0.00  0.00    +0.000 A 
ATOM     17  C   UNL     1       1.565   5.159  20.043  0.00  0.00    +0.000 A 
ATOM     18  C   UNL     1       1.062   3.869  19.954  0.00  0.00    +0.000 A 
ATOM     19  C   UNL     1       1.934   2.797  19.744  0.00  0.00    +0.000 A 
ATOM     20  C   UNL     1       3.327   2.993  19.623  0.00  0.00    +0.000 A 
BRANCH  20  21
ATOM     21  C   UNL     1       4.155   1.755  19.465  0.00  0.00    +0.000 C 
ATOM     22  N   UNL     1       3.893   0.929  18.408  0.00  0.00    +0.000 N 
ATOM     23  O   UNL     1       5.059   1.480  20.244  0.00  0.00    +0.000 OA
ATOM     24  H   UNL     1       3.264   1.216  17.667  0.00  0.00    +0.000 HD
ATOM     25  H   UNL     1       4.534   0.166  18.236  0.00  0.00    +0.000 HD
ENDBRANCH  20  21
ENDBRANCH   1  15
TORSDOF 6
ENDMDL
MODEL 5
REMARK VINA RESULT:      -7.7      1.482      2.406
REMARK  Name = 
REMARK  7 active torsions:
REMARK  status: ('A' for Active; 'I' for Inactive)
REMARK    1  A    between atoms: C_1  and  O_2
REMARK    2  A    between atoms: O_2  and  C_3
REMARK    3  A    between atoms: C_3  and  C_5
REMARK    4  A    between atoms: C_6  and  C_7
REMARK    5  A    between atoms: C_11  and  N_12
REMARK    6  A    between atoms: N_12  and  C_13
REMARK    7  A    between atoms: C_18  and  C_19
REMARK                            x       y       z     vdW  Elec       q    Type
REMARK                         _______ _______ _______ _____ _____    ______ ____
ROOT
ATOM      1  N   UNL     1       3.078   4.685  17.723  0.00  0.00    +0.000 N 
ATOM      2  H   UNL     1       2.639   5.578  17.485  0.00  0.00    +0.000 HD
ENDROOT
BRANCH   1   7
ATOM      3  C   UNL     1       6.236   4.542  15.721  0.00  0.00    +0.000 A 
ATOM      4  C   UNL     1       7.187   4.669  16.734  0.00  0.00    +0.000 A 
ATOM      5  C   UNL     1       6.786   4.885  18.058  0.00  0.00    +0.000 A 
ATOM      6  C   UNL     1       5.428   4.917  18.391  0.00  0.00    +0.000 A 
ATOM      7  C   UNL     1       4.463   4.726  17.400  0.00  0.00    +0.000 A 
ATOM      8  C   UNL     1       4.883   4.621  16.066  0.00  0.00    +0.000 A 
BRANCH   3  10
ATOM      9  C   UNL     1       5.795   3.705  13.432  0.00  0.00    +0.000 C 
ATOM     10  C   UNL     1       6.640   4.196  14.353  0.00  0.00    +0.000 C 
BRANCH   9  11
ATOM     11  C   UNL     1       6.304   3.277  12.113  0.00  0.00    +0.000 C 
ATOM     12  O   UNL     1       7.414   3.536  11.670  0.00  0.00    +0.000 OA
BRANCH  11  14
ATOM     13  C   UNL     1       4.108   3.226  11.349  0.00  0.00    +0.000 C 
ATOM     14  O   UNL     1       5.348   2.535  11.514  0.00  0.00    +0.000 OA
ENDBRANCH  11  14
ENDBRANCH   9  11
ENDBRANCH   3  10
ENDBRANCH   1   7
BRANCH   1  15
ATOM     15  C   UNL     1       2.579   4.290  19.006  0.00  0.00    +0.000 A 
ATOM     16  C   UNL     1       2.492   2.909  19.308  0.00  0.00    +0.000 A 
ATOM     17  C   UNL     1       2.065   2.450  20.548  0.00  0.00    +0.000 A 
ATOM     18  C   UNL     1       1.772   3.364  21.549  0.00  0.00    +0.000 A 
ATOM     19  C   UNL     1       1.878   4.733  21.291  0.00  0.00    +0.000 A 
ATOM     20  C   UNL     1       2.277   5.216  20.026  0.00  0.00    +0.000 A 
BRANCH  20  21
ATOM     21  C   UNL     1       2.289   6.705  19.863  0.00  0.00    +0.000 C 
ATOM     22  N   UNL     1       2.003   7.480  20.952  0.00  0.00    +0.000 N 
ATOM     23  O   UNL     1       2.561   7.235  18.793  0.00  0.00    +0.000 OA
ATOM     24  H   UNL     1       1.934   7.072  21.877  0.00  0.00    +0.000 HD
ATOM     25  H   UNL     1       2.135   8.478  20.867  0.00  0.00    +0.000 HD
ENDBRANCH  20  21
ENDBRANCH   1  15
TORSDOF 6
ENDMDL
MODEL 6
REMARK VINA RESULT:      -7.7      1.683      2.457
REMARK  Name = 
REMARK  7 active torsions:
REMARK  status: ('A' for Active; 'I' for Inactive)
REMARK    1  A    between atoms: C_1  and  O_2
REMARK    2  A    between atoms: O_2  and  C_3
REMARK    3  A    between atoms: C_3  and  C_5
REMARK    4  A    between atoms: C_6  and  C_7
REMARK    5  A    between atoms: C_11  and  N_12
REMARK    6  A    between atoms: N_12  and  C_13
REMARK    7  A    between atoms: C_18  and  C_19
REMARK                            x       y       z     vdW  Elec       q    Type
REMARK                         _______ _______ _______ _____ _____    ______ ____
ROOT
ATOM      1  N   UNL     1       4.925   3.768  19.405  0.00  0.00    +0.000 N 
ATOM      2  H   UNL     1       5.450   2.913  19.609  0.00  0.00    +0.000 HD
ENDROOT
BRANCH   1   7
ATOM      3  C   UNL     1       6.218   5.311  16.253  0.00  0.00    +0.000 A 
ATOM      4  C   UNL     1       7.228   6.129  16.763  0.00  0.00    +0.000 A 
ATOM      5  C   UNL     1       7.422   6.232  18.145  0.00  0.00    +0.000 A 
ATOM      6  C   UNL     1       6.648   5.474  19.029  0.00  0.00    +0.000 A 
ATOM      7  C   UNL     1       5.678   4.601  18.533  0.00  0.00    +0.000 A 
ATOM      8  C   UNL     1       5.425   4.594  17.153  0.00  0.00    +0.000 A 
BRANCH   3  10
ATOM      9  C   UNL     1       6.500   3.991  14.176  0.00  0.00    +0.000 C 
ATOM     10  C   UNL     1       6.084   5.102  14.805  0.00  0.00    +0.000 C 
BRANCH   9  11
ATOM     11  C   UNL     1       6.430   3.905  12.702  0.00  0.00    +0.000 C 
ATOM     12  O   UNL     1       7.299   4.291  11.934  0.00  0.00    +0.000 OA
BRANCH  11  14
ATOM     13  C   UNL     1       5.436   2.166  11.522  0.00  0.00    +0.000 C 
ATOM     14  O   UNL     1       5.268   3.303  12.371  0.00  0.00    +0.000 OA
ENDBRANCH  11  14
ENDBRANCH   9  11
ENDBRANCH   3  10
ENDBRANCH   1   7
BRANCH   1  15
ATOM     15  C   UNL     1       3.566   3.388  19.156  0.00  0.00    +0.000 A 
ATOM     16  C   UNL     1       3.293   2.059  18.751  0.00  0.00    +0.000 A 
ATOM     17  C   UNL     1       1.998   1.603  18.539  0.00  0.00    +0.000 A 
ATOM     18  C   UNL     1       0.928   2.450  18.789  0.00  0.00    +0.000 A 
ATOM     19  C   UNL     1       1.165   3.758  19.219  0.00  0.00    +0.000 A 
ATOM     20  C   UNL     1       2.475   4.247  19.406  0.00  0.00    +0.000 A 
BRANCH  20  21
ATOM     21  C   UNL     1       2.591   5.685  19.808  0.00  0.00    +0.000 C 
ATOM     22  N   UNL     1       2.143   6.051  21.046  0.00  0.00    +0.000 N 
ATOM     23  O   UNL     1       3.087   6.524  19.067  0.00  0.00    +0.000 OA
ATOM     24  H   UNL     1       1.881   5.353  21.732  0.00  0.00    +0.000 HD
ATOM     25  H   UNL     1       2.339   6.992  21.358  0.00  0.00    +0.000 HD
ENDBRANCH  20  21
ENDBRANCH   1  15
TORSDOF 6
ENDMDL
MODEL 7
REMARK VINA RESULT:      -7.7      1.093      1.333
REMARK  Name = 
REMARK  7 active torsions:
REMARK  status: ('A' for Active; 'I' for Inactive)
REMARK    1  A    between atoms: C_1  and  O_2
REMARK    2  A    between atoms: O_2  and  C_3
REMARK    3  A    between atoms: C_3  and  C_5
REMARK    4  A    between atoms: C_6  and  C_7
REMARK    5  A    between atoms: C_11  and  N_12
REMARK    6  A    between atoms: N_12  and  C_13
REMARK    7  A    between atoms: C_18  and  C_19
REMARK                            x       y       z     vdW  Elec       q    Type
REMARK                         _______ _______ _______ _____ _____    ______ ____
ROOT
ATOM      1  N   UNL     1       4.763   4.164  18.895  0.00  0.00    +0.000 N 
ATOM      2  H   UNL     1       5.256   3.270  18.814  0.00  0.00    +0.000 HD
ENDROOT
BRANCH   1   7
ATOM      3  C   UNL     1       5.506   4.974  15.320  0.00  0.00    +0.000 A 
ATOM      4  C   UNL     1       5.357   6.362  15.335  0.00  0.00    +0.000 A 
ATOM      5  C   UNL     1       4.932   7.013  16.498  0.00  0.00    +0.000 A 
ATOM      6  C   UNL     1       4.708   6.292  17.674  0.00  0.00    +0.000 A 
ATOM      7  C   UNL     1       4.916   4.911  17.695  0.00  0.00    +0.000 A 
ATOM      8  C   UNL     1       5.236   4.263  16.493  0.00  0.00    +0.000 A 
BRANCH   3  10
ATOM      9  C   UNL     1       5.316   3.799  13.147  0.00  0.00    +0.000 C 
ATOM     10  C   UNL     1       6.066   4.294  14.145  0.00  0.00    +0.000 C 
BRANCH   9  11
ATOM     11  C   UNL     1       5.949   3.031  12.055  0.00  0.00    +0.000 C 
ATOM     12  O   UNL     1       7.146   3.017  11.808  0.00  0.00    +0.000 OA
BRANCH  11  14
ATOM     13  C   UNL     1       3.872   3.140  11.016  0.00  0.00    +0.000 C 
ATOM     14  O   UNL     1       4.984   2.336  11.416  0.00  0.00    +0.000 OA
ENDBRANCH  11  14
ENDBRANCH   9  11
ENDBRANCH   3  10
ENDBRANCH   1   7
BRANCH   1  15
ATOM     15  C   UNL     1       3.494   3.901  19.505  0.00  0.00    +0.000 A 
ATOM     16  C   UNL     1       3.025   4.781  20.510  0.00  0.00    +0.000 A 
ATOM     17  C   UNL     1       1.783   4.620  21.111  0.00  0.00    +0.000 A 
ATOM     18  C   UNL     1       0.942   3.605  20.678  0.00  0.00    +0.000 A 
ATOM     19  C   UNL     1       1.364   2.740  19.665  0.00  0.00    +0.000 A 
ATOM     20  C   UNL     1       2.637   2.868  19.068  0.00  0.00    +0.000 A 
BRANCH  20  21
ATOM     21  C   UNL     1       2.991   1.838  18.041  0.00  0.00    +0.000 C 
ATOM     22  N   UNL     1       3.886   0.863  18.381  0.00  0.00    +0.000 N 
ATOM     23  O   UNL     1       2.489   1.841  16.924  0.00  0.00    +0.000 OA
ATOM     24  H   UNL     1       4.188   0.746  19.342  0.00  0.00    +0.000 HD
ATOM     25  H   UNL     1       4.024   0.102  17.730  0.00  0.00    +0.000 HD
ENDBRANCH  20  21
ENDBRANCH   1  15
TORSDOF 6
ENDMDL
MODEL 8
REMARK VINA RESULT:      -7.6      1.642      1.885
REMARK  Name = 
REMARK  7 active torsions:
REMARK  status: ('A' for Active; 'I' for Inactive)
REMARK    1  A    between atoms: C_1  and  O_2
REMARK    2  A    between atoms: O_2  and  C_3
REMARK    3  A    between atoms: C_3  and  C_5
REMARK    4  A    between atoms: C_6  and  C_7
REMARK    5  A    between atoms: C_11  and  N_12
REMARK    6  A    between atoms: N_12  and  C_13
REMARK    7  A    between atoms: C_18  and  C_19
REMARK                            x       y       z     vdW  Elec       q    Type
REMARK                         _______ _______ _______ _____ _____    ______ ____
ROOT
ATOM      1  N   UNL     1       4.069   5.002  19.497  0.00  0.00    +0.000 N 
ATOM      2  H   UNL     1       4.451   4.812  20.427  0.00  0.00    +0.000 HD
ENDROOT
BRANCH   1   7
ATOM      3  C   UNL     1       5.906   5.088  16.239  0.00  0.00    +0.000 A 
ATOM      4  C   UNL     1       7.211   5.299  16.686  0.00  0.00    +0.000 A 
ATOM      5  C   UNL     1       7.468   5.495  18.048  0.00  0.00    +0.000 A 
ATOM      6  C   UNL     1       6.431   5.424  18.983  0.00  0.00    +0.000 A 
ATOM      7  C   UNL     1       5.129   5.149  18.560  0.00  0.00    +0.000 A 
ATOM      8  C   UNL     1       4.875   5.064  17.183  0.00  0.00    +0.000 A 
BRANCH   3  10
ATOM      9  C   UNL     1       6.279   3.787  14.164  0.00  0.00    +0.000 C 
ATOM     10  C   UNL     1       5.640   4.762  14.832  0.00  0.00    +0.000 C 
BRANCH   9  11
ATOM     11  C   UNL     1       6.033   3.595  12.720  0.00  0.00    +0.000 C 
ATOM     12  O   UNL     1       6.899   3.389  11.881  0.00  0.00    +0.000 OA
BRANCH  11  14
ATOM     13  C   UNL     1       4.300   3.142  11.237  0.00  0.00    +0.000 C 
ATOM     14  O   UNL     1       4.701   3.657  12.509  0.00  0.00    +0.000 OA
ENDBRANCH  11  14
ENDBRANCH   9  11
ENDBRANCH   3  10
ENDBRANCH   1   7
BRANCH   1  15
ATOM     15  C   UNL     1       2.959   4.118  19.300  0.00  0.00    +0.000 A 
ATOM     16  C   UNL     1       1.848   4.575  18.551  0.00  0.00    +0.000 A 
ATOM     17  C   UNL     1       0.758   3.761  18.275  0.00  0.00    +0.000 A 
ATOM     18  C   UNL     1       0.775   2.437  18.689  0.00  0.00    +0.000 A 
ATOM     19  C   UNL     1       1.871   1.947  19.403  0.00  0.00    +0.000 A 
ATOM     20  C   UNL     1       2.972   2.772  19.721  0.00  0.00    +0.000 A 
BRANCH  20  21
ATOM     21  C   UNL     1       4.052   2.141  20.545  0.00  0.00    +0.000 C 
ATOM     22  N   UNL     1       5.216   1.783  19.925  0.00  0.00    +0.000 N 
ATOM     23  O   UNL     1       3.921   1.958  21.748  0.00  0.00    +0.000 OA
ATOM     24  H   UNL     1       5.407   2.070  18.971  0.00  0.00    +0.000 HD
ATOM     25  H   UNL     1       5.984   1.476  20.506  0.00  0.00    +0.000 HD
ENDBRANCH  20  21
ENDBRANCH   1  15
TORSDOF 6
ENDMDL
MODEL 9
REMARK VINA RESULT:      -7.5      1.152      1.798
REMARK  Name = 
REMARK  7 active torsions:
REMARK  status: ('A' for Active; 'I' for Inactive)
REMARK    1  A    between atoms: C_1  and  O_2
REMARK    2  A    between atoms: O_2  and  C_3
REMARK    3  A    between atoms: C_3  and  C_5
REMARK    4  A    between atoms: C_6  and  C_7
REMARK    5  A    between atoms: C_11  and  N_12
REMARK    6  A    between atoms: N_12  and  C_13
REMARK    7  A    between atoms: C_18  and  C_19
REMARK                            x       y       z     vdW  Elec       q    Type
REMARK                         _______ _______ _______ _____ _____    ______ ____
ROOT
ATOM      1  N   UNL     1       4.189   2.829  18.374  0.00  0.00    +0.000 N 
ATOM      2  H   UNL     1       3.709   2.422  17.567  0.00  0.00    +0.000 HD
ENDROOT
BRANCH   1   7
ATOM      3  C   UNL     1       6.288   4.949  16.117  0.00  0.00    +0.000 A 
ATOM      4  C   UNL     1       6.935   5.757  17.053  0.00  0.00    +0.000 A 
ATOM      5  C   UNL     1       6.615   5.659  18.412  0.00  0.00    +0.000 A 
ATOM      6  C   UNL     1       5.689   4.710  18.856  0.00  0.00    +0.000 A 
ATOM      7  C   UNL     1       5.081   3.848  17.941  0.00  0.00    +0.000 A 
ATOM      8  C   UNL     1       5.334   4.036  16.573  0.00  0.00    +0.000 A 
BRANCH   3  10
ATOM      9  C   UNL     1       6.317   4.030  13.817  0.00  0.00    +0.000 C 
ATOM     10  C   UNL     1       6.701   4.958  14.708  0.00  0.00    +0.000 C 
BRANCH   9  11
ATOM     11  C   UNL     1       6.865   4.047  12.445  0.00  0.00    +0.000 C 
ATOM     12  O   UNL     1       7.615   4.904  11.999  0.00  0.00    +0.000 OA
BRANCH  11  14
ATOM     13  C   UNL     1       4.995   2.848  11.760  0.00  0.00    +0.000 C 
ATOM     14  O   UNL     1       6.420   2.948  11.800  0.00  0.00    +0.000 OA
ENDBRANCH  11  14
ENDBRANCH   9  11
ENDBRANCH   3  10
ENDBRANCH   1   7
BRANCH   1  15
ATOM     15  C   UNL     1       3.212   3.021  19.404  0.00  0.00    +0.000 A 
ATOM     16  C   UNL     1       3.391   2.363  20.644  0.00  0.00    +0.000 A 
ATOM     17  C   UNL     1       2.514   2.539  21.707  0.00  0.00    +0.000 A 
ATOM     18  C   UNL     1       1.461   3.433  21.580  0.00  0.00    +0.000 A 
ATOM     19  C   UNL     1       1.276   4.121  20.378  0.00  0.00    +0.000 A 
ATOM     20  C   UNL     1       2.138   3.927  19.277  0.00  0.00    +0.000 A 
BRANCH  20  21
ATOM     21  C   UNL     1       1.792   4.677  18.028  0.00  0.00    +0.000 C 
ATOM     22  N   UNL     1       2.285   5.941  17.872  0.00  0.00    +0.000 N 
ATOM     23  O   UNL     1       1.098   4.181  17.149  0.00  0.00    +0.000 OA
ATOM     24  H   UNL     1       2.987   6.308  18.505  0.00  0.00    +0.000 HD
ATOM     25  H   UNL     1       2.153   6.391  16.977  0.00  0.00    +0.000 HD
ENDBRANCH  20  21
ENDBRANCH   1  15
TORSDOF 6
ENDMDL
