MODEL 1
REMARK VINA RESULT:      -8.6      0.000      0.000
REMARK  Name = 
REMARK  5 active torsions:
REMARK  status: ('A' for Active; 'I' for Inactive)
REMARK    1  A    between atoms: C_4  and  C_5
REMARK    2  A    between atoms: C_4  and  C_6
REMARK    3  A    between atoms: C_6  and  O_7
REMARK    4  A    between atoms: O_7  and  C_8
REMARK    5  A    between atoms: C_12  and  C_13
REMARK                            x       y       z     vdW  Elec       q    Type
REMARK                         _______ _______ _______ _____ _____    ______ ____
ROOT
ATOM      1  C   UNL     1       2.391   7.395  18.780  0.00  0.00    +0.000 A 
ATOM      2  C   UNL     1       1.981   8.420  17.931  0.00  0.00    +0.000 A 
ATOM      3  C   UNL     1       1.245   9.507  18.424  0.00  0.00    +0.000 A 
ATOM      4  C   UNL     1       0.901   9.600  19.778  0.00  0.00    +0.000 A 
ATOM      5  C   UNL     1       0.140  10.719  20.366  0.00  0.00    +0.000 A 
ATOM      6  C   UNL     1      -0.394  11.825  19.492  0.00  0.00    +0.000 C 
ATOM      7  C   UNL     1      -0.057  10.718  21.700  0.00  0.00    +0.000 A 
ATOM      8 CL   UNL     1      -0.900  12.015  22.495  0.00  0.00    +0.000 Cl
ATOM      9  C   UNL     1       0.428   9.637  22.599  0.00  0.00    +0.000 A 
ATOM     10  O   UNL     1       0.271   9.656  23.815  0.00  0.00    +0.000 OA
ATOM     11  O   UNL     1       1.067   8.570  21.986  0.00  0.00    +0.000 OA
ATOM     12  C   UNL     1       1.329   8.562  20.606  0.00  0.00    +0.000 A 
ATOM     13  C   UNL     1       2.056   7.467  20.129  0.00  0.00    +0.000 A 
ENDROOT
BRANCH   1  14
ATOM     14  O   UNL     1       3.121   6.299  18.413  0.00  0.00    +0.000 OA
BRANCH  14  15
ATOM     15  C   UNL     1       2.438   5.314  17.635  0.00  0.00    +0.000 C 
BRANCH  15  19
ATOM     16  C   UNL     1       1.214   3.403  20.916  0.00  0.00    +0.000 C 
ATOM     17  C   UNL     1       1.869   3.213  19.766  0.00  0.00    +0.000 C 
ATOM     18  C   UNL     1       3.239   3.646  19.395  0.00  0.00    +0.000 C 
ATOM     19  C   UNL     1       3.026   3.913  17.910  0.00  0.00    +0.000 C 
ATOM     20  C   UNL     1       4.309   3.706  17.108  0.00  0.00    +0.000 C 
ATOM     21  O   UNL     1       2.059   2.922  17.502  0.00  0.00    +0.000 OA
ATOM     22  C   UNL     1       1.252   2.612  18.560  0.00  0.00    +0.000 C 
ATOM     23  O   UNL     1       0.223   1.971  18.512  0.00  0.00    +0.000 OA
ENDBRANCH  15  19
ENDBRANCH  14  15
ENDBRANCH   1  14
TORSDOF 3
ENDMDL
MODEL 2
REMARK VINA RESULT:      -8.5      1.768      3.165
REMARK  Name = 
REMARK  5 active torsions:
REMARK  status: ('A' for Active; 'I' for Inactive)
REMARK    1  A    between atoms: C_4  and  C_5
REMARK    2  A    between atoms: C_4  and  C_6
REMARK    3  A    between atoms: C_6  and  O_7
REMARK    4  A    between atoms: O_7  and  C_8
REMARK    5  A    between atoms: C_12  and  C_13
REMARK                            x       y       z     vdW  Elec       q    Type
REMARK                         _______ _______ _______ _____ _____    ______ ____
ROOT
ATOM      1  C   UNL     1       2.418   7.085  18.608  0.00  0.00    +0.000 A 
ATOM      2  C   UNL     1       2.160   8.139  17.735  0.00  0.00    +0.000 A 
ATOM      3  C   UNL     1       1.548   9.314  18.193  0.00  0.00    +0.000 A 
ATOM      4  C   UNL     1       1.179   9.469  19.535  0.00  0.00    +0.000 A 
ATOM      5  C   UNL     1       0.543  10.680  20.088  0.00  0.00    +0.000 A 
ATOM      6  C   UNL     1       0.173  11.829  19.185  0.00  0.00    +0.000 C 
ATOM      7  C   UNL     1       0.309  10.723  21.415  0.00  0.00    +0.000 A 
ATOM      8 CL   UNL     1      -0.392  12.124  22.169  0.00  0.00    +0.000 Cl
ATOM      9  C   UNL     1       0.633   9.604  22.340  0.00  0.00    +0.000 A 
ATOM     10  O   UNL     1       0.444   9.661  23.551  0.00  0.00    +0.000 OA
ATOM     11  O   UNL     1       1.155   8.459  21.759  0.00  0.00    +0.000 OA
ATOM     12  C   UNL     1       1.453   8.399  20.387  0.00  0.00    +0.000 A 
ATOM     13  C   UNL     1       2.056   7.216  19.946  0.00  0.00    +0.000 A 
ENDROOT
BRANCH   1  14
ATOM     14  O   UNL     1       3.020   5.903  18.276  0.00  0.00    +0.000 OA
BRANCH  14  15
ATOM     15  C   UNL     1       4.334   5.692  18.797  0.00  0.00    +0.000 C 
BRANCH  15  19
ATOM     16  C   UNL     1       5.602   4.890  15.101  0.00  0.00    +0.000 C 
ATOM     17  C   UNL     1       5.583   4.392  16.341  0.00  0.00    +0.000 C 
ATOM     18  C   UNL     1       4.446   3.799  17.086  0.00  0.00    +0.000 C 
ATOM     19  C   UNL     1       4.804   4.252  18.496  0.00  0.00    +0.000 C 
ATOM     20  C   UNL     1       4.272   3.286  19.553  0.00  0.00    +0.000 C 
ATOM     21  O   UNL     1       6.246   4.225  18.528  0.00  0.00    +0.000 OA
ATOM     22  C   UNL     1       6.732   4.469  17.274  0.00  0.00    +0.000 C 
ATOM     23  O   UNL     1       7.886   4.712  16.989  0.00  0.00    +0.000 OA
ENDBRANCH  15  19
ENDBRANCH  14  15
ENDBRANCH   1  14
TORSDOF 3
ENDMDL
MODEL 3
REMARK VINA RESULT:      -8.5      2.313      3.573
REMARK  Name = 
REMARK  5 active torsions:
REMARK  status: ('A' for Active; 'I' for Inactive)
REMARK    1  A    between atoms: C_4  and  C_5
REMARK    2  A    between atoms: C_4  and  C_6
REMARK    3  A    between atoms: C_6  and  O_7
REMARK    4  A    between atoms: O_7  and  C_8
REMARK    5  A    between atoms: C_12  and  C_13
REMARK                            x       y       z     vdW  Elec       q    Type
REMARK                         _______ _______ _______ _____ _____    ______ ____
ROOT
ATOM      1  C   UNL     1       2.462   7.167  18.597  0.00  0.00    +0.000 A 
ATOM      2  C   UNL     1       2.145   8.212  17.733  0.00  0.00    +0.000 A 
ATOM      3  C   UNL     1       1.488   9.357  18.205  0.00  0.00    +0.000 A 
ATOM      4  C   UNL     1       1.132   9.490  19.552  0.00  0.00    +0.000 A 
ATOM      5  C   UNL     1       0.451  10.669  20.120  0.00  0.00    +0.000 A 
ATOM      6  C   UNL     1       0.017  11.805  19.228  0.00  0.00    +0.000 C 
ATOM      7  C   UNL     1       0.234  10.696  21.450  0.00  0.00    +0.000 A 
ATOM      8 CL   UNL     1      -0.519  12.062  22.221  0.00  0.00    +0.000 Cl
ATOM      9  C   UNL     1       0.619   9.589  22.365  0.00  0.00    +0.000 A 
ATOM     10  O   UNL     1       0.445   9.632  23.578  0.00  0.00    +0.000 OA
ATOM     11  O   UNL     1       1.183   8.470  21.772  0.00  0.00    +0.000 OA
ATOM     12  C   UNL     1       1.465   8.429  20.395  0.00  0.00    +0.000 A 
ATOM     13  C   UNL     1       2.113   7.277  19.940  0.00  0.00    +0.000 A 
ENDROOT
BRANCH   1  14
ATOM     14  O   UNL     1       3.110   6.014  18.250  0.00  0.00    +0.000 OA
BRANCH  14  15
ATOM     15  C   UNL     1       4.386   5.798  18.857  0.00  0.00    +0.000 C 
BRANCH  15  19
ATOM     16  C   UNL     1       7.768   7.653  17.840  0.00  0.00    +0.000 C 
ATOM     17  C   UNL     1       7.159   6.465  17.786  0.00  0.00    +0.000 C 
ATOM     18  C   UNL     1       6.033   6.037  16.920  0.00  0.00    +0.000 C 
ATOM     19  C   UNL     1       5.332   5.076  17.872  0.00  0.00    +0.000 C 
ATOM     20  C   UNL     1       4.582   3.979  17.119  0.00  0.00    +0.000 C 
ATOM     21  O   UNL     1       6.403   4.471  18.626  0.00  0.00    +0.000 OA
ATOM     22  C   UNL     1       7.443   5.353  18.723  0.00  0.00    +0.000 C 
ATOM     23  O   UNL     1       8.409   5.242  19.449  0.00  0.00    +0.000 OA
ENDBRANCH  15  19
ENDBRANCH  14  15
ENDBRANCH   1  14
TORSDOF 3
ENDMDL
MODEL 4
REMARK VINA RESULT:      -8.2      1.035      1.101
REMARK  Name = 
REMARK  5 active torsions:
REMARK  status: ('A' for Active; 'I' for Inactive)
REMARK    1  A    between atoms: C_4  and  C_5
REMARK    2  A    between atoms: C_4  and  C_6
REMARK    3  A    between atoms: C_6  and  O_7
REMARK    4  A    between atoms: O_7  and  C_8
REMARK    5  A    between atoms: C_12  and  C_13
REMARK                            x       y       z     vdW  Elec       q    Type
REMARK                         _______ _______ _______ _____ _____    ______ ____
ROOT
ATOM      1  C   UNL     1       2.253   7.910  18.562  0.00  0.00    +0.000 A 
ATOM      2  C   UNL     1       1.599   8.881  17.807  0.00  0.00    +0.000 A 
ATOM      3  C   UNL     1       0.745   9.808  18.419  0.00  0.00    +0.000 A 
ATOM      4  C   UNL     1       0.521   9.793  19.801  0.00  0.00    +0.000 A 
ATOM      5  C   UNL     1      -0.354  10.744  20.512  0.00  0.00    +0.000 A 
ATOM      6  C   UNL     1      -1.146  11.775  19.747  0.00  0.00    +0.000 C 
ATOM      7  C   UNL     1      -0.419  10.661  21.856  0.00  0.00    +0.000 A 
ATOM      8 CL   UNL     1      -1.385  11.767  22.789  0.00  0.00    +0.000 Cl
ATOM      9  C   UNL     1       0.321   9.645  22.650  0.00  0.00    +0.000 A 
ATOM     10  O   UNL     1       0.280   9.593  23.875  0.00  0.00    +0.000 OA
ATOM     11  O   UNL     1       1.067   8.725  21.929  0.00  0.00    +0.000 OA
ATOM     12  C   UNL     1       1.192   8.813  20.532  0.00  0.00    +0.000 A 
ATOM     13  C   UNL     1       2.042   7.875  19.937  0.00  0.00    +0.000 A 
ENDROOT
BRANCH   1  14
ATOM     14  O   UNL     1       3.116   6.968  18.075  0.00  0.00    +0.000 OA
BRANCH  14  15
ATOM     15  C   UNL     1       2.673   5.611  18.137  0.00  0.00    +0.000 C 
BRANCH  15  19
ATOM     16  C   UNL     1       1.037   3.032  20.703  0.00  0.00    +0.000 C 
ATOM     17  C   UNL     1       2.202   3.364  20.140  0.00  0.00    +0.000 C 
ATOM     18  C   UNL     1       3.069   4.535  20.420  0.00  0.00    +0.000 C 
ATOM     19  C   UNL     1       3.626   4.777  19.022  0.00  0.00    +0.000 C 
ATOM     20  C   UNL     1       5.011   5.420  19.068  0.00  0.00    +0.000 C 
ATOM     21  O   UNL     1       3.746   3.458  18.450  0.00  0.00    +0.000 OA
ATOM     22  C   UNL     1       2.793   2.640  18.990  0.00  0.00    +0.000 C 
ATOM     23  O   UNL     1       2.490   1.535  18.591  0.00  0.00    +0.000 OA
ENDBRANCH  15  19
ENDBRANCH  14  15
ENDBRANCH   1  14
TORSDOF 3
ENDMDL
MODEL 5
REMARK VINA RESULT:      -8.2      1.330      1.655
REMARK  Name = 
REMARK  5 active torsions:
REMARK  status: ('A' for Active; 'I' for Inactive)
REMARK    1  A    between atoms: C_4  and  C_5
REMARK    2  A    between atoms: C_4  and  C_6
REMARK    3  A    between atoms: C_6  and  O_7
REMARK    4  A    between atoms: O_7  and  C_8
REMARK    5  A    between atoms: C_12  and  C_13
REMARK                            x       y       z     vdW  Elec       q    Type
REMARK                         _______ _______ _______ _____ _____    ______ ____
ROOT
ATOM      1  C   UNL     1       2.348   7.510  18.662  0.00  0.00    +0.000 A 
ATOM      2  C   UNL     1       1.890   8.545  17.850  0.00  0.00    +0.000 A 
ATOM      3  C   UNL     1       1.148   9.604  18.392  0.00  0.00    +0.000 A 
ATOM      4  C   UNL     1       0.845   9.659  19.758  0.00  0.00    +0.000 A 
ATOM      5  C   UNL     1       0.081  10.747  20.397  0.00  0.00    +0.000 A 
ATOM      6  C   UNL     1      -0.504  11.861  19.567  0.00  0.00    +0.000 C 
ATOM      7  C   UNL     1      -0.073  10.711  21.736  0.00  0.00    +0.000 A 
ATOM      8 CL   UNL     1      -0.917  11.971  22.588  0.00  0.00    +0.000 Cl
ATOM      9  C   UNL     1       0.462   9.619  22.593  0.00  0.00    +0.000 A 
ATOM     10  O   UNL     1       0.344   9.607  23.814  0.00  0.00    +0.000 OA
ATOM     11  O   UNL     1       1.104   8.581  21.935  0.00  0.00    +0.000 OA
ATOM     12  C   UNL     1       1.321   8.611  20.547  0.00  0.00    +0.000 A 
ATOM     13  C   UNL     1       2.055   7.543  20.022  0.00  0.00    +0.000 A 
ENDROOT
BRANCH   1  14
ATOM     14  O   UNL     1       3.089   6.439  18.245  0.00  0.00    +0.000 OA
BRANCH  14  15
ATOM     15  C   UNL     1       3.342   5.426  19.221  0.00  0.00    +0.000 C 
BRANCH  15  19
ATOM     16  C   UNL     1       4.729   1.941  20.579  0.00  0.00    +0.000 C 
ATOM     17  C   UNL     1       3.643   2.508  20.045  0.00  0.00    +0.000 C 
ATOM     18  C   UNL     1       3.414   2.939  18.644  0.00  0.00    +0.000 C 
ATOM     19  C   UNL     1       2.529   4.154  18.894  0.00  0.00    +0.000 C 
ATOM     20  C   UNL     1       1.580   4.413  17.726  0.00  0.00    +0.000 C 
ATOM     21  O   UNL     1       1.749   3.798  20.055  0.00  0.00    +0.000 OA
ATOM     22  C   UNL     1       2.468   2.939  20.838  0.00  0.00    +0.000 C 
ATOM     23  O   UNL     1       2.192   2.604  21.971  0.00  0.00    +0.000 OA
ENDBRANCH  15  19
ENDBRANCH  14  15
ENDBRANCH   1  14
TORSDOF 3
ENDMDL
MODEL 6
REMARK VINA RESULT:      -8.2      2.392      3.895
REMARK  Name = 
REMARK  5 active torsions:
REMARK  status: ('A' for Active; 'I' for Inactive)
REMARK    1  A    between atoms: C_4  and  C_5
REMARK    2  A    between atoms: C_4  and  C_6
REMARK    3  A    between atoms: C_6  and  O_7
REMARK    4  A    between atoms: O_7  and  C_8
REMARK    5  A    between atoms: C_12  and  C_13
REMARK                            x       y       z     vdW  Elec       q    Type
REMARK                         _______ _______ _______ _____ _____    ______ ____
ROOT
ATOM      1  C   UNL     1       2.552   7.079  18.831  0.00  0.00    +0.000 A 
ATOM      2  C   UNL     1       2.181   6.738  20.130  0.00  0.00    +0.000 A 
ATOM      3  C   UNL     1       1.404   7.609  20.904  0.00  0.00    +0.000 A 
ATOM      4  C   UNL     1       0.973   8.844  20.403  0.00  0.00    +0.000 A 
ATOM      5  C   UNL     1       0.144   9.804  21.157  0.00  0.00    +0.000 A 
ATOM      6  C   UNL     1      -0.233   9.528  22.591  0.00  0.00    +0.000 C 
ATOM      7  C   UNL     1      -0.262  10.923  20.525  0.00  0.00    +0.000 A 
ATOM      8 CL   UNL     1      -1.281  12.093  21.311  0.00  0.00    +0.000 Cl
ATOM      9  C   UNL     1       0.107  11.250  19.121  0.00  0.00    +0.000 A 
ATOM     10  O   UNL     1      -0.290  12.256  18.542  0.00  0.00    +0.000 OA
ATOM     11  O   UNL     1       0.952  10.355  18.484  0.00  0.00    +0.000 OA
ATOM     12  C   UNL     1       1.355   9.157  19.098  0.00  0.00    +0.000 A 
ATOM     13  C   UNL     1       2.138   8.303  18.315  0.00  0.00    +0.000 A 
ENDROOT
BRANCH   1  14
ATOM     14  O   UNL     1       3.294   6.304  17.984  0.00  0.00    +0.000 OA
BRANCH  14  15
ATOM     15  C   UNL     1       4.622   5.992  18.409  0.00  0.00    +0.000 C 
BRANCH  15  19
ATOM     16  C   UNL     1       5.684   4.759  14.768  0.00  0.00    +0.000 C 
ATOM     17  C   UNL     1       5.639   4.364  16.044  0.00  0.00    +0.000 C 
ATOM     18  C   UNL     1       4.458   3.974  16.853  0.00  0.00    +0.000 C 
ATOM     19  C   UNL     1       4.906   4.486  18.216  0.00  0.00    +0.000 C 
ATOM     20  C   UNL     1       4.290   3.677  19.356  0.00  0.00    +0.000 C 
ATOM     21  O   UNL     1       6.335   4.285  18.225  0.00  0.00    +0.000 OA
ATOM     22  C   UNL     1       6.813   4.371  16.948  0.00  0.00    +0.000 C 
ATOM     23  O   UNL     1       7.980   4.448  16.624  0.00  0.00    +0.000 OA
ENDBRANCH  15  19
ENDBRANCH  14  15
ENDBRANCH   1  14
TORSDOF 3
ENDMDL
MODEL 7
REMARK VINA RESULT:      -8.1      3.056      4.868
REMARK  Name = 
REMARK  5 active torsions:
REMARK  status: ('A' for Active; 'I' for Inactive)
REMARK    1  A    between atoms: C_4  and  C_5
REMARK    2  A    between atoms: C_4  and  C_6
REMARK    3  A    between atoms: C_6  and  O_7
REMARK    4  A    between atoms: O_7  and  C_8
REMARK    5  A    between atoms: C_12  and  C_13
REMARK                            x       y       z     vdW  Elec       q    Type
REMARK                         _______ _______ _______ _____ _____    ______ ____
ROOT
ATOM      1  C   UNL     1       3.574   6.239  17.773  0.00  0.00    +0.000 A 
ATOM      2  C   UNL     1       3.156   5.706  18.990  0.00  0.00    +0.000 A 
ATOM      3  C   UNL     1       2.388   6.469  19.880  0.00  0.00    +0.000 A 
ATOM      4  C   UNL     1       2.015   7.785  19.578  0.00  0.00    +0.000 A 
ATOM      5  C   UNL     1       1.199   8.641  20.460  0.00  0.00    +0.000 A 
ATOM      6  C   UNL     1       0.773   8.151  21.821  0.00  0.00    +0.000 C 
ATOM      7  C   UNL     1       0.851   9.863  20.011  0.00  0.00    +0.000 A 
ATOM      8 CL   UNL     1      -0.148  10.928  20.956  0.00  0.00    +0.000 Cl
ATOM      9  C   UNL     1       1.269  10.399  18.688  0.00  0.00    +0.000 A 
ATOM     10  O   UNL     1       0.924  11.500  18.273  0.00  0.00    +0.000 OA
ATOM     11  O   UNL     1       2.100   9.587  17.931  0.00  0.00    +0.000 OA
ATOM     12  C   UNL     1       2.443   8.291  18.351  0.00  0.00    +0.000 A 
ATOM     13  C   UNL     1       3.217   7.546  17.455  0.00  0.00    +0.000 A 
ENDROOT
BRANCH   1  14
ATOM     14  O   UNL     1       4.311   5.583  16.827  0.00  0.00    +0.000 OA
BRANCH  14  15
ATOM     15  C   UNL     1       5.581   6.154  16.505  0.00  0.00    +0.000 C 
BRANCH  15  19
ATOM     16  C   UNL     1       5.400   3.835  13.265  0.00  0.00    +0.000 C 
ATOM     17  C   UNL     1       6.200   4.164  14.284  0.00  0.00    +0.000 C 
ATOM     18  C   UNL     1       6.090   3.780  15.713  0.00  0.00    +0.000 C 
ATOM     19  C   UNL     1       6.645   5.044  16.357  0.00  0.00    +0.000 C 
ATOM     20  C   UNL     1       7.301   4.751  17.705  0.00  0.00    +0.000 C 
ATOM     21  O   UNL     1       7.659   5.501  15.438  0.00  0.00    +0.000 OA
ATOM     22  C   UNL     1       7.324   5.123  14.168  0.00  0.00    +0.000 C 
ATOM     23  O   UNL     1       7.848   5.510  13.145  0.00  0.00    +0.000 OA
ENDBRANCH  15  19
ENDBRANCH  14  15
ENDBRANCH   1  14
TORSDOF 3
ENDMDL
MODEL 8
REMARK VINA RESULT:      -8.1      1.822      3.056
REMARK  Name = 
REMARK  5 active torsions:
REMARK  status: ('A' for Active; 'I' for Inactive)
REMARK    1  A    between atoms: C_4  and  C_5
REMARK    2  A    between atoms: C_4  and  C_6
REMARK    3  A    between atoms: C_6  and  O_7
REMARK    4  A    between atoms: O_7  and  C_8
REMARK    5  A    between atoms: C_12  and  C_13
REMARK                            x       y       z     vdW  Elec       q    Type
REMARK                         _______ _______ _______ _____ _____    ______ ____
ROOT
ATOM      1  C   UNL     1       2.463   6.851  19.195  0.00  0.00    +0.000 A 
ATOM      2  C   UNL     1       2.319   7.796  18.182  0.00  0.00    +0.000 A 
ATOM      3  C   UNL     1       1.693   9.024  18.433  0.00  0.00    +0.000 A 
ATOM      4  C   UNL     1       1.195   9.344  19.702  0.00  0.00    +0.000 A 
ATOM      5  C   UNL     1       0.536  10.620  20.039  0.00  0.00    +0.000 A 
ATOM      6  C   UNL     1       0.285  11.657  18.974  0.00  0.00    +0.000 C 
ATOM      7  C   UNL     1       0.172  10.825  21.321  0.00  0.00    +0.000 A 
ATOM      8 CL   UNL     1      -0.568  12.315  21.828  0.00  0.00    +0.000 Cl
ATOM      9  C   UNL     1       0.375   9.822  22.400  0.00  0.00    +0.000 A 
ATOM     10  O   UNL     1       0.067  10.026  23.570  0.00  0.00    +0.000 OA
ATOM     11  O   UNL     1       0.924   8.609  22.016  0.00  0.00    +0.000 OA
ATOM     12  C   UNL     1       1.357   8.381  20.698  0.00  0.00    +0.000 A 
ATOM     13  C   UNL     1       1.972   7.147  20.463  0.00  0.00    +0.000 A 
ENDROOT
BRANCH   1  14
ATOM     14  O   UNL     1       3.066   5.631  19.068  0.00  0.00    +0.000 OA
BRANCH  14  15
ATOM     15  C   UNL     1       3.402   5.225  17.740  0.00  0.00    +0.000 C 
BRANCH  15  19
ATOM     16  C   UNL     1       7.179   6.296  17.033  0.00  0.00    +0.000 C 
ATOM     17  C   UNL     1       6.439   5.286  17.498  0.00  0.00    +0.000 C 
ATOM     18  C   UNL     1       5.581   4.339  16.744  0.00  0.00    +0.000 C 
ATOM     19  C   UNL     1       4.480   4.119  17.774  0.00  0.00    +0.000 C 
ATOM     20  C   UNL     1       3.835   2.742  17.629  0.00  0.00    +0.000 C 
ATOM     21  O   UNL     1       5.159   4.182  19.046  0.00  0.00    +0.000 OA
ATOM     22  C   UNL     1       6.244   5.007  18.940  0.00  0.00    +0.000 C 
ATOM     23  O   UNL     1       6.910   5.433  19.861  0.00  0.00    +0.000 OA
ENDBRANCH  15  19
ENDBRANCH  14  15
ENDBRANCH   1  14
TORSDOF 3
ENDMDL
MODEL 9
REMARK VINA RESULT:      -8.0      2.658      4.136
REMARK  Name = 
REMARK  5 active torsions:
REMARK  status: ('A' for Active; 'I' for Inactive)
REMARK    1  A    between atoms: C_4  and  C_5
REMARK    2  A    between atoms: C_4  and  C_6
REMARK    3  A    between atoms: C_6  and  O_7
REMARK    4  A    between atoms: O_7  and  C_8
REMARK    5  A    between atoms: C_12  and  C_13
REMARK                            x       y       z     vdW  Elec       q    Type
REMARK                         _______ _______ _______ _____ _____    ______ ____
ROOT
ATOM      1  C   UNL     1       2.718   6.521  18.683  0.00  0.00    +0.000 A 
ATOM      2  C   UNL     1       2.282   6.183  19.962  0.00  0.00    +0.000 A 
ATOM      3  C   UNL     1       1.619   7.123  20.763  0.00  0.00    +0.000 A 
ATOM      4  C   UNL     1       1.371   8.424  20.308  0.00  0.00    +0.000 A 
ATOM      5  C   UNL     1       0.669   9.459  21.091  0.00  0.00    +0.000 A 
ATOM      6  C   UNL     1       0.233   9.182  22.508  0.00  0.00    +0.000 C 
ATOM      7  C   UNL     1       0.433  10.647  20.500  0.00  0.00    +0.000 A 
ATOM      8 CL   UNL     1      -0.429  11.915  21.323  0.00  0.00    +0.000 Cl
ATOM      9  C   UNL     1       0.867  10.975  19.116  0.00  0.00    +0.000 A 
ATOM     10  O   UNL     1       0.623  12.048  18.574  0.00  0.00    +0.000 OA
ATOM     11  O   UNL     1       1.592   9.997  18.452  0.00  0.00    +0.000 OA
ATOM     12  C   UNL     1       1.815   8.732  19.022  0.00  0.00    +0.000 A 
ATOM     13  C   UNL     1       2.486   7.809  18.213  0.00  0.00    +0.000 A 
ENDROOT
BRANCH   1  14
ATOM     14  O   UNL     1       3.361   5.684  17.813  0.00  0.00    +0.000 OA
BRANCH  14  15
ATOM     15  C   UNL     1       4.418   6.261  17.043  0.00  0.00    +0.000 C 
BRANCH  15  19
ATOM     16  C   UNL     1       8.040   7.523  18.139  0.00  0.00    +0.000 C 
ATOM     17  C   UNL     1       7.355   6.415  17.836  0.00  0.00    +0.000 C 
ATOM     18  C   UNL     1       6.894   5.942  16.508  0.00  0.00    +0.000 C 
ATOM     19  C   UNL     1       5.593   5.265  16.918  0.00  0.00    +0.000 C 
ATOM     20  C   UNL     1       5.226   4.124  15.972  0.00  0.00    +0.000 C 
ATOM     21  O   UNL     1       5.868   4.716  18.223  0.00  0.00    +0.000 OA
ATOM     22  C   UNL     1       6.804   5.488  18.852  0.00  0.00    +0.000 C 
ATOM     23  O   UNL     1       7.113   5.425  20.024  0.00  0.00    +0.000 OA
ENDBRANCH  15  19
ENDBRANCH  14  15
ENDBRANCH   1  14
TORSDOF 3
ENDMDL
