MODEL 1
REMARK VINA RESULT:      -8.1      0.000      0.000
REMARK  Name = 
REMARK  1 active torsions:
REMARK  status: ('A' for Active; 'I' for Inactive)
REMARK    1  A    between atoms: C_7  and  C_8
REMARK                            x       y       z     vdW  Elec       q    Type
REMARK                         _______ _______ _______ _____ _____    ______ ____
ROOT
ATOM      1  N   UNL     1       8.077   8.225  17.328  0.00  0.00    +0.000 NA
ATOM      2  C   UNL     1       7.254   7.269  17.519  0.00  0.00    +0.000 C 
ATOM      3  N   UNL     1       7.390   6.372  18.520  0.00  0.00    +0.000 N 
ATOM      4  C   UNL     1       6.369   5.449  18.491  0.00  0.00    +0.000 C 
ATOM      5  O   UNL     1       6.251   4.490  19.229  0.00  0.00    +0.000 OA
ATOM      6  C   UNL     1       5.488   5.886  17.337  0.00  0.00    +0.000 C 
ATOM      7  C   UNL     1       4.330   5.324  16.961  0.00  0.00    +0.000 C 
ATOM      8  N   UNL     1       6.139   6.970  16.812  0.00  0.00    +0.000 N 
ATOM      9  H   UNL     1       8.820   8.194  18.032  0.00  0.00    +0.000 HD
ATOM     10  H   UNL     1       8.129   6.326  19.199  0.00  0.00    +0.000 HD
ATOM     11  H   UNL     1       5.799   7.522  16.042  0.00  0.00    +0.000 HD
ENDROOT
BRANCH   7  12
ATOM     12  C   UNL     1       3.706   4.214  17.594  0.00  0.00    +0.000 A 
ATOM     13  C   UNL     1       3.905   2.913  17.192  0.00  0.00    +0.000 A 
ATOM     14  N   UNL     1       3.241   2.104  18.072  0.00  0.00    +0.000 N 
ATOM     15  C   UNL     1       2.590   2.861  19.021  0.00  0.00    +0.000 A 
ATOM     16  C   UNL     1       1.823   2.444  20.117  0.00  0.00    +0.000 A 
ATOM     17  C   UNL     1       1.265   3.426  20.936  0.00  0.00    +0.000 A 
ATOM     18  C   UNL     1       1.447   4.777  20.654  0.00  0.00    +0.000 A 
ATOM     19  C   UNL     1       2.220   5.180  19.556  0.00  0.00    +0.000 A 
ATOM     20 BR   UNL     1       2.391   7.041  19.229  0.00  0.00    +0.000 Br
ATOM     21  C   UNL     1       2.827   4.210  18.724  0.00  0.00    +0.000 A 
ATOM     22  H   UNL     1       3.243   1.094  18.049  0.00  0.00    +0.000 HD
ENDBRANCH   7  12
TORSDOF 1
ENDMDL
MODEL 2
REMARK VINA RESULT:      -7.8      1.450      1.984
REMARK  Name = 
REMARK  1 active torsions:
REMARK  status: ('A' for Active; 'I' for Inactive)
REMARK    1  A    between atoms: C_7  and  C_8
REMARK                            x       y       z     vdW  Elec       q    Type
REMARK                         _______ _______ _______ _____ _____    ______ ____
ROOT
ATOM      1  N   UNL     1       8.929   9.390  18.560  0.00  0.00    +0.000 NA
ATOM      2  C   UNL     1       8.242   8.356  18.263  0.00  0.00    +0.000 C 
ATOM      3  N   UNL     1       8.353   7.185  18.928  0.00  0.00    +0.000 N 
ATOM      4  C   UNL     1       7.503   6.241  18.398  0.00  0.00    +0.000 C 
ATOM      5  O   UNL     1       7.417   5.080  18.748  0.00  0.00    +0.000 OA
ATOM      6  C   UNL     1       6.761   6.967  17.292  0.00  0.00    +0.000 C 
ATOM      7  C   UNL     1       5.778   6.466  16.530  0.00  0.00    +0.000 C 
ATOM      8  N   UNL     1       7.314   8.220  17.286  0.00  0.00    +0.000 N 
ATOM      9  H   UNL     1       9.545   9.185  19.351  0.00  0.00    +0.000 HD
ATOM     10  H   UNL     1       8.971   6.976  19.691  0.00  0.00    +0.000 HD
ATOM     11  H   UNL     1       7.021   8.970  16.684  0.00  0.00    +0.000 HD
ENDROOT
BRANCH   7  12
ATOM     12  C   UNL     1       5.239   5.155  16.632  0.00  0.00    +0.000 A 
ATOM     13  C   UNL     1       5.859   4.046  16.102  0.00  0.00    +0.000 A 
ATOM     14  N   UNL     1       5.126   2.951  16.468  0.00  0.00    +0.000 N 
ATOM     15  C   UNL     1       4.024   3.334  17.201  0.00  0.00    +0.000 A 
ATOM     16  C   UNL     1       3.032   2.542  17.794  0.00  0.00    +0.000 A 
ATOM     17  C   UNL     1       2.010   3.188  18.491  0.00  0.00    +0.000 A 
ATOM     18  C   UNL     1       1.970   4.577  18.572  0.00  0.00    +0.000 A 
ATOM     19  C   UNL     1       2.972   5.357  17.977  0.00  0.00    +0.000 A 
ATOM     20 BR   UNL     1       2.820   7.244  18.110  0.00  0.00    +0.000 Br
ATOM     21  C   UNL     1       4.040   4.733  17.289  0.00  0.00    +0.000 A 
ATOM     22  H   UNL     1       5.366   1.993  16.254  0.00  0.00    +0.000 HD
ENDBRANCH   7  12
TORSDOF 1
ENDMDL
MODEL 3
REMARK VINA RESULT:      -7.7      2.254      2.722
REMARK  Name = 
REMARK  1 active torsions:
REMARK  status: ('A' for Active; 'I' for Inactive)
REMARK    1  A    between atoms: C_7  and  C_8
REMARK                            x       y       z     vdW  Elec       q    Type
REMARK                         _______ _______ _______ _____ _____    ______ ____
ROOT
ATOM      1  N   UNL     1       7.763   5.139  14.674  0.00  0.00    +0.000 NA
ATOM      2  C   UNL     1       6.929   5.117  15.640  0.00  0.00    +0.000 C 
ATOM      3  N   UNL     1       7.286   4.825  16.910  0.00  0.00    +0.000 N 
ATOM      4  C   UNL     1       6.193   4.867  17.746  0.00  0.00    +0.000 C 
ATOM      5  O   UNL     1       6.188   4.597  18.931  0.00  0.00    +0.000 OA
ATOM      6  C   UNL     1       5.039   5.277  16.851  0.00  0.00    +0.000 C 
ATOM      7  C   UNL     1       3.776   5.510  17.235  0.00  0.00    +0.000 C 
ATOM      8  N   UNL     1       5.599   5.367  15.604  0.00  0.00    +0.000 N 
ATOM      9  H   UNL     1       8.701   4.911  15.015  0.00  0.00    +0.000 HD
ATOM     10  H   UNL     1       8.201   4.581  17.244  0.00  0.00    +0.000 HD
ATOM     11  H   UNL     1       5.105   5.652  14.776  0.00  0.00    +0.000 HD
ENDROOT
BRANCH   7  12
ATOM     12  C   UNL     1       3.289   5.428  18.568  0.00  0.00    +0.000 A 
ATOM     13  C   UNL     1       3.206   6.517  19.406  0.00  0.00    +0.000 A 
ATOM     14  N   UNL     1       2.606   6.103  20.562  0.00  0.00    +0.000 N 
ATOM     15  C   UNL     1       2.324   4.756  20.501  0.00  0.00    +0.000 A 
ATOM     16  C   UNL     1       1.691   3.937  21.444  0.00  0.00    +0.000 A 
ATOM     17  C   UNL     1       1.527   2.587  21.132  0.00  0.00    +0.000 A 
ATOM     18  C   UNL     1       2.000   2.070  19.930  0.00  0.00    +0.000 A 
ATOM     19  C   UNL     1       2.629   2.903  18.992  0.00  0.00    +0.000 A 
ATOM     20 BR   UNL     1       3.271   2.109  17.393  0.00  0.00    +0.000 Br
ATOM     21  C   UNL     1       2.783   4.283  19.264  0.00  0.00    +0.000 A 
ATOM     22  H   UNL     1       2.377   6.700  21.345  0.00  0.00    +0.000 HD
ENDBRANCH   7  12
TORSDOF 1
ENDMDL
MODEL 4
REMARK VINA RESULT:      -7.5      1.708      1.938
REMARK  Name = 
REMARK  1 active torsions:
REMARK  status: ('A' for Active; 'I' for Inactive)
REMARK    1  A    between atoms: C_7  and  C_8
REMARK                            x       y       z     vdW  Elec       q    Type
REMARK                         _______ _______ _______ _____ _____    ______ ____
ROOT
ATOM      1  N   UNL     1       7.847   5.538  14.521  0.00  0.00    +0.000 NA
ATOM      2  C   UNL     1       7.002   5.052  15.343  0.00  0.00    +0.000 C 
ATOM      3  N   UNL     1       7.262   4.901  16.661  0.00  0.00    +0.000 N 
ATOM      4  C   UNL     1       6.182   4.350  17.312  0.00  0.00    +0.000 C 
ATOM      5  O   UNL     1       6.135   4.046  18.488  0.00  0.00    +0.000 OA
ATOM      6  C   UNL     1       5.125   4.189  16.236  0.00  0.00    +0.000 C 
ATOM      7  C   UNL     1       3.871   3.746  16.411  0.00  0.00    +0.000 C 
ATOM      8  N   UNL     1       5.745   4.615  15.092  0.00  0.00    +0.000 N 
ATOM      9  H   UNL     1       8.712   5.783  15.011  0.00  0.00    +0.000 HD
ATOM     10  H   UNL     1       8.117   5.121  17.141  0.00  0.00    +0.000 HD
ATOM     11  H   UNL     1       5.304   4.666  14.190  0.00  0.00    +0.000 HD
ENDROOT
BRANCH   7  12
ATOM     12  C   UNL     1       3.297   3.358  17.652  0.00  0.00    +0.000 A 
ATOM     13  C   UNL     1       3.152   2.043  18.032  0.00  0.00    +0.000 A 
ATOM     14  N   UNL     1       2.664   2.035  19.309  0.00  0.00    +0.000 N 
ATOM     15  C   UNL     1       2.461   3.323  19.753  0.00  0.00    +0.000 A 
ATOM     16  C   UNL     1       2.005   3.772  21.000  0.00  0.00    +0.000 A 
ATOM     17  C   UNL     1       1.886   5.148  21.195  0.00  0.00    +0.000 A 
ATOM     18  C   UNL     1       2.191   6.042  20.173  0.00  0.00    +0.000 A 
ATOM     19  C   UNL     1       2.650   5.579  18.931  0.00  0.00    +0.000 A 
ATOM     20 BR   UNL     1       3.012   6.867  17.586  0.00  0.00    +0.000 Br
ATOM     21  C   UNL     1       2.812   4.191  18.710  0.00  0.00    +0.000 A 
ATOM     22  H   UNL     1       2.496   1.206  19.863  0.00  0.00    +0.000 HD
ENDBRANCH   7  12
TORSDOF 1
ENDMDL
MODEL 5
REMARK VINA RESULT:      -7.0      2.577      3.131
REMARK  Name = 
REMARK  1 active torsions:
REMARK  status: ('A' for Active; 'I' for Inactive)
REMARK    1  A    between atoms: C_7  and  C_8
REMARK                            x       y       z     vdW  Elec       q    Type
REMARK                         _______ _______ _______ _____ _____    ______ ____
ROOT
ATOM      1  N   UNL     1       7.774   5.154  14.166  0.00  0.00    +0.000 NA
ATOM      2  C   UNL     1       6.964   5.216  15.151  0.00  0.00    +0.000 C 
ATOM      3  N   UNL     1       5.909   6.059  15.183  0.00  0.00    +0.000 N 
ATOM      4  C   UNL     1       5.209   5.921  16.360  0.00  0.00    +0.000 C 
ATOM      5  O   UNL     1       4.247   6.581  16.701  0.00  0.00    +0.000 OA
ATOM      6  C   UNL     1       5.928   4.816  17.109  0.00  0.00    +0.000 C 
ATOM      7  C   UNL     1       5.569   4.287  18.287  0.00  0.00    +0.000 C 
ATOM      8  N   UNL     1       6.983   4.494  16.297  0.00  0.00    +0.000 N 
ATOM      9  H   UNL     1       7.495   5.822  13.442  0.00  0.00    +0.000 HD
ATOM     10  H   UNL     1       5.646   6.730  14.483  0.00  0.00    +0.000 HD
ATOM     11  H   UNL     1       7.649   3.765  16.489  0.00  0.00    +0.000 HD
ENDROOT
BRANCH   7  12
ATOM     12  C   UNL     1       4.428   4.662  19.048  0.00  0.00    +0.000 A 
ATOM     13  C   UNL     1       4.290   5.900  19.633  0.00  0.00    +0.000 A 
ATOM     14  N   UNL     1       3.044   5.954  20.194  0.00  0.00    +0.000 N 
ATOM     15  C   UNL     1       2.382   4.760  20.008  0.00  0.00    +0.000 A 
ATOM     16  C   UNL     1       1.085   4.394  20.391  0.00  0.00    +0.000 A 
ATOM     17  C   UNL     1       0.650   3.105  20.078  0.00  0.00    +0.000 A 
ATOM     18  C   UNL     1       1.492   2.208  19.428  0.00  0.00    +0.000 A 
ATOM     19  C   UNL     1       2.787   2.588  19.047  0.00  0.00    +0.000 A 
ATOM     20 BR   UNL     1       3.875   1.291  18.192  0.00  0.00    +0.000 Br
ATOM     21  C   UNL     1       3.248   3.898  19.321  0.00  0.00    +0.000 A 
ATOM     22  H   UNL     1       2.650   6.760  20.659  0.00  0.00    +0.000 HD
ENDBRANCH   7  12
TORSDOF 1
ENDMDL
MODEL 6
REMARK VINA RESULT:      -6.8      2.056      2.460
REMARK  Name = 
REMARK  1 active torsions:
REMARK  status: ('A' for Active; 'I' for Inactive)
REMARK    1  A    between atoms: C_7  and  C_8
REMARK                            x       y       z     vdW  Elec       q    Type
REMARK                         _______ _______ _______ _____ _____    ______ ____
ROOT
ATOM      1  N   UNL     1       7.761   5.422  14.322  0.00  0.00    +0.000 NA
ATOM      2  C   UNL     1       6.988   5.034  15.261  0.00  0.00    +0.000 C 
ATOM      3  N   UNL     1       5.855   4.333  15.037  0.00  0.00    +0.000 N 
ATOM      4  C   UNL     1       5.214   4.050  16.222  0.00  0.00    +0.000 C 
ATOM      5  O   UNL     1       4.146   3.482  16.338  0.00  0.00    +0.000 OA
ATOM      6  C   UNL     1       6.113   4.633  17.295  0.00  0.00    +0.000 C 
ATOM      7  C   UNL     1       5.930   4.548  18.621  0.00  0.00    +0.000 C 
ATOM      8  N   UNL     1       7.129   5.225  16.594  0.00  0.00    +0.000 N 
ATOM      9  H   UNL     1       7.389   5.122  13.417  0.00  0.00    +0.000 HD
ATOM     10  H   UNL     1       5.478   4.055  14.149  0.00  0.00    +0.000 HD
ATOM     11  H   UNL     1       7.920   5.683  17.013  0.00  0.00    +0.000 HD
ENDROOT
BRANCH   7  12
ATOM     12  C   UNL     1       4.855   3.876  19.266  0.00  0.00    +0.000 A 
ATOM     13  C   UNL     1       4.964   2.600  19.771  0.00  0.00    +0.000 A 
ATOM     14  N   UNL     1       3.788   2.307  20.405  0.00  0.00    +0.000 N 
ATOM     15  C   UNL     1       2.908   3.361  20.294  0.00  0.00    +0.000 A 
ATOM     16  C   UNL     1       1.615   3.497  20.817  0.00  0.00    +0.000 A 
ATOM     17  C   UNL     1       0.926   4.682  20.554  0.00  0.00    +0.000 A 
ATOM     18  C   UNL     1       1.501   5.684  19.778  0.00  0.00    +0.000 A 
ATOM     19  C   UNL     1       2.798   5.536  19.265  0.00  0.00    +0.000 A 
ATOM     20 BR   UNL     1       3.491   6.939  18.192  0.00  0.00    +0.000 Br
ATOM     21  C   UNL     1       3.536   4.360  19.539  0.00  0.00    +0.000 A 
ATOM     22  H   UNL     1       3.596   1.451  20.906  0.00  0.00    +0.000 HD
ENDBRANCH   7  12
TORSDOF 1
ENDMDL
MODEL 7
REMARK VINA RESULT:      -6.7      1.834      2.447
REMARK  Name = 
REMARK  1 active torsions:
REMARK  status: ('A' for Active; 'I' for Inactive)
REMARK    1  A    between atoms: C_7  and  C_8
REMARK                            x       y       z     vdW  Elec       q    Type
REMARK                         _______ _______ _______ _____ _____    ______ ____
ROOT
ATOM      1  N   UNL     1       8.185   7.372  16.679  0.00  0.00    +0.000 NA
ATOM      2  C   UNL     1       7.139   6.943  17.272  0.00  0.00    +0.000 C 
ATOM      3  N   UNL     1       7.186   6.187  18.391  0.00  0.00    +0.000 N 
ATOM      4  C   UNL     1       5.918   5.861  18.814  0.00  0.00    +0.000 C 
ATOM      5  O   UNL     1       5.641   5.147  19.757  0.00  0.00    +0.000 OA
ATOM      6  C   UNL     1       4.994   6.553  17.830  0.00  0.00    +0.000 C 
ATOM      7  C   UNL     1       3.654   6.575  17.876  0.00  0.00    +0.000 C 
ATOM      8  N   UNL     1       5.843   7.144  16.933  0.00  0.00    +0.000 N 
ATOM      9  H   UNL     1       9.022   7.058  17.178  0.00  0.00    +0.000 HD
ATOM     10  H   UNL     1       8.007   5.861  18.869  0.00  0.00    +0.000 HD
ATOM     11  H   UNL     1       5.549   7.716  16.160  0.00  0.00    +0.000 HD
ENDROOT
BRANCH   7  12
ATOM     12  C   UNL     1       2.850   5.958  18.873  0.00  0.00    +0.000 A 
ATOM     13  C   UNL     1       2.309   6.649  19.933  0.00  0.00    +0.000 A 
ATOM     14  N   UNL     1       1.519   5.779  20.632  0.00  0.00    +0.000 N 
ATOM     15  C   UNL     1       1.561   4.527  20.059  0.00  0.00    +0.000 A 
ATOM     16  C   UNL     1       0.885   3.357  20.430  0.00  0.00    +0.000 A 
ATOM     17  C   UNL     1       1.107   2.207  19.672  0.00  0.00    +0.000 A 
ATOM     18  C   UNL     1       1.992   2.220  18.597  0.00  0.00    +0.000 A 
ATOM     19  C   UNL     1       2.659   3.400  18.235  0.00  0.00    +0.000 A 
ATOM     20 BR   UNL     1       3.869   3.320  16.776  0.00  0.00    +0.000 Br
ATOM     21  C   UNL     1       2.432   4.592  18.963  0.00  0.00    +0.000 A 
ATOM     22  H   UNL     1       0.962   6.020  21.440  0.00  0.00    +0.000 HD
ENDBRANCH   7  12
TORSDOF 1
ENDMDL
MODEL 8
REMARK VINA RESULT:      -6.5      3.319      5.332
REMARK  Name = 
REMARK  1 active torsions:
REMARK  status: ('A' for Active; 'I' for Inactive)
REMARK    1  A    between atoms: C_7  and  C_8
REMARK                            x       y       z     vdW  Elec       q    Type
REMARK                         _______ _______ _______ _____ _____    ______ ____
ROOT
ATOM      1  N   UNL     1       4.186   0.452  18.140  0.00  0.00    +0.000 NA
ATOM      2  C   UNL     1       3.719   1.607  18.417  0.00  0.00    +0.000 C 
ATOM      3  N   UNL     1       2.457   1.981  18.110  0.00  0.00    +0.000 N 
ATOM      4  C   UNL     1       2.219   3.274  18.515  0.00  0.00    +0.000 C 
ATOM      5  O   UNL     1       1.197   3.905  18.329  0.00  0.00    +0.000 OA
ATOM      6  C   UNL     1       3.506   3.710  19.188  0.00  0.00    +0.000 C 
ATOM      7  C   UNL     1       3.729   4.883  19.799  0.00  0.00    +0.000 C 
ATOM      8  N   UNL     1       4.342   2.636  19.038  0.00  0.00    +0.000 N 
ATOM      9  H   UNL     1       3.472  -0.112  17.671  0.00  0.00    +0.000 HD
ATOM     10  H   UNL     1       1.761   1.437  17.631  0.00  0.00    +0.000 HD
ATOM     11  H   UNL     1       5.277   2.585  19.405  0.00  0.00    +0.000 HD
ENDROOT
BRANCH   7  12
ATOM     12  C   UNL     1       2.783   5.935  19.940  0.00  0.00    +0.000 A 
ATOM     13  C   UNL     1       1.879   5.997  20.976  0.00  0.00    +0.000 A 
ATOM     14  N   UNL     1       1.199   7.177  20.859  0.00  0.00    +0.000 N 
ATOM     15  C   UNL     1       1.626   7.869  19.747  0.00  0.00    +0.000 A 
ATOM     16  C   UNL     1       1.224   9.124  19.273  0.00  0.00    +0.000 A 
ATOM     17  C   UNL     1       1.821   9.604  18.106  0.00  0.00    +0.000 A 
ATOM     18  C   UNL     1       2.770   8.845  17.427  0.00  0.00    +0.000 A 
ATOM     19  C   UNL     1       3.166   7.591  17.916  0.00  0.00    +0.000 A 
ATOM     20 BR   UNL     1       4.442   6.612  16.909  0.00  0.00    +0.000 Br
ATOM     21  C   UNL     1       2.603   7.089  19.113  0.00  0.00    +0.000 A 
ATOM     22  H   UNL     1       0.499   7.512  21.507  0.00  0.00    +0.000 HD
ENDBRANCH   7  12
TORSDOF 1
ENDMDL
MODEL 9
REMARK VINA RESULT:      -6.2      2.570      5.720
REMARK  Name = 
REMARK  1 active torsions:
REMARK  status: ('A' for Active; 'I' for Inactive)
REMARK    1  A    between atoms: C_7  and  C_8
REMARK                            x       y       z     vdW  Elec       q    Type
REMARK                         _______ _______ _______ _____ _____    ______ ____
ROOT
ATOM      1  N   UNL     1       0.812   2.104  22.510  0.00  0.00    +0.000 NA
ATOM      2  C   UNL     1       1.352   2.898  21.669  0.00  0.00    +0.000 C 
ATOM      3  N   UNL     1       2.653   3.259  21.730  0.00  0.00    +0.000 N 
ATOM      4  C   UNL     1       2.968   4.125  20.708  0.00  0.00    +0.000 C 
ATOM      5  O   UNL     1       4.043   4.663  20.533  0.00  0.00    +0.000 OA
ATOM      6  C   UNL     1       1.684   4.264  19.911  0.00  0.00    +0.000 C 
ATOM      7  C   UNL     1       1.521   4.963  18.779  0.00  0.00    +0.000 C 
ATOM      8  N   UNL     1       0.778   3.506  20.604  0.00  0.00    +0.000 N 
ATOM      9  H   UNL     1       1.505   1.803  23.202  0.00  0.00    +0.000 HD
ATOM     10  H   UNL     1       3.329   2.982  22.419  0.00  0.00    +0.000 HD
ATOM     11  H   UNL     1      -0.176   3.359  20.322  0.00  0.00    +0.000 HD
ENDROOT
BRANCH   7  12
ATOM     12  C   UNL     1       2.536   5.696  18.106  0.00  0.00    +0.000 A 
ATOM     13  C   UNL     1       2.601   7.070  18.116  0.00  0.00    +0.000 A 
ATOM     14  N   UNL     1       3.745   7.434  17.463  0.00  0.00    +0.000 N 
ATOM     15  C   UNL     1       4.409   6.318  17.002  0.00  0.00    +0.000 A 
ATOM     16  C   UNL     1       5.626   6.230  16.313  0.00  0.00    +0.000 A 
ATOM     17  C   UNL     1       6.084   4.961  15.955  0.00  0.00    +0.000 A 
ATOM     18  C   UNL     1       5.339   3.824  16.256  0.00  0.00    +0.000 A 
ATOM     19  C   UNL     1       4.125   3.927  16.950  0.00  0.00    +0.000 A 
ATOM     20 BR   UNL     1       3.162   2.328  17.290  0.00  0.00    +0.000 Br
ATOM     21  C   UNL     1       3.648   5.196  17.355  0.00  0.00    +0.000 A 
ATOM     22  H   UNL     1       4.075   8.383  17.351  0.00  0.00    +0.000 HD
ENDBRANCH   7  12
TORSDOF 1
ENDMDL
