MODEL 1
REMARK VINA RESULT:      -9.1      0.000      0.000
REMARK  Name = 
REMARK  10 active torsions:
REMARK  status: ('A' for Active; 'I' for Inactive)
REMARK    1  A    between atoms: C_1  and  C_2
REMARK    2  A    between atoms: N_4  and  C_5
REMARK    3  A    between atoms: C_6  and  C_7
REMARK    4  A    between atoms: C_8  and  N_9
REMARK    5  A    between atoms: N_9  and  S_10
REMARK    6  A    between atoms: S_10  and  C_13
REMARK    7  A    between atoms: C_16  and  C_17
REMARK    8  A    between atoms: C_21  and  C_22
REMARK    9  A    between atoms: C_22  and  N_23
REMARK   10  A    between atoms: N_26  and  C_27
REMARK                            x       y       z     vdW  Elec       q    Type
REMARK                         _______ _______ _______ _____ _____    ______ ____
ROOT
ATOM      1  C   UNL     1       1.246   9.303  19.742  0.00  0.00    +0.000 A 
ATOM      2  C   UNL     1       1.643   8.126  20.374  0.00  0.00    +0.000 A 
ATOM      3  C   UNL     1       2.396   7.185  19.667  0.00  0.00    +0.000 A 
ATOM      4  C   UNL     1       2.750   7.384  18.320  0.00  0.00    +0.000 A 
ATOM      5  C   UNL     1       2.339   8.588  17.713  0.00  0.00    +0.000 A 
ATOM      6  C   UNL     1       1.597   9.545  18.415  0.00  0.00    +0.000 A 
ENDROOT
BRANCH   4   7
ATOM      7  C   UNL     1       3.534   6.366  17.583  0.00  0.00    +0.000 A 
ATOM      8  C   UNL     1       4.611   6.721  16.751  0.00  0.00    +0.000 A 
ATOM      9  C   UNL     1       5.333   5.758  16.038  0.00  0.00    +0.000 A 
ATOM     10  C   UNL     1       4.999   4.411  16.147  0.00  0.00    +0.000 A 
ATOM     11  C   UNL     1       3.932   4.020  16.958  0.00  0.00    +0.000 A 
ATOM     12  C   UNL     1       3.218   5.001  17.671  0.00  0.00    +0.000 A 
BRANCH  11  13
ATOM     13  C   UNL     1       3.545   2.564  17.098  0.00  0.00    +0.000 C 
BRANCH  13  14
ATOM     14  N   UNL     1       3.201   2.166  18.468  0.00  0.00    +0.000 NA
ATOM     15  C   UNL     1       1.838   2.625  18.808  0.00  0.00    +0.000 C 
ATOM     16  C   UNL     1       1.432   2.229  20.248  0.00  0.00    +0.000 C 
ATOM     17  N   UNL     1       2.372   2.654  21.305  0.00  0.00    +0.000 NA
ATOM     18  C   UNL     1       2.280   4.085  21.576  0.00  0.00    +0.000 C 
ATOM     19  C   UNL     1       3.742   2.267  20.912  0.00  0.00    +0.000 C 
ATOM     20  C   UNL     1       4.147   2.682  19.479  0.00  0.00    +0.000 C 
ENDBRANCH  13  14
ENDBRANCH  11  13
ENDBRANCH   4   7
BRANCH   1  21
ATOM     21  S   UNL     1       0.213  10.459  20.603  0.00  0.00    +0.000 S 
ATOM     22  O   UNL     1       1.086  11.306  21.398  0.00  0.00    +0.000 OA
ATOM     23  O   UNL     1      -0.875   9.734  21.219  0.00  0.00    +0.000 OA
BRANCH  21  24
ATOM     24  N   UNL     1      -0.364  11.427  19.366  0.00  0.00    +0.000 N 
ATOM     25  H   UNL     1       0.327  12.045  18.947  0.00  0.00    +0.000 HD
BRANCH  24  33
ATOM     26  C   UNL     1      -2.442  13.278  20.900  0.00  0.00    +0.000 C 
ATOM     27  C   UNL     1      -2.653  12.369  19.748  0.00  0.00    +0.000 A 
ATOM     28  N   UNL     1      -3.879  12.246  19.231  0.00  0.00    +0.000 NA
ATOM     29  N   UNL     1      -3.727  11.373  18.223  0.00  0.00    +0.000 N 
ATOM     30  C   UNL     1      -4.891  11.014  17.445  0.00  0.00    +0.000 C 
ATOM     31  C   UNL     1      -2.439  10.923  18.070  0.00  0.00    +0.000 A 
ATOM     32  C   UNL     1      -2.028   9.957  17.017  0.00  0.00    +0.000 C 
ATOM     33  C   UNL     1      -1.712  11.564  19.056  0.00  0.00    +0.000 A 
ENDBRANCH  24  33
ENDBRANCH  21  24
ENDBRANCH   1  21
TORSDOF 6
ENDMDL
MODEL 2
REMARK VINA RESULT:      -9.1      0.458      1.505
REMARK  Name = 
REMARK  10 active torsions:
REMARK  status: ('A' for Active; 'I' for Inactive)
REMARK    1  A    between atoms: C_1  and  C_2
REMARK    2  A    between atoms: N_4  and  C_5
REMARK    3  A    between atoms: C_6  and  C_7
REMARK    4  A    between atoms: C_8  and  N_9
REMARK    5  A    between atoms: N_9  and  S_10
REMARK    6  A    between atoms: S_10  and  C_13
REMARK    7  A    between atoms: C_16  and  C_17
REMARK    8  A    between atoms: C_21  and  C_22
REMARK    9  A    between atoms: C_22  and  N_23
REMARK   10  A    between atoms: N_26  and  C_27
REMARK                            x       y       z     vdW  Elec       q    Type
REMARK                         _______ _______ _______ _____ _____    ______ ____
ROOT
ATOM      1  C   UNL     1       1.191   9.484  19.759  0.00  0.00    +0.000 A 
ATOM      2  C   UNL     1       1.560   8.308  20.408  0.00  0.00    +0.000 A 
ATOM      3  C   UNL     1       2.305   7.346  19.720  0.00  0.00    +0.000 A 
ATOM      4  C   UNL     1       2.677   7.524  18.374  0.00  0.00    +0.000 A 
ATOM      5  C   UNL     1       2.293   8.728  17.750  0.00  0.00    +0.000 A 
ATOM      6  C   UNL     1       1.559   9.705  18.433  0.00  0.00    +0.000 A 
ENDROOT
BRANCH   4   7
ATOM      7  C   UNL     1       3.450   6.485  17.656  0.00  0.00    +0.000 A 
ATOM      8  C   UNL     1       4.575   6.807  16.876  0.00  0.00    +0.000 A 
ATOM      9  C   UNL     1       5.289   5.825  16.181  0.00  0.00    +0.000 A 
ATOM     10  C   UNL     1       4.897   4.491  16.256  0.00  0.00    +0.000 A 
ATOM     11  C   UNL     1       3.781   4.133  17.016  0.00  0.00    +0.000 A 
ATOM     12  C   UNL     1       3.077   5.133  17.712  0.00  0.00    +0.000 A 
BRANCH  11  13
ATOM     13  C   UNL     1       3.331   2.692  17.118  0.00  0.00    +0.000 C 
BRANCH  13  14
ATOM     14  N   UNL     1       3.043   2.252  18.489  0.00  0.00    +0.000 NA
ATOM     15  C   UNL     1       1.706   2.721  18.906  0.00  0.00    +0.000 C 
ATOM     16  C   UNL     1       1.359   2.282  20.349  0.00  0.00    +0.000 C 
ATOM     17  N   UNL     1       2.354   2.654  21.375  0.00  0.00    +0.000 NA
ATOM     18  C   UNL     1       2.300   4.076  21.699  0.00  0.00    +0.000 C 
ATOM     19  C   UNL     1       3.697   2.258  20.907  0.00  0.00    +0.000 C 
ATOM     20  C   UNL     1       4.044   2.717  19.471  0.00  0.00    +0.000 C 
ENDBRANCH  13  14
ENDBRANCH  11  13
ENDBRANCH   4   7
BRANCH   1  21
ATOM     21  S   UNL     1       0.168  10.667  20.596  0.00  0.00    +0.000 S 
ATOM     22  O   UNL     1       1.055  11.591  21.284  0.00  0.00    +0.000 OA
ATOM     23  O   UNL     1      -0.862   9.956  21.317  0.00  0.00    +0.000 OA
BRANCH  21  24
ATOM     24  N   UNL     1      -0.503  11.532  19.331  0.00  0.00    +0.000 N 
ATOM     25  H   UNL     1       0.130  12.185  18.874  0.00  0.00    +0.000 HD
BRANCH  24  33
ATOM     26  C   UNL     1      -1.925   9.876  17.022  0.00  0.00    +0.000 C 
ATOM     27  C   UNL     1      -2.504  10.831  17.997  0.00  0.00    +0.000 A 
ATOM     28  N   UNL     1      -3.812  11.097  17.951  0.00  0.00    +0.000 NA
ATOM     29  N   UNL     1      -4.006  11.974  18.949  0.00  0.00    +0.000 N 
ATOM     30  C   UNL     1      -5.344  12.475  19.170  0.00  0.00    +0.000 C 
ATOM     31  C   UNL     1      -2.864  12.287  19.641  0.00  0.00    +0.000 A 
ATOM     32  C   UNL     1      -2.834  13.230  20.790  0.00  0.00    +0.000 C 
ATOM     33  C   UNL     1      -1.862  11.548  19.040  0.00  0.00    +0.000 A 
ENDBRANCH  24  33
ENDBRANCH  21  24
ENDBRANCH   1  21
TORSDOF 6
ENDMDL
MODEL 3
REMARK VINA RESULT:      -9.0      2.767      4.448
REMARK  Name = 
REMARK  10 active torsions:
REMARK  status: ('A' for Active; 'I' for Inactive)
REMARK    1  A    between atoms: C_1  and  C_2
REMARK    2  A    between atoms: N_4  and  C_5
REMARK    3  A    between atoms: C_6  and  C_7
REMARK    4  A    between atoms: C_8  and  N_9
REMARK    5  A    between atoms: N_9  and  S_10
REMARK    6  A    between atoms: S_10  and  C_13
REMARK    7  A    between atoms: C_16  and  C_17
REMARK    8  A    between atoms: C_21  and  C_22
REMARK    9  A    between atoms: C_22  and  N_23
REMARK   10  A    between atoms: N_26  and  C_27
REMARK                            x       y       z     vdW  Elec       q    Type
REMARK                         _______ _______ _______ _____ _____    ______ ____
ROOT
ATOM      1  C   UNL     1      -1.786  12.033  22.445  0.00  0.00    +0.000 A 
ATOM      2  C   UNL     1      -1.222  10.838  22.890  0.00  0.00    +0.000 A 
ATOM      3  C   UNL     1      -0.375  10.120  22.043  0.00  0.00    +0.000 A 
ATOM      4  C   UNL     1      -0.088  10.561  20.737  0.00  0.00    +0.000 A 
ATOM      5  C   UNL     1      -0.669  11.776  20.322  0.00  0.00    +0.000 A 
ATOM      6  C   UNL     1      -1.509  12.512  21.166  0.00  0.00    +0.000 A 
ENDROOT
BRANCH   4   7
ATOM      7  C   UNL     1       0.799   9.776  19.848  0.00  0.00    +0.000 A 
ATOM      8  C   UNL     1       1.206  10.262  18.593  0.00  0.00    +0.000 A 
ATOM      9  C   UNL     1       2.025   9.506  17.746  0.00  0.00    +0.000 A 
ATOM     10  C   UNL     1       2.464   8.245  18.140  0.00  0.00    +0.000 A 
ATOM     11  C   UNL     1       2.075   7.726  19.378  0.00  0.00    +0.000 A 
ATOM     12  C   UNL     1       1.255   8.500  20.218  0.00  0.00    +0.000 A 
BRANCH  11  13
ATOM     13  C   UNL     1       2.537   6.360  19.835  0.00  0.00    +0.000 C 
BRANCH  13  14
ATOM     14  N   UNL     1       2.300   5.291  18.858  0.00  0.00    +0.000 NA
ATOM     15  C   UNL     1       1.560   4.177  19.487  0.00  0.00    +0.000 C 
ATOM     16  C   UNL     1       1.289   3.023  18.492  0.00  0.00    +0.000 C 
ATOM     17  N   UNL     1       2.483   2.494  17.803  0.00  0.00    +0.000 NA
ATOM     18  C   UNL     1       3.299   1.663  18.682  0.00  0.00    +0.000 C 
ATOM     19  C   UNL     1       3.259   3.623  17.254  0.00  0.00    +0.000 C 
ATOM     20  C   UNL     1       3.543   4.764  18.258  0.00  0.00    +0.000 C 
ENDBRANCH  13  14
ENDBRANCH  11  13
ENDBRANCH   4   7
BRANCH   1  21
ATOM     21  S   UNL     1      -2.936  12.902  23.480  0.00  0.00    +0.000 S 
ATOM     22  O   UNL     1      -2.219  14.019  24.073  0.00  0.00    +0.000 OA
ATOM     23  O   UNL     1      -3.625  11.941  24.310  0.00  0.00    +0.000 OA
BRANCH  21  24
ATOM     24  N   UNL     1      -3.994  13.571  22.370  0.00  0.00    +0.000 N 
ATOM     25  H   UNL     1      -3.836  14.556  22.167  0.00  0.00    +0.000 HD
BRANCH  24  33
ATOM     26  C   UNL     1      -6.675  13.153  24.023  0.00  0.00    +0.000 C 
ATOM     27  C   UNL     1      -6.332  12.719  22.648  0.00  0.00    +0.000 A 
ATOM     28  N   UNL     1      -7.232  12.031  21.939  0.00  0.00    +0.000 NA
ATOM     29  N   UNL     1      -6.622  11.803  20.764  0.00  0.00    +0.000 N 
ATOM     30  C   UNL     1      -7.340  11.062  19.752  0.00  0.00    +0.000 C 
ATOM     31  C   UNL     1      -5.354  12.322  20.689  0.00  0.00    +0.000 A 
ATOM     32  C   UNL     1      -4.489  12.201  19.486  0.00  0.00    +0.000 C 
ATOM     33  C   UNL     1      -5.139  12.932  21.910  0.00  0.00    +0.000 A 
ENDBRANCH  24  33
ENDBRANCH  21  24
ENDBRANCH   1  21
TORSDOF 6
ENDMDL
MODEL 4
REMARK VINA RESULT:      -8.9      0.688      1.806
REMARK  Name = 
REMARK  10 active torsions:
REMARK  status: ('A' for Active; 'I' for Inactive)
REMARK    1  A    between atoms: C_1  and  C_2
REMARK    2  A    between atoms: N_4  and  C_5
REMARK    3  A    between atoms: C_6  and  C_7
REMARK    4  A    between atoms: C_8  and  N_9
REMARK    5  A    between atoms: N_9  and  S_10
REMARK    6  A    between atoms: S_10  and  C_13
REMARK    7  A    between atoms: C_16  and  C_17
REMARK    8  A    between atoms: C_21  and  C_22
REMARK    9  A    between atoms: C_22  and  N_23
REMARK   10  A    between atoms: N_26  and  C_27
REMARK                            x       y       z     vdW  Elec       q    Type
REMARK                         _______ _______ _______ _____ _____    ______ ____
ROOT
ATOM      1  C   UNL     1       1.196   9.324  19.683  0.00  0.00    +0.000 A 
ATOM      2  C   UNL     1       1.551   9.559  18.356  0.00  0.00    +0.000 A 
ATOM      3  C   UNL     1       2.336   8.623  17.677  0.00  0.00    +0.000 A 
ATOM      4  C   UNL     1       2.797   7.451  18.305  0.00  0.00    +0.000 A 
ATOM      5  C   UNL     1       2.414   7.241  19.645  0.00  0.00    +0.000 A 
ATOM      6  C   UNL     1       1.616   8.164  20.332  0.00  0.00    +0.000 A 
ENDROOT
BRANCH   4   7
ATOM      7  C   UNL     1       3.642   6.480  17.573  0.00  0.00    +0.000 A 
ATOM      8  C   UNL     1       4.638   6.898  16.672  0.00  0.00    +0.000 A 
ATOM      9  C   UNL     1       5.418   5.976  15.965  0.00  0.00    +0.000 A 
ATOM     10  C   UNL     1       5.225   4.610  16.149  0.00  0.00    +0.000 A 
ATOM     11  C   UNL     1       4.241   4.156  17.032  0.00  0.00    +0.000 A 
ATOM     12  C   UNL     1       3.468   5.097  17.737  0.00  0.00    +0.000 A 
BRANCH  11  13
ATOM     13  C   UNL     1       4.008   2.678  17.254  0.00  0.00    +0.000 C 
BRANCH  13  14
ATOM     14  N   UNL     1       3.163   2.375  18.415  0.00  0.00    +0.000 NA
ATOM     15  C   UNL     1       1.765   2.771  18.147  0.00  0.00    +0.000 C 
ATOM     16  C   UNL     1       0.835   2.473  19.347  0.00  0.00    +0.000 C 
ATOM     17  N   UNL     1       1.270   3.044  20.637  0.00  0.00    +0.000 NA
ATOM     18  C   UNL     1       1.040   4.484  20.703  0.00  0.00    +0.000 C 
ATOM     19  C   UNL     1       2.692   2.715  20.852  0.00  0.00    +0.000 C 
ATOM     20  C   UNL     1       3.619   3.034  19.656  0.00  0.00    +0.000 C 
ENDBRANCH  13  14
ENDBRANCH  11  13
ENDBRANCH   4   7
BRANCH   1  21
ATOM     21  S   UNL     1       0.279  10.550  20.579  0.00  0.00    +0.000 S 
ATOM     22  O   UNL     1       1.246  11.417  21.232  0.00  0.00    +0.000 OA
ATOM     23  O   UNL     1      -0.754   9.886  21.341  0.00  0.00    +0.000 OA
BRANCH  21  24
ATOM     24  N   UNL     1      -0.403  11.463  19.354  0.00  0.00    +0.000 N 
ATOM     25  H   UNL     1       0.237  12.101  18.887  0.00  0.00    +0.000 HD
BRANCH  24  33
ATOM     26  C   UNL     1      -1.956   9.966  17.021  0.00  0.00    +0.000 C 
ATOM     27  C   UNL     1      -2.470  10.890  18.060  0.00  0.00    +0.000 A 
ATOM     28  N   UNL     1      -3.770  11.199  18.073  0.00  0.00    +0.000 NA
ATOM     29  N   UNL     1      -3.901  12.032  19.117  0.00  0.00    +0.000 N 
ATOM     30  C   UNL     1      -5.213  12.563  19.410  0.00  0.00    +0.000 C 
ATOM     31  C   UNL     1      -2.726  12.275  19.783  0.00  0.00    +0.000 A 
ATOM     32  C   UNL     1      -2.627  13.159  20.974  0.00  0.00    +0.000 C 
ATOM     33  C   UNL     1      -1.770  11.536  19.113  0.00  0.00    +0.000 A 
ENDBRANCH  24  33
ENDBRANCH  21  24
ENDBRANCH   1  21
TORSDOF 6
ENDMDL
MODEL 5
REMARK VINA RESULT:      -8.9      6.344      9.363
REMARK  Name = 
REMARK  10 active torsions:
REMARK  status: ('A' for Active; 'I' for Inactive)
REMARK    1  A    between atoms: C_1  and  C_2
REMARK    2  A    between atoms: N_4  and  C_5
REMARK    3  A    between atoms: C_6  and  C_7
REMARK    4  A    between atoms: C_8  and  N_9
REMARK    5  A    between atoms: N_9  and  S_10
REMARK    6  A    between atoms: S_10  and  C_13
REMARK    7  A    between atoms: C_16  and  C_17
REMARK    8  A    between atoms: C_21  and  C_22
REMARK    9  A    between atoms: C_22  and  N_23
REMARK   10  A    between atoms: N_26  and  C_27
REMARK                            x       y       z     vdW  Elec       q    Type
REMARK                         _______ _______ _______ _____ _____    ______ ____
ROOT
ATOM      1  C   UNL     1       7.364   6.409  17.844  0.00  0.00    +0.000 A 
ATOM      2  C   UNL     1       8.181   6.514  18.968  0.00  0.00    +0.000 A 
ATOM      3  C   UNL     1       8.736   7.753  19.302  0.00  0.00    +0.000 A 
ATOM      4  C   UNL     1       8.508   8.899  18.520  0.00  0.00    +0.000 A 
ATOM      5  C   UNL     1       7.671   8.760  17.394  0.00  0.00    +0.000 A 
ATOM      6  C   UNL     1       7.098   7.528  17.057  0.00  0.00    +0.000 A 
ENDROOT
BRANCH   4   7
ATOM      7  C   UNL     1       9.120  10.199  18.881  0.00  0.00    +0.000 A 
ATOM      8  C   UNL     1       9.900  10.929  17.966  0.00  0.00    +0.000 A 
ATOM      9  C   UNL     1      10.496  12.144  18.319  0.00  0.00    +0.000 A 
ATOM     10  C   UNL     1      10.318  12.665  19.598  0.00  0.00    +0.000 A 
ATOM     11  C   UNL     1       9.554  11.966  20.536  0.00  0.00    +0.000 A 
ATOM     12  C   UNL     1       8.959  10.747  20.163  0.00  0.00    +0.000 A 
BRANCH  11  13
ATOM     13  C   UNL     1       9.341  12.506  21.933  0.00  0.00    +0.000 C 
BRANCH  13  14
ATOM     14  N   UNL     1       7.993  12.276  22.464  0.00  0.00    +0.000 NA
ATOM     15  C   UNL     1       7.209  13.528  22.431  0.00  0.00    +0.000 C 
ATOM     16  C   UNL     1       5.777  13.333  22.985  0.00  0.00    +0.000 C 
ATOM     17  N   UNL     1       5.701  12.740  24.335  0.00  0.00    +0.000 NA
ATOM     18  C   UNL     1       6.069  13.696  25.374  0.00  0.00    +0.000 C 
ATOM     19  C   UNL     1       6.557  11.539  24.380  0.00  0.00    +0.000 C 
ATOM     20  C   UNL     1       7.992  11.745  23.843  0.00  0.00    +0.000 C 
ENDBRANCH  13  14
ENDBRANCH  11  13
ENDBRANCH   4   7
BRANCH   1  21
ATOM     21  S   UNL     1       6.731   4.823  17.362  0.00  0.00    +0.000 S 
ATOM     22  O   UNL     1       6.450   4.084  18.582  0.00  0.00    +0.000 OA
ATOM     23  O   UNL     1       7.598   4.272  16.346  0.00  0.00    +0.000 OA
BRANCH  21  24
ATOM     24  N   UNL     1       5.241   5.208  16.705  0.00  0.00    +0.000 N 
ATOM     25  H   UNL     1       5.279   5.698  15.813  0.00  0.00    +0.000 HD
BRANCH  24  33
ATOM     26  C   UNL     1       3.485   7.612  17.816  0.00  0.00    +0.000 C 
ATOM     27  C   UNL     1       3.258   6.150  17.911  0.00  0.00    +0.000 A 
ATOM     28  N   UNL     1       2.181   5.698  18.559  0.00  0.00    +0.000 NA
ATOM     29  N   UNL     1       2.270   4.362  18.457  0.00  0.00    +0.000 N 
ATOM     30  C   UNL     1       1.238   3.558  19.070  0.00  0.00    +0.000 C 
ATOM     31  C   UNL     1       3.373   3.932  17.764  0.00  0.00    +0.000 A 
ATOM     32  C   UNL     1       3.679   2.498  17.518  0.00  0.00    +0.000 C 
ATOM     33  C   UNL     1       4.038   5.085  17.390  0.00  0.00    +0.000 A 
ENDBRANCH  24  33
ENDBRANCH  21  24
ENDBRANCH   1  21
TORSDOF 6
ENDMDL
MODEL 6
REMARK VINA RESULT:      -8.9      0.632      1.091
REMARK  Name = 
REMARK  10 active torsions:
REMARK  status: ('A' for Active; 'I' for Inactive)
REMARK    1  A    between atoms: C_1  and  C_2
REMARK    2  A    between atoms: N_4  and  C_5
REMARK    3  A    between atoms: C_6  and  C_7
REMARK    4  A    between atoms: C_8  and  N_9
REMARK    5  A    between atoms: N_9  and  S_10
REMARK    6  A    between atoms: S_10  and  C_13
REMARK    7  A    between atoms: C_16  and  C_17
REMARK    8  A    between atoms: C_21  and  C_22
REMARK    9  A    between atoms: C_22  and  N_23
REMARK   10  A    between atoms: N_26  and  C_27
REMARK                            x       y       z     vdW  Elec       q    Type
REMARK                         _______ _______ _______ _____ _____    ______ ____
ROOT
ATOM      1  C   UNL     1       1.217   9.258  19.734  0.00  0.00    +0.000 A 
ATOM      2  C   UNL     1       1.555   9.514  18.406  0.00  0.00    +0.000 A 
ATOM      3  C   UNL     1       2.341   8.596  17.706  0.00  0.00    +0.000 A 
ATOM      4  C   UNL     1       2.822   7.421  18.314  0.00  0.00    +0.000 A 
ATOM      5  C   UNL     1       2.457   7.189  19.655  0.00  0.00    +0.000 A 
ATOM      6  C   UNL     1       1.658   8.095  20.363  0.00  0.00    +0.000 A 
ENDROOT
BRANCH   4   7
ATOM      7  C   UNL     1       3.670   6.469  17.560  0.00  0.00    +0.000 A 
ATOM      8  C   UNL     1       4.473   6.885  16.483  0.00  0.00    +0.000 A 
ATOM      9  C   UNL     1       5.253   5.977  15.759  0.00  0.00    +0.000 A 
ATOM     10  C   UNL     1       5.255   4.628  16.101  0.00  0.00    +0.000 A 
ATOM     11  C   UNL     1       4.465   4.175  17.160  0.00  0.00    +0.000 A 
ATOM     12  C   UNL     1       3.689   5.102  17.880  0.00  0.00    +0.000 A 
BRANCH  11  13
ATOM     13  C   UNL     1       4.446   2.715  17.557  0.00  0.00    +0.000 C 
BRANCH  13  14
ATOM     14  N   UNL     1       3.340   2.353  18.450  0.00  0.00    +0.000 NA
ATOM     15  C   UNL     1       2.062   2.871  17.919  0.00  0.00    +0.000 C 
ATOM     16  C   UNL     1       0.864   2.515  18.831  0.00  0.00    +0.000 C 
ATOM     17  N   UNL     1       1.009   2.918  20.244  0.00  0.00    +0.000 NA
ATOM     18  C   UNL     1       0.833   4.356  20.423  0.00  0.00    +0.000 C 
ATOM     19  C   UNL     1       2.327   2.471  20.738  0.00  0.00    +0.000 C 
ATOM     20  C   UNL     1       3.521   2.848  19.831  0.00  0.00    +0.000 C 
ENDBRANCH  13  14
ENDBRANCH  11  13
ENDBRANCH   4   7
BRANCH   1  21
ATOM     21  S   UNL     1       0.297  10.462  20.656  0.00  0.00    +0.000 S 
ATOM     22  O   UNL     1       1.258  11.257  21.403  0.00  0.00    +0.000 OA
ATOM     23  O   UNL     1      -0.792   9.793  21.330  0.00  0.00    +0.000 OA
BRANCH  21  24
ATOM     24  N   UNL     1      -0.296  11.467  19.456  0.00  0.00    +0.000 N 
ATOM     25  H   UNL     1       0.384  12.114  19.064  0.00  0.00    +0.000 HD
BRANCH  24  33
ATOM     26  C   UNL     1      -2.391  13.290  20.999  0.00  0.00    +0.000 C 
ATOM     27  C   UNL     1      -2.594  12.383  19.844  0.00  0.00    +0.000 A 
ATOM     28  N   UNL     1      -3.819  12.249  19.328  0.00  0.00    +0.000 NA
ATOM     29  N   UNL     1      -3.659  11.380  18.317  0.00  0.00    +0.000 N 
ATOM     30  C   UNL     1      -4.820  11.011  17.540  0.00  0.00    +0.000 C 
ATOM     31  C   UNL     1      -2.367  10.945  18.161  0.00  0.00    +0.000 A 
ATOM     32  C   UNL     1      -1.947   9.987  17.105  0.00  0.00    +0.000 C 
ATOM     33  C   UNL     1      -1.645  11.590  19.148  0.00  0.00    +0.000 A 
ENDBRANCH  24  33
ENDBRANCH  21  24
ENDBRANCH   1  21
TORSDOF 6
ENDMDL
MODEL 7
REMARK VINA RESULT:      -8.9      1.726      3.758
REMARK  Name = 
REMARK  10 active torsions:
REMARK  status: ('A' for Active; 'I' for Inactive)
REMARK    1  A    between atoms: C_1  and  C_2
REMARK    2  A    between atoms: N_4  and  C_5
REMARK    3  A    between atoms: C_6  and  C_7
REMARK    4  A    between atoms: C_8  and  N_9
REMARK    5  A    between atoms: N_9  and  S_10
REMARK    6  A    between atoms: S_10  and  C_13
REMARK    7  A    between atoms: C_16  and  C_17
REMARK    8  A    between atoms: C_21  and  C_22
REMARK    9  A    between atoms: C_22  and  N_23
REMARK   10  A    between atoms: N_26  and  C_27
REMARK                            x       y       z     vdW  Elec       q    Type
REMARK                         _______ _______ _______ _____ _____    ______ ____
ROOT
ATOM      1  C   UNL     1       0.785   9.794  20.630  0.00  0.00    +0.000 A 
ATOM      2  C   UNL     1       1.425   9.477  19.434  0.00  0.00    +0.000 A 
ATOM      3  C   UNL     1       1.851   8.166  19.206  0.00  0.00    +0.000 A 
ATOM      4  C   UNL     1       1.668   7.153  20.166  0.00  0.00    +0.000 A 
ATOM      5  C   UNL     1       1.010   7.506  21.362  0.00  0.00    +0.000 A 
ATOM      6  C   UNL     1       0.567   8.813  21.596  0.00  0.00    +0.000 A 
ENDROOT
BRANCH   4   7
ATOM      7  C   UNL     1       2.142   5.773  19.914  0.00  0.00    +0.000 A 
ATOM      8  C   UNL     1       2.137   4.793  20.922  0.00  0.00    +0.000 A 
ATOM      9  C   UNL     1       2.608   3.497  20.685  0.00  0.00    +0.000 A 
ATOM     10  C   UNL     1       3.089   3.147  19.427  0.00  0.00    +0.000 A 
ATOM     11  C   UNL     1       3.116   4.095  18.401  0.00  0.00    +0.000 A 
ATOM     12  C   UNL     1       2.635   5.393  18.655  0.00  0.00    +0.000 A 
BRANCH  11  13
ATOM     13  C   UNL     1       3.632   3.745  17.023  0.00  0.00    +0.000 C 
BRANCH  13  14
ATOM     14  N   UNL     1       5.067   3.992  16.842  0.00  0.00    +0.000 NA
ATOM     15  C   UNL     1       5.679   4.414  18.119  0.00  0.00    +0.000 C 
ATOM     16  C   UNL     1       7.195   4.689  17.975  0.00  0.00    +0.000 C 
ATOM     17  N   UNL     1       7.562   5.647  16.914  0.00  0.00    +0.000 NA
ATOM     18  C   UNL     1       7.257   7.024  17.290  0.00  0.00    +0.000 C 
ATOM     19  C   UNL     1       6.875   5.266  15.665  0.00  0.00    +0.000 C 
ATOM     20  C   UNL     1       5.357   5.011  15.811  0.00  0.00    +0.000 C 
ENDBRANCH  13  14
ENDBRANCH  11  13
ENDBRANCH   4   7
BRANCH   1  21
ATOM     21  S   UNL     1       0.325  11.474  20.964  0.00  0.00    +0.000 S 
ATOM     22  O   UNL     1       1.555  12.238  21.095  0.00  0.00    +0.000 OA
ATOM     23  O   UNL     1      -0.665  11.480  22.017  0.00  0.00    +0.000 OA
BRANCH  21  24
ATOM     24  N   UNL     1      -0.364  11.959  19.519  0.00  0.00    +0.000 N 
ATOM     25  H   UNL     1       0.236  12.528  18.926  0.00  0.00    +0.000 HD
BRANCH  24  33
ATOM     26  C   UNL     1      -1.571   9.894  17.427  0.00  0.00    +0.000 C 
ATOM     27  C   UNL     1      -2.259  10.904  18.266  0.00  0.00    +0.000 A 
ATOM     28  N   UNL     1      -3.586  11.033  18.174  0.00  0.00    +0.000 NA
ATOM     29  N   UNL     1      -3.885  12.007  19.049  0.00  0.00    +0.000 N 
ATOM     30  C   UNL     1      -5.268  12.399  19.191  0.00  0.00    +0.000 C 
ATOM     31  C   UNL     1      -2.792  12.514  19.707  0.00  0.00    +0.000 A 
ATOM     32  C   UNL     1      -2.878  13.593  20.726  0.00  0.00    +0.000 C 
ATOM     33  C   UNL     1      -1.712  11.806  19.215  0.00  0.00    +0.000 A 
ENDBRANCH  24  33
ENDBRANCH  21  24
ENDBRANCH   1  21
TORSDOF 6
ENDMDL
MODEL 8
REMARK VINA RESULT:      -8.9      1.940      3.868
REMARK  Name = 
REMARK  10 active torsions:
REMARK  status: ('A' for Active; 'I' for Inactive)
REMARK    1  A    between atoms: C_1  and  C_2
REMARK    2  A    between atoms: N_4  and  C_5
REMARK    3  A    between atoms: C_6  and  C_7
REMARK    4  A    between atoms: C_8  and  N_9
REMARK    5  A    between atoms: N_9  and  S_10
REMARK    6  A    between atoms: S_10  and  C_13
REMARK    7  A    between atoms: C_16  and  C_17
REMARK    8  A    between atoms: C_21  and  C_22
REMARK    9  A    between atoms: C_22  and  N_23
REMARK   10  A    between atoms: N_26  and  C_27
REMARK                            x       y       z     vdW  Elec       q    Type
REMARK                         _______ _______ _______ _____ _____    ______ ____
ROOT
ATOM      1  C   UNL     1       1.476  10.806  18.943  0.00  0.00    +0.000 A 
ATOM      2  C   UNL     1       2.075  10.111  17.894  0.00  0.00    +0.000 A 
ATOM      3  C   UNL     1       2.276   8.733  18.007  0.00  0.00    +0.000 A 
ATOM      4  C   UNL     1       1.906   8.025  19.166  0.00  0.00    +0.000 A 
ATOM      5  C   UNL     1       1.297   8.757  20.205  0.00  0.00    +0.000 A 
ATOM      6  C   UNL     1       1.077  10.136  20.098  0.00  0.00    +0.000 A 
ENDROOT
BRANCH   4   7
ATOM      7  C   UNL     1       2.144   6.567  19.273  0.00  0.00    +0.000 A 
ATOM      8  C   UNL     1       1.850   5.855  20.450  0.00  0.00    +0.000 A 
ATOM      9  C   UNL     1       2.098   4.482  20.555  0.00  0.00    +0.000 A 
ATOM     10  C   UNL     1       2.641   3.785  19.479  0.00  0.00    +0.000 A 
ATOM     11  C   UNL     1       2.952   4.460  18.295  0.00  0.00    +0.000 A 
ATOM     12  C   UNL     1       2.692   5.840  18.205  0.00  0.00    +0.000 A 
BRANCH  11  13
ATOM     13  C   UNL     1       3.541   3.730  17.108  0.00  0.00    +0.000 C 
BRANCH  13  14
ATOM     14  N   UNL     1       4.977   3.964  16.916  0.00  0.00    +0.000 NA
ATOM     15  C   UNL     1       5.601   4.389  18.186  0.00  0.00    +0.000 C 
ATOM     16  C   UNL     1       7.118   4.652  18.031  0.00  0.00    +0.000 C 
ATOM     17  N   UNL     1       7.486   5.600  16.960  0.00  0.00    +0.000 NA
ATOM     18  C   UNL     1       7.194   6.982  17.330  0.00  0.00    +0.000 C 
ATOM     19  C   UNL     1       6.787   5.215  15.718  0.00  0.00    +0.000 C 
ATOM     20  C   UNL     1       5.268   4.974  15.877  0.00  0.00    +0.000 C 
ENDBRANCH  13  14
ENDBRANCH  11  13
ENDBRANCH   4   7
BRANCH   1  21
ATOM     21  S   UNL     1       1.303  12.569  18.845  0.00  0.00    +0.000 S 
ATOM     22  O   UNL     1       2.323  13.050  17.929  0.00  0.00    +0.000 OA
ATOM     23  O   UNL     1       1.203  13.097  20.186  0.00  0.00    +0.000 OA
BRANCH  21  24
ATOM     24  N   UNL     1      -0.155  12.749  18.043  0.00  0.00    +0.000 N 
ATOM     25  H   UNL     1      -0.107  13.284  17.179  0.00  0.00    +0.000 HD
BRANCH  24  33
ATOM     26  C   UNL     1      -1.902  10.223  17.227  0.00  0.00    +0.000 C 
ATOM     27  C   UNL     1      -2.184  11.290  18.215  0.00  0.00    +0.000 A 
ATOM     28  N   UNL     1      -3.334  11.261  18.895  0.00  0.00    +0.000 NA
ATOM     29  N   UNL     1      -3.275  12.341  19.692  0.00  0.00    +0.000 N 
ATOM     30  C   UNL     1      -4.390  12.605  20.572  0.00  0.00    +0.000 C 
ATOM     31  C   UNL     1      -2.122  13.071  19.549  0.00  0.00    +0.000 A 
ATOM     32  C   UNL     1      -1.830  14.302  20.330  0.00  0.00    +0.000 C 
ATOM     33  C   UNL     1      -1.386  12.402  18.589  0.00  0.00    +0.000 A 
ENDBRANCH  24  33
ENDBRANCH  21  24
ENDBRANCH   1  21
TORSDOF 6
ENDMDL
MODEL 9
REMARK VINA RESULT:      -8.9      4.087      9.602
REMARK  Name = 
REMARK  10 active torsions:
REMARK  status: ('A' for Active; 'I' for Inactive)
REMARK    1  A    between atoms: C_1  and  C_2
REMARK    2  A    between atoms: N_4  and  C_5
REMARK    3  A    between atoms: C_6  and  C_7
REMARK    4  A    between atoms: C_8  and  N_9
REMARK    5  A    between atoms: N_9  and  S_10
REMARK    6  A    between atoms: S_10  and  C_13
REMARK    7  A    between atoms: C_16  and  C_17
REMARK    8  A    between atoms: C_21  and  C_22
REMARK    9  A    between atoms: C_22  and  N_23
REMARK   10  A    between atoms: N_26  and  C_27
REMARK                            x       y       z     vdW  Elec       q    Type
REMARK                         _______ _______ _______ _____ _____    ______ ____
ROOT
ATOM      1  C   UNL     1       3.047   4.678  18.602  0.00  0.00    +0.000 A 
ATOM      2  C   UNL     1       2.885   5.827  17.829  0.00  0.00    +0.000 A 
ATOM      3  C   UNL     1       2.392   6.991  18.423  0.00  0.00    +0.000 A 
ATOM      4  C   UNL     1       2.031   7.032  19.782  0.00  0.00    +0.000 A 
ATOM      5  C   UNL     1       2.214   5.855  20.536  0.00  0.00    +0.000 A 
ATOM      6  C   UNL     1       2.721   4.686  19.957  0.00  0.00    +0.000 A 
ENDROOT
BRANCH   4   7
ATOM      7  C   UNL     1       1.493   8.271  20.388  0.00  0.00    +0.000 A 
ATOM      8  C   UNL     1       1.089   8.321  21.734  0.00  0.00    +0.000 A 
ATOM      9  C   UNL     1       0.558   9.488  22.296  0.00  0.00    +0.000 A 
ATOM     10  C   UNL     1       0.426  10.639  21.524  0.00  0.00    +0.000 A 
ATOM     11  C   UNL     1       0.811  10.626  20.181  0.00  0.00    +0.000 A 
ATOM     12  C   UNL     1       1.345   9.445  19.633  0.00  0.00    +0.000 A 
BRANCH  11  13
ATOM     13  C   UNL     1       0.681  11.860  19.315  0.00  0.00    +0.000 C 
BRANCH  13  14
ATOM     14  N   UNL     1       1.810  12.791  19.428  0.00  0.00    +0.000 NA
ATOM     15  C   UNL     1       1.410  13.990  20.192  0.00  0.00    +0.000 C 
ATOM     16  C   UNL     1       2.571  15.003  20.335  0.00  0.00    +0.000 C 
ATOM     17  N   UNL     1       3.204  15.416  19.066  0.00  0.00    +0.000 NA
ATOM     18  C   UNL     1       2.367  16.346  18.314  0.00  0.00    +0.000 C 
ATOM     19  C   UNL     1       3.519  14.212  18.273  0.00  0.00    +0.000 C 
ATOM     20  C   UNL     1       2.349  13.213  18.119  0.00  0.00    +0.000 C 
ENDBRANCH  13  14
ENDBRANCH  11  13
ENDBRANCH   4   7
BRANCH   1  21
ATOM     21  S   UNL     1       3.586   3.171  17.836  0.00  0.00    +0.000 S 
ATOM     22  O   UNL     1       3.074   3.174  16.476  0.00  0.00    +0.000 OA
ATOM     23  O   UNL     1       3.302   2.073  18.731  0.00  0.00    +0.000 OA
BRANCH  21  24
ATOM     24  N   UNL     1       5.239   3.398  17.705  0.00  0.00    +0.000 N 
ATOM     25  H   UNL     1       5.807   2.646  18.088  0.00  0.00    +0.000 HD
BRANCH  24  33
ATOM     26  C   UNL     1       5.423   4.489  14.727  0.00  0.00    +0.000 C 
ATOM     27  C   UNL     1       5.935   5.081  15.985  0.00  0.00    +0.000 A 
ATOM     28  N   UNL     1       6.597   6.241  15.938  0.00  0.00    +0.000 NA
ATOM     29  N   UNL     1       6.910   6.494  17.219  0.00  0.00    +0.000 N 
ATOM     30  C   UNL     1       7.648   7.700  17.518  0.00  0.00    +0.000 C 
ATOM     31  C   UNL     1       6.473   5.534  18.097  0.00  0.00    +0.000 A 
ATOM     32  C   UNL     1       6.697   5.603  19.565  0.00  0.00    +0.000 C 
ATOM     33  C   UNL     1       5.826   4.596  17.315  0.00  0.00    +0.000 A 
ENDBRANCH  24  33
ENDBRANCH  21  24
ENDBRANCH   1  21
TORSDOF 6
ENDMDL
