MODEL 1
REMARK VINA RESULT:      -8.5      0.000      0.000
REMARK  Name = 
REMARK  8 active torsions:
REMARK  status: ('A' for Active; 'I' for Inactive)
REMARK    1  A    between atoms: C_1  and  O_2
REMARK    2  A    between atoms: O_2  and  C_3
REMARK    3  A    between atoms: C_6  and  C_7
REMARK    4  A    between atoms: N_9  and  C_10
REMARK    5  A    between atoms: N_9  and  C_17
REMARK    6  A    between atoms: C_13  and  C_14
REMARK    7  A    between atoms: C_25  and  O_26
REMARK    8  A    between atoms: O_26  and  C_27
REMARK                            x       y       z     vdW  Elec       q    Type
REMARK                         _______ _______ _______ _____ _____    ______ ____
ROOT
ATOM      1  C   UNL     1       3.073   7.628  17.580  0.00  0.00    +0.000 C 
ATOM      2  O   UNL     1       3.426   8.366  16.653  0.00  0.00    +0.000 OA
ATOM      3  N   UNL     1       3.587   6.319  17.698  0.00  0.00    +0.000 N 
ENDROOT
BRANCH   3   4
ATOM      4  C   UNL     1       3.088   5.337  18.584  0.00  0.00    +0.000 A 
ATOM      5  C   UNL     1       3.682   5.118  19.829  0.00  0.00    +0.000 A 
ATOM      6  C   UNL     1       3.080   4.231  20.733  0.00  0.00    +0.000 A 
ATOM      7  C   UNL     1       1.910   3.542  20.383  0.00  0.00    +0.000 A 
ATOM      8  C   UNL     1       1.200   2.645  21.353  0.00  0.00    +0.000 C 
ATOM      9  C   UNL     1       1.352   3.741  19.118  0.00  0.00    +0.000 A 
ATOM     10  C   UNL     1       1.929   4.643  18.231  0.00  0.00    +0.000 A 
ENDBRANCH   3   4
BRANCH   3  11
ATOM     11  C   UNL     1       4.695   5.932  16.798  0.00  0.00    +0.000 C 
ATOM     12  C   UNL     1       5.786   6.969  16.929  0.00  0.00    +0.000 C 
ATOM     13  C   UNL     1       6.970   6.554  17.389  0.00  0.00    +0.000 C 
ATOM     14  S   UNL     1       6.975   4.860  17.683  0.00  0.00    +0.000 S 
ATOM     15  O   UNL     1       7.962   4.240  16.835  0.00  0.00    +0.000 OA
ATOM     16  O   UNL     1       6.956   4.625  19.113  0.00  0.00    +0.000 OA
ATOM     17  C   UNL     1       5.351   4.552  16.988  0.00  0.00    +0.000 C 
ENDBRANCH   3  11
BRANCH   1  21
ATOM     18  C   UNL     1       0.467   9.383  20.558  0.00  0.00    +0.000 A 
ATOM     19  C   UNL     1       1.269   8.268  20.847  0.00  0.00    +0.000 A 
ATOM     20  C   UNL     1       2.105   7.709  19.872  0.00  0.00    +0.000 A 
ATOM     21  C   UNL     1       2.112   8.212  18.568  0.00  0.00    +0.000 A 
ATOM     22  C   UNL     1       1.159   9.182  18.255  0.00  0.00    +0.000 A 
ATOM     23  C   UNL     1       0.382   9.815  19.232  0.00  0.00    +0.000 A 
BRANCH  18  25
ATOM     24  C   UNL     1       0.038   9.657  22.867  0.00  0.00    +0.000 C 
ATOM     25  O   UNL     1      -0.267  10.018  21.520  0.00  0.00    +0.000 OA
ENDBRANCH  18  25
BRANCH  23  26
ATOM     26  O   UNL     1      -0.386  10.808  18.689  0.00  0.00    +0.000 OA
ATOM     27  C   UNL     1      -1.726  10.524  18.327  0.00  0.00    +0.000 C 
ENDBRANCH  23  26
ENDBRANCH   1  21
TORSDOF 5
ENDMDL
MODEL 2
REMARK VINA RESULT:      -8.3      0.455      1.031
REMARK  Name = 
REMARK  8 active torsions:
REMARK  status: ('A' for Active; 'I' for Inactive)
REMARK    1  A    between atoms: C_1  and  O_2
REMARK    2  A    between atoms: O_2  and  C_3
REMARK    3  A    between atoms: C_6  and  C_7
REMARK    4  A    between atoms: N_9  and  C_10
REMARK    5  A    between atoms: N_9  and  C_17
REMARK    6  A    between atoms: C_13  and  C_14
REMARK    7  A    between atoms: C_25  and  O_26
REMARK    8  A    between atoms: O_26  and  C_27
REMARK                            x       y       z     vdW  Elec       q    Type
REMARK                         _______ _______ _______ _____ _____    ______ ____
ROOT
ATOM      1  C   UNL     1       2.942   7.708  17.681  0.00  0.00    +0.000 C 
ATOM      2  O   UNL     1       3.399   8.382  16.750  0.00  0.00    +0.000 OA
ATOM      3  N   UNL     1       3.379   6.385  17.900  0.00  0.00    +0.000 N 
ENDROOT
BRANCH   3   4
ATOM      4  C   UNL     1       2.766   5.474  18.790  0.00  0.00    +0.000 A 
ATOM      5  C   UNL     1       1.743   4.624  18.365  0.00  0.00    +0.000 A 
ATOM      6  C   UNL     1       1.252   3.644  19.239  0.00  0.00    +0.000 A 
ATOM      7  C   UNL     1       1.758   3.535  20.543  0.00  0.00    +0.000 A 
ATOM      8  C   UNL     1       1.309   2.452  21.478  0.00  0.00    +0.000 C 
ATOM      9  C   UNL     1       2.751   4.421  20.967  0.00  0.00    +0.000 A 
ATOM     10  C   UNL     1       3.261   5.374  20.092  0.00  0.00    +0.000 A 
ENDBRANCH   3   4
BRANCH   3  11
ATOM     11  C   UNL     1       4.531   5.902  17.109  0.00  0.00    +0.000 C 
ATOM     12  C   UNL     1       5.577   6.993  17.094  0.00  0.00    +0.000 C 
ATOM     13  C   UNL     1       6.759   6.711  17.650  0.00  0.00    +0.000 C 
ATOM     14  S   UNL     1       6.819   5.091  18.224  0.00  0.00    +0.000 S 
ATOM     15  O   UNL     1       7.857   4.382  17.519  0.00  0.00    +0.000 OA
ATOM     16  O   UNL     1       6.759   5.096  19.671  0.00  0.00    +0.000 OA
ATOM     17  C   UNL     1       5.232   4.603  17.546  0.00  0.00    +0.000 C 
ENDBRANCH   3  11
BRANCH   1  21
ATOM     18  C   UNL     1       0.210   9.759  20.341  0.00  0.00    +0.000 A 
ATOM     19  C   UNL     1       1.055   8.736  20.800  0.00  0.00    +0.000 A 
ATOM     20  C   UNL     1       1.931   8.080  19.926  0.00  0.00    +0.000 A 
ATOM     21  C   UNL     1       1.938   8.387  18.562  0.00  0.00    +0.000 A 
ATOM     22  C   UNL     1       0.950   9.256  18.100  0.00  0.00    +0.000 A 
ATOM     23  C   UNL     1       0.129   9.988  18.965  0.00  0.00    +0.000 A 
BRANCH  18  25
ATOM     24  C   UNL     1      -0.478  10.139  22.572  0.00  0.00    +0.000 C 
ATOM     25  O   UNL     1      -0.568  10.493  21.191  0.00  0.00    +0.000 OA
ENDBRANCH  18  25
BRANCH  23  26
ATOM     26  O   UNL     1      -0.672  10.855  18.274  0.00  0.00    +0.000 OA
ATOM     27  C   UNL     1      -1.991  10.459  17.941  0.00  0.00    +0.000 C 
ENDBRANCH  23  26
ENDBRANCH   1  21
TORSDOF 5
ENDMDL
MODEL 3
REMARK VINA RESULT:      -8.1      0.884      2.021
REMARK  Name = 
REMARK  8 active torsions:
REMARK  status: ('A' for Active; 'I' for Inactive)
REMARK    1  A    between atoms: C_1  and  O_2
REMARK    2  A    between atoms: O_2  and  C_3
REMARK    3  A    between atoms: C_6  and  C_7
REMARK    4  A    between atoms: N_9  and  C_10
REMARK    5  A    between atoms: N_9  and  C_17
REMARK    6  A    between atoms: C_13  and  C_14
REMARK    7  A    between atoms: C_25  and  O_26
REMARK    8  A    between atoms: O_26  and  C_27
REMARK                            x       y       z     vdW  Elec       q    Type
REMARK                         _______ _______ _______ _____ _____    ______ ____
ROOT
ATOM      1  C   UNL     1       3.175   7.549  17.552  0.00  0.00    +0.000 C 
ATOM      2  O   UNL     1       3.695   8.147  16.603  0.00  0.00    +0.000 OA
ATOM      3  N   UNL     1       3.552   6.227  17.868  0.00  0.00    +0.000 N 
ENDROOT
BRANCH   3   4
ATOM      4  C   UNL     1       2.870   5.394  18.784  0.00  0.00    +0.000 A 
ATOM      5  C   UNL     1       1.820   4.570  18.370  0.00  0.00    +0.000 A 
ATOM      6  C   UNL     1       1.257   3.662  19.277  0.00  0.00    +0.000 A 
ATOM      7  C   UNL     1       1.717   3.599  20.601  0.00  0.00    +0.000 A 
ATOM      8  C   UNL     1       1.189   2.590  21.575  0.00  0.00    +0.000 C 
ATOM      9  C   UNL     1       2.738   4.460  21.011  0.00  0.00    +0.000 A 
ATOM     10  C   UNL     1       3.320   5.341  20.105  0.00  0.00    +0.000 A 
ENDBRANCH   3   4
BRANCH   3  11
ATOM     11  C   UNL     1       4.716   5.655  17.157  0.00  0.00    +0.000 C 
ATOM     12  C   UNL     1       5.738   6.754  16.978  0.00  0.00    +0.000 C 
ATOM     13  C   UNL     1       6.925   6.584  17.569  0.00  0.00    +0.000 C 
ATOM     14  S   UNL     1       7.018   5.069  18.377  0.00  0.00    +0.000 S 
ATOM     15  O   UNL     1       8.073   4.286  17.785  0.00  0.00    +0.000 OA
ATOM     16  O   UNL     1       6.955   5.290  19.808  0.00  0.00    +0.000 OA
ATOM     17  C   UNL     1       5.444   4.451  17.782  0.00  0.00    +0.000 C 
ENDBRANCH   3  11
BRANCH   1  21
ATOM     18  C   UNL     1       0.094   9.679  19.722  0.00  0.00    +0.000 A 
ATOM     19  C   UNL     1       0.403   9.991  18.389  0.00  0.00    +0.000 A 
ATOM     20  C   UNL     1       1.405   9.294  17.701  0.00  0.00    +0.000 A 
ATOM     21  C   UNL     1       2.163   8.314  18.349  0.00  0.00    +0.000 A 
ATOM     22  C   UNL     1       1.976   8.169  19.723  0.00  0.00    +0.000 A 
ATOM     23  C   UNL     1       0.922   8.787  20.407  0.00  0.00    +0.000 A 
BRANCH  18  25
ATOM     24  C   UNL     1      -0.759  11.621  20.770  0.00  0.00    +0.000 C 
ATOM     25  O   UNL     1      -0.955  10.262  20.378  0.00  0.00    +0.000 OA
ENDBRANCH  18  25
BRANCH  23  26
ATOM     26  O   UNL     1       0.882   8.395  21.717  0.00  0.00    +0.000 OA
ATOM     27  C   UNL     1       1.402   9.260  22.712  0.00  0.00    +0.000 C 
ENDBRANCH  23  26
ENDBRANCH   1  21
TORSDOF 5
ENDMDL
MODEL 4
REMARK VINA RESULT:      -7.6      1.111      1.139
REMARK  Name = 
REMARK  8 active torsions:
REMARK  status: ('A' for Active; 'I' for Inactive)
REMARK    1  A    between atoms: C_1  and  O_2
REMARK    2  A    between atoms: O_2  and  C_3
REMARK    3  A    between atoms: C_6  and  C_7
REMARK    4  A    between atoms: N_9  and  C_10
REMARK    5  A    between atoms: N_9  and  C_17
REMARK    6  A    between atoms: C_13  and  C_14
REMARK    7  A    between atoms: C_25  and  O_26
REMARK    8  A    between atoms: O_26  and  C_27
REMARK                            x       y       z     vdW  Elec       q    Type
REMARK                         _______ _______ _______ _____ _____    ______ ____
ROOT
ATOM      1  C   UNL     1       2.911   8.156  17.876  0.00  0.00    +0.000 C 
ATOM      2  O   UNL     1       3.259   9.038  17.081  0.00  0.00    +0.000 OA
ATOM      3  N   UNL     1       3.498   6.874  17.837  0.00  0.00    +0.000 N 
ENDROOT
BRANCH   3   4
ATOM      4  C   UNL     1       3.021   5.751  18.550  0.00  0.00    +0.000 A 
ATOM      5  C   UNL     1       3.524   5.428  19.813  0.00  0.00    +0.000 A 
ATOM      6  C   UNL     1       2.934   4.387  20.544  0.00  0.00    +0.000 A 
ATOM      7  C   UNL     1       1.869   3.651  20.005  0.00  0.00    +0.000 A 
ATOM      8  C   UNL     1       1.167   2.583  20.789  0.00  0.00    +0.000 C 
ATOM      9  C   UNL     1       1.405   3.959  18.723  0.00  0.00    +0.000 A 
ATOM     10  C   UNL     1       1.968   5.011  18.007  0.00  0.00    +0.000 A 
ENDBRANCH   3   4
BRANCH   3  11
ATOM     11  C   UNL     1       4.667   6.679  16.953  0.00  0.00    +0.000 C 
ATOM     12  C   UNL     1       5.863   6.368  17.823  0.00  0.00    +0.000 C 
ATOM     13  C   UNL     1       6.445   5.176  17.657  0.00  0.00    +0.000 C 
ATOM     14  S   UNL     1       5.688   4.273  16.404  0.00  0.00    +0.000 S 
ATOM     15  O   UNL     1       6.650   4.019  15.362  0.00  0.00    +0.000 OA
ATOM     16  O   UNL     1       4.915   3.199  16.994  0.00  0.00    +0.000 OA
ATOM     17  C   UNL     1       4.598   5.591  15.867  0.00  0.00    +0.000 C 
ENDBRANCH   3  11
BRANCH   1  21
ATOM     18  C   UNL     1       0.069   9.350  20.914  0.00  0.00    +0.000 A 
ATOM     19  C   UNL     1       1.017   8.343  21.150  0.00  0.00    +0.000 A 
ATOM     20  C   UNL     1       1.928   7.966  20.156  0.00  0.00    +0.000 A 
ATOM     21  C   UNL     1       1.872   8.541  18.883  0.00  0.00    +0.000 A 
ATOM     22  C   UNL     1       0.795   9.386  18.614  0.00  0.00    +0.000 A 
ATOM     23  C   UNL     1      -0.069   9.845  19.615  0.00  0.00    +0.000 A 
BRANCH  18  25
ATOM     24  C   UNL     1      -0.264   9.668  23.235  0.00  0.00    +0.000 C 
ATOM     25  O   UNL     1      -0.753   9.818  21.902  0.00  0.00    +0.000 OA
ENDBRANCH  18  25
BRANCH  23  26
ATOM     26  O   UNL     1      -0.966  10.751  19.120  0.00  0.00    +0.000 OA
ATOM     27  C   UNL     1      -0.657  12.133  19.185  0.00  0.00    +0.000 C 
ENDBRANCH  23  26
ENDBRANCH   1  21
TORSDOF 5
ENDMDL
MODEL 5
REMARK VINA RESULT:      -7.5      1.192      1.560
REMARK  Name = 
REMARK  8 active torsions:
REMARK  status: ('A' for Active; 'I' for Inactive)
REMARK    1  A    between atoms: C_1  and  O_2
REMARK    2  A    between atoms: O_2  and  C_3
REMARK    3  A    between atoms: C_6  and  C_7
REMARK    4  A    between atoms: N_9  and  C_10
REMARK    5  A    between atoms: N_9  and  C_17
REMARK    6  A    between atoms: C_13  and  C_14
REMARK    7  A    between atoms: C_25  and  O_26
REMARK    8  A    between atoms: O_26  and  C_27
REMARK                            x       y       z     vdW  Elec       q    Type
REMARK                         _______ _______ _______ _____ _____    ______ ____
ROOT
ATOM      1  C   UNL     1       2.856   8.186  17.885  0.00  0.00    +0.000 C 
ATOM      2  O   UNL     1       3.342   8.973  17.064  0.00  0.00    +0.000 OA
ATOM      3  N   UNL     1       3.350   6.870  18.007  0.00  0.00    +0.000 N 
ENDROOT
BRANCH   3   4
ATOM      4  C   UNL     1       2.727   5.844  18.752  0.00  0.00    +0.000 A 
ATOM      5  C   UNL     1       1.805   4.978  18.159  0.00  0.00    +0.000 A 
ATOM      6  C   UNL     1       1.309   3.892  18.893  0.00  0.00    +0.000 A 
ATOM      7  C   UNL     1       1.706   3.689  20.223  0.00  0.00    +0.000 A 
ATOM      8  C   UNL     1       1.253   2.497  21.011  0.00  0.00    +0.000 C 
ATOM      9  C   UNL     1       2.596   4.589  20.814  0.00  0.00    +0.000 A 
ATOM     10  C   UNL     1       3.113   5.650  20.079  0.00  0.00    +0.000 A 
ENDBRANCH   3   4
BRANCH   3  11
ATOM     11  C   UNL     1       4.583   6.528  17.266  0.00  0.00    +0.000 C 
ATOM     12  C   UNL     1       5.594   6.003  18.259  0.00  0.00    +0.000 C 
ATOM     13  C   UNL     1       6.007   4.742  18.099  0.00  0.00    +0.000 C 
ATOM     14  S   UNL     1       5.295   4.014  16.713  0.00  0.00    +0.000 S 
ATOM     15  O   UNL     1       6.337   3.651  15.786  0.00  0.00    +0.000 OA
ATOM     16  O   UNL     1       4.298   3.053  17.140  0.00  0.00    +0.000 OA
ATOM     17  C   UNL     1       4.495   5.505  16.119  0.00  0.00    +0.000 C 
ENDBRANCH   3  11
BRANCH   1  21
ATOM     18  C   UNL     1      -0.178   9.840  20.492  0.00  0.00    +0.000 A 
ATOM     19  C   UNL     1       0.789   8.942  20.968  0.00  0.00    +0.000 A 
ATOM     20  C   UNL     1       1.763   8.413  20.111  0.00  0.00    +0.000 A 
ATOM     21  C   UNL     1       1.753   8.720  18.747  0.00  0.00    +0.000 A 
ATOM     22  C   UNL     1       0.664   9.446  18.266  0.00  0.00    +0.000 A 
ATOM     23  C   UNL     1      -0.265  10.059  19.115  0.00  0.00    +0.000 A 
BRANCH  18  25
ATOM     24  C   UNL     1      -0.671  10.540  22.698  0.00  0.00    +0.000 C 
ATOM     25  O   UNL     1      -1.065  10.460  21.327  0.00  0.00    +0.000 OA
ENDBRANCH  18  25
BRANCH  23  26
ATOM     26  O   UNL     1      -1.164  10.809  18.409  0.00  0.00    +0.000 OA
ATOM     27  C   UNL     1      -1.854  10.216  17.322  0.00  0.00    +0.000 C 
ENDBRANCH  23  26
ENDBRANCH   1  21
TORSDOF 5
ENDMDL
MODEL 6
REMARK VINA RESULT:      -7.1      3.005      6.383
REMARK  Name = 
REMARK  8 active torsions:
REMARK  status: ('A' for Active; 'I' for Inactive)
REMARK    1  A    between atoms: C_1  and  O_2
REMARK    2  A    between atoms: O_2  and  C_3
REMARK    3  A    between atoms: C_6  and  C_7
REMARK    4  A    between atoms: N_9  and  C_10
REMARK    5  A    between atoms: N_9  and  C_17
REMARK    6  A    between atoms: C_13  and  C_14
REMARK    7  A    between atoms: C_25  and  O_26
REMARK    8  A    between atoms: O_26  and  C_27
REMARK                            x       y       z     vdW  Elec       q    Type
REMARK                         _______ _______ _______ _____ _____    ______ ____
ROOT
ATOM      1  C   UNL     1       4.992   4.775  16.974  0.00  0.00    +0.000 C 
ATOM      2  O   UNL     1       5.310   3.907  16.153  0.00  0.00    +0.000 OA
ATOM      3  N   UNL     1       3.689   4.821  17.513  0.00  0.00    +0.000 N 
ENDROOT
BRANCH   3   4
ATOM      4  C   UNL     1       3.174   5.889  18.281  0.00  0.00    +0.000 A 
ATOM      5  C   UNL     1       2.715   7.061  17.674  0.00  0.00    +0.000 A 
ATOM      6  C   UNL     1       2.090   8.043  18.456  0.00  0.00    +0.000 A 
ATOM      7  C   UNL     1       1.953   7.871  19.841  0.00  0.00    +0.000 A 
ATOM      8  C   UNL     1       1.225   8.865  20.694  0.00  0.00    +0.000 C 
ATOM      9  C   UNL     1       2.456   6.712  20.439  0.00  0.00    +0.000 A 
ATOM     10  C   UNL     1       3.049   5.723  19.662  0.00  0.00    +0.000 A 
ENDBRANCH   3   4
BRANCH   3  11
ATOM     11  C   UNL     1       2.782   3.692  17.214  0.00  0.00    +0.000 C 
ATOM     12  C   UNL     1       3.340   2.456  17.880  0.00  0.00    +0.000 C 
ATOM     13  C   UNL     1       2.586   1.875  18.819  0.00  0.00    +0.000 C 
ATOM     14  S   UNL     1       1.079   2.683  19.007  0.00  0.00    +0.000 S 
ATOM     15  O   UNL     1       0.013   1.768  18.687  0.00  0.00    +0.000 OA
ATOM     16  O   UNL     1       1.088   3.423  20.253  0.00  0.00    +0.000 OA
ATOM     17  C   UNL     1       1.303   3.804  17.626  0.00  0.00    +0.000 C 
ENDBRANCH   3  11
BRANCH   1  21
ATOM     18  C   UNL     1       7.946   7.690  18.205  0.00  0.00    +0.000 A 
ATOM     19  C   UNL     1       7.083   7.930  17.126  0.00  0.00    +0.000 A 
ATOM     20  C   UNL     1       6.134   6.975  16.737  0.00  0.00    +0.000 A 
ATOM     21  C   UNL     1       6.069   5.735  17.378  0.00  0.00    +0.000 A 
ATOM     22  C   UNL     1       7.069   5.445  18.306  0.00  0.00    +0.000 A 
ATOM     23  C   UNL     1       7.966   6.414  18.772  0.00  0.00    +0.000 A 
BRANCH  18  25
ATOM     24  C   UNL     1       8.564   9.974  18.201  0.00  0.00    +0.000 C 
ATOM     25  O   UNL     1       8.800   8.648  18.677  0.00  0.00    +0.000 OA
ENDBRANCH  18  25
BRANCH  23  26
ATOM     26  O   UNL     1       8.768   5.914  19.761  0.00  0.00    +0.000 OA
ATOM     27  C   UNL     1       8.189   5.124  20.785  0.00  0.00    +0.000 C 
ENDBRANCH  23  26
ENDBRANCH   1  21
TORSDOF 5
ENDMDL
MODEL 7
REMARK VINA RESULT:      -7.0      7.231      9.976
REMARK  Name = 
REMARK  8 active torsions:
REMARK  status: ('A' for Active; 'I' for Inactive)
REMARK    1  A    between atoms: C_1  and  O_2
REMARK    2  A    between atoms: O_2  and  C_3
REMARK    3  A    between atoms: C_6  and  C_7
REMARK    4  A    between atoms: N_9  and  C_10
REMARK    5  A    between atoms: N_9  and  C_17
REMARK    6  A    between atoms: C_13  and  C_14
REMARK    7  A    between atoms: C_25  and  O_26
REMARK    8  A    between atoms: O_26  and  C_27
REMARK                            x       y       z     vdW  Elec       q    Type
REMARK                         _______ _______ _______ _____ _____    ______ ____
ROOT
ATOM      1  C   UNL     1       0.035  14.417  22.238  0.00  0.00    +0.000 C 
ATOM      2  O   UNL     1       0.273  15.023  23.289  0.00  0.00    +0.000 OA
ATOM      3  N   UNL     1      -1.032  13.498  22.157  0.00  0.00    +0.000 N 
ENDROOT
BRANCH   3   4
ATOM      4  C   UNL     1      -1.246  12.607  21.082  0.00  0.00    +0.000 A 
ATOM      5  C   UNL     1      -2.068  12.955  20.006  0.00  0.00    +0.000 A 
ATOM      6  C   UNL     1      -2.150  12.101  18.897  0.00  0.00    +0.000 A 
ATOM      7  C   UNL     1      -1.440  10.891  18.875  0.00  0.00    +0.000 A 
ATOM      8  C   UNL     1      -1.447   9.993  17.675  0.00  0.00    +0.000 C 
ATOM      9  C   UNL     1      -0.656  10.539  19.976  0.00  0.00    +0.000 A 
ATOM     10  C   UNL     1      -0.549  11.397  21.065  0.00  0.00    +0.000 A 
ENDBRANCH   3   4
BRANCH   3  11
ATOM     11  C   UNL     1      -1.968  13.430  23.301  0.00  0.00    +0.000 C 
ATOM     12  C   UNL     1      -2.880  14.633  23.229  0.00  0.00    +0.000 C 
ATOM     13  C   UNL     1      -4.187  14.398  23.072  0.00  0.00    +0.000 C 
ATOM     14  S   UNL     1      -4.527  12.712  23.041  0.00  0.00    +0.000 S 
ATOM     15  O   UNL     1      -5.394  12.389  24.146  0.00  0.00    +0.000 OA
ATOM     16  O   UNL     1      -4.855  12.318  21.686  0.00  0.00    +0.000 OA
ATOM     17  C   UNL     1      -2.862  12.186  23.449  0.00  0.00    +0.000 C 
ENDBRANCH   3  11
BRANCH   1  21
ATOM     18  C   UNL     1       2.553  15.141  18.791  0.00  0.00    +0.000 A 
ATOM     19  C   UNL     1       2.939  14.258  19.811  0.00  0.00    +0.000 A 
ATOM     20  C   UNL     1       2.115  14.036  20.922  0.00  0.00    +0.000 A 
ATOM     21  C   UNL     1       0.916  14.739  21.070  0.00  0.00    +0.000 A 
ATOM     22  C   UNL     1       0.656  15.756  20.150  0.00  0.00    +0.000 A 
ATOM     23  C   UNL     1       1.417  15.930  18.988  0.00  0.00    +0.000 A 
BRANCH  18  25
ATOM     24  C   UNL     1       4.686  15.068  17.773  0.00  0.00    +0.000 C 
ATOM     25  O   UNL     1       3.281  15.286  17.644  0.00  0.00    +0.000 OA
ENDBRANCH  18  25
BRANCH  23  26
ATOM     26  O   UNL     1       0.892  16.912  18.194  0.00  0.00    +0.000 OA
ATOM     27  C   UNL     1      -0.515  17.052  18.109  0.00  0.00    +0.000 C 
ENDBRANCH  23  26
ENDBRANCH   1  21
TORSDOF 5
ENDMDL
MODEL 8
REMARK VINA RESULT:      -6.8      7.248     10.107
REMARK  Name = 
REMARK  8 active torsions:
REMARK  status: ('A' for Active; 'I' for Inactive)
REMARK    1  A    between atoms: C_1  and  O_2
REMARK    2  A    between atoms: O_2  and  C_3
REMARK    3  A    between atoms: C_6  and  C_7
REMARK    4  A    between atoms: N_9  and  C_10
REMARK    5  A    between atoms: N_9  and  C_17
REMARK    6  A    between atoms: C_13  and  C_14
REMARK    7  A    between atoms: C_25  and  O_26
REMARK    8  A    between atoms: O_26  and  C_27
REMARK                            x       y       z     vdW  Elec       q    Type
REMARK                         _______ _______ _______ _____ _____    ______ ____
ROOT
ATOM      1  C   UNL     1       0.160  14.890  21.927  0.00  0.00    +0.000 C 
ATOM      2  O   UNL     1       0.432  15.466  22.987  0.00  0.00    +0.000 OA
ATOM      3  N   UNL     1      -0.589  13.695  21.924  0.00  0.00    +0.000 N 
ENDROOT
BRANCH   3   4
ATOM      4  C   UNL     1      -0.762  12.859  20.798  0.00  0.00    +0.000 A 
ATOM      5  C   UNL     1       0.136  11.825  20.518  0.00  0.00    +0.000 A 
ATOM      6  C   UNL     1      -0.141  10.936  19.471  0.00  0.00    +0.000 A 
ATOM      7  C   UNL     1      -1.292  11.096  18.685  0.00  0.00    +0.000 A 
ATOM      8  C   UNL     1      -1.656  10.120  17.607  0.00  0.00    +0.000 C 
ATOM      9  C   UNL     1      -2.158  12.160  18.951  0.00  0.00    +0.000 A 
ATOM     10  C   UNL     1      -1.902  13.026  20.008  0.00  0.00    +0.000 A 
ENDBRANCH   3   4
BRANCH   3  11
ATOM     11  C   UNL     1      -1.196  13.261  23.200  0.00  0.00    +0.000 C 
ATOM     12  C   UNL     1      -2.076  14.382  23.703  0.00  0.00    +0.000 C 
ATOM     13  C   UNL     1      -3.382  14.125  23.823  0.00  0.00    +0.000 C 
ATOM     14  S   UNL     1      -3.747  12.496  23.408  0.00  0.00    +0.000 S 
ATOM     15  O   UNL     1      -4.303  11.832  24.560  0.00  0.00    +0.000 OA
ATOM     16  O   UNL     1      -4.421  12.472  22.126  0.00  0.00    +0.000 OA
ATOM     17  C   UNL     1      -2.042  11.975  23.215  0.00  0.00    +0.000 C 
ENDBRANCH   3  11
BRANCH   1  21
ATOM     18  C   UNL     1       1.517  16.993  18.395  0.00  0.00    +0.000 A 
ATOM     19  C   UNL     1       0.199  17.115  18.862  0.00  0.00    +0.000 A 
ATOM     20  C   UNL     1      -0.226  16.425  20.005  0.00  0.00    +0.000 A 
ATOM     21  C   UNL     1       0.637  15.550  20.670  0.00  0.00    +0.000 A 
ATOM     22  C   UNL     1       1.869  15.292  20.069  0.00  0.00    +0.000 A 
ATOM     23  C   UNL     1       2.346  16.036  18.983  0.00  0.00    +0.000 A 
BRANCH  18  25
ATOM     24  C   UNL     1       0.996  18.402  16.567  0.00  0.00    +0.000 C 
ATOM     25  O   UNL     1       1.989  17.743  17.354  0.00  0.00    +0.000 OA
ENDBRANCH  18  25
BRANCH  23  26
ATOM     26  O   UNL     1       3.623  15.671  18.654  0.00  0.00    +0.000 OA
ATOM     27  C   UNL     1       3.906  14.307  18.397  0.00  0.00    +0.000 C 
ENDBRANCH  23  26
ENDBRANCH   1  21
TORSDOF 5
ENDMDL
MODEL 9
REMARK VINA RESULT:      -6.8      1.368      2.624
REMARK  Name = 
REMARK  8 active torsions:
REMARK  status: ('A' for Active; 'I' for Inactive)
REMARK    1  A    between atoms: C_1  and  O_2
REMARK    2  A    between atoms: O_2  and  C_3
REMARK    3  A    between atoms: C_6  and  C_7
REMARK    4  A    between atoms: N_9  and  C_10
REMARK    5  A    between atoms: N_9  and  C_17
REMARK    6  A    between atoms: C_13  and  C_14
REMARK    7  A    between atoms: C_25  and  O_26
REMARK    8  A    between atoms: O_26  and  C_27
REMARK                            x       y       z     vdW  Elec       q    Type
REMARK                         _______ _______ _______ _____ _____    ______ ____
ROOT
ATOM      1  C   UNL     1       3.701   6.908  17.844  0.00  0.00    +0.000 C 
ATOM      2  O   UNL     1       4.383   7.393  16.933  0.00  0.00    +0.000 OA
ATOM      3  N   UNL     1       3.952   5.604  18.320  0.00  0.00    +0.000 N 
ENDROOT
BRANCH   3   4
ATOM      4  C   UNL     1       3.101   4.891  19.194  0.00  0.00    +0.000 A 
ATOM      5  C   UNL     1       1.895   4.345  18.744  0.00  0.00    +0.000 A 
ATOM      6  C   UNL     1       1.143   3.533  19.604  0.00  0.00    +0.000 A 
ATOM      7  C   UNL     1       1.576   3.292  20.917  0.00  0.00    +0.000 A 
ATOM      8  C   UNL     1       0.835   2.369  21.837  0.00  0.00    +0.000 C 
ATOM      9  C   UNL     1       2.762   3.879  21.364  0.00  0.00    +0.000 A 
ATOM     10  C   UNL     1       3.525   4.661  20.504  0.00  0.00    +0.000 A 
ENDBRANCH   3   4
BRANCH   3  11
ATOM     11  C   UNL     1       5.168   4.917  17.834  0.00  0.00    +0.000 C 
ATOM     12  C   UNL     1       4.743   3.873  16.827  0.00  0.00    +0.000 C 
ATOM     13  C   UNL     1       5.193   4.014  15.576  0.00  0.00    +0.000 C 
ATOM     14  S   UNL     1       6.231   5.378  15.427  0.00  0.00    +0.000 S 
ATOM     15  O   UNL     1       7.539   4.929  15.020  0.00  0.00    +0.000 OA
ATOM     16  O   UNL     1       5.537   6.428  14.710  0.00  0.00    +0.000 OA
ATOM     17  C   UNL     1       6.278   5.758  17.179  0.00  0.00    +0.000 C 
ENDBRANCH   3  11
BRANCH   1  21
ATOM     18  C   UNL     1       0.479   9.367  19.363  0.00  0.00    +0.000 A 
ATOM     19  C   UNL     1       0.982   9.536  18.064  0.00  0.00    +0.000 A 
ATOM     20  C   UNL     1       2.028   8.734  17.588  0.00  0.00    +0.000 A 
ATOM     21  C   UNL     1       2.635   7.789  18.420  0.00  0.00    +0.000 A 
ATOM     22  C   UNL     1       2.256   7.785  19.762  0.00  0.00    +0.000 A 
ATOM     23  C   UNL     1       1.155   8.510  20.234  0.00  0.00    +0.000 A 
BRANCH  18  25
ATOM     24  C   UNL     1      -1.145  11.027  18.911  0.00  0.00    +0.000 C 
ATOM     25  O   UNL     1      -0.615  10.054  19.812  0.00  0.00    +0.000 OA
ENDBRANCH  18  25
BRANCH  23  26
ATOM     26  O   UNL     1       0.917   8.247  21.555  0.00  0.00    +0.000 OA
ATOM     27  C   UNL     1       1.194   9.249  22.518  0.00  0.00    +0.000 C 
ENDBRANCH  23  26
ENDBRANCH   1  21
TORSDOF 5
ENDMDL
