MODEL 1
REMARK VINA RESULT:      -7.3      0.000      0.000
REMARK  Name = 
REMARK  6 active torsions:
REMARK  status: ('A' for Active; 'I' for Inactive)
REMARK    1  A    between atoms: C_1  and  C_2
REMARK    2  A    between atoms: C_2  and  C_3
REMARK    3  A    between atoms: C_3  and  N_4
REMARK    4  A    between atoms: C_8  and  N_9
REMARK    5  A    between atoms: N_9  and  C_10
REMARK    6  A    between atoms: C_22  and  C_23
REMARK                            x       y       z     vdW  Elec       q    Type
REMARK                         _______ _______ _______ _____ _____    ______ ____
ROOT
ATOM      1  N   UNL     1      -0.069  10.745  19.088  0.00  0.00    +0.000 N 
ATOM      2  C   UNL     1       1.158  10.060  18.944  0.00  0.00    +0.000 C 
ATOM      3  O   UNL     1       1.892  10.114  17.947  0.00  0.00    +0.000 OA
ATOM      4  C   UNL     1       1.422   9.076  19.989  0.00  0.00    +0.000 C 
ATOM      5  C   UNL     1       1.701   7.817  19.651  0.00  0.00    +0.000 C 
ATOM      6  C   UNL     1       1.120   9.421  21.380  0.00  0.00    +0.000 C 
ATOM      7  O   UNL     1       1.698   8.929  22.316  0.00  0.00    +0.000 OA
ATOM      8  C   UNL     1      -0.017  10.368  21.534  0.00  0.00    +0.000 A 
ATOM      9  C   UNL     1      -0.406  10.506  22.884  0.00  0.00    +0.000 A 
ATOM     10  C   UNL     1      -1.521  11.233  23.218  0.00  0.00    +0.000 A 
ATOM     11  C   UNL     1      -2.216  11.845  22.200  0.00  0.00    +0.000 A 
ATOM     12  C   UNL     1      -1.817  11.791  20.817  0.00  0.00    +0.000 A 
ATOM     13  C   UNL     1      -2.703  12.750  20.040  0.00  0.00    +0.000 C 
ATOM     14  C   UNL     1      -0.683  10.981  20.427  0.00  0.00    +0.000 A 
ENDROOT
BRANCH   5  15
ATOM     15  N   UNL     1       1.751   6.709  20.479  0.00  0.00    +0.000 N 
ATOM     16  H   UNL     1       1.137   6.766  21.295  0.00  0.00    +0.000 HD
BRANCH  15  17
ATOM     17  C   UNL     1       2.661   5.575  20.400  0.00  0.00    +0.000 C 
ATOM     18  C   UNL     1       2.023   4.327  21.021  0.00  0.00    +0.000 C 
ATOM     19  C   UNL     1       0.864   3.772  20.191  0.00  0.00    +0.000 C 
ATOM     20  C   UNL     1       1.273   3.516  18.743  0.00  0.00    +0.000 C 
ATOM     21  C   UNL     1       1.893   4.753  18.104  0.00  0.00    +0.000 C 
ATOM     22  C   UNL     1       3.055   5.298  18.939  0.00  0.00    +0.000 C 
ENDBRANCH  15  17
ENDBRANCH   5  15
BRANCH   1  23
ATOM     23  C   UNL     1      -0.683  10.892  17.778  0.00  0.00    +0.000 C 
BRANCH  23  25
ATOM     24  C   UNL     1      -2.692   9.929  16.240  0.00  0.00    +0.000 C 
ATOM     25  C   UNL     1      -1.894  10.007  17.535  0.00  0.00    +0.000 C 
ENDBRANCH  23  25
ENDBRANCH   1  23
TORSDOF 4
ENDMDL
MODEL 2
REMARK VINA RESULT:      -6.6      3.432      7.956
REMARK  Name = 
REMARK  6 active torsions:
REMARK  status: ('A' for Active; 'I' for Inactive)
REMARK    1  A    between atoms: C_1  and  C_2
REMARK    2  A    between atoms: C_2  and  C_3
REMARK    3  A    between atoms: C_3  and  N_4
REMARK    4  A    between atoms: C_8  and  N_9
REMARK    5  A    between atoms: N_9  and  C_10
REMARK    6  A    between atoms: C_22  and  C_23
REMARK                            x       y       z     vdW  Elec       q    Type
REMARK                         _______ _______ _______ _____ _____    ______ ____
ROOT
ATOM      1  N   UNL     1      -0.180  11.548  20.604  0.00  0.00    +0.000 N 
ATOM      2  C   UNL     1      -0.651  12.553  21.477  0.00  0.00    +0.000 C 
ATOM      3  O   UNL     1       0.053  13.207  22.259  0.00  0.00    +0.000 OA
ATOM      4  C   UNL     1      -2.106  12.635  21.567  0.00  0.00    +0.000 C 
ATOM      5  C   UNL     1      -2.695  12.568  22.761  0.00  0.00    +0.000 C 
ATOM      6  C   UNL     1      -2.900  12.525  20.341  0.00  0.00    +0.000 C 
ATOM      7  O   UNL     1      -3.989  13.024  20.221  0.00  0.00    +0.000 OA
ATOM      8  C   UNL     1      -2.276  11.672  19.294  0.00  0.00    +0.000 A 
ATOM      9  C   UNL     1      -3.162  11.423  18.223  0.00  0.00    +0.000 A 
ATOM     10  C   UNL     1      -2.820  10.549  17.222  0.00  0.00    +0.000 A 
ATOM     11  C   UNL     1      -1.577   9.960  17.283  0.00  0.00    +0.000 A 
ATOM     12  C   UNL     1      -0.613  10.238  18.316  0.00  0.00    +0.000 A 
ATOM     13  C   UNL     1       0.694   9.568  17.925  0.00  0.00    +0.000 C 
ATOM     14  C   UNL     1      -0.969  11.105  19.418  0.00  0.00    +0.000 A 
ENDROOT
BRANCH   5  15
ATOM     15  N   UNL     1      -4.042  12.397  23.033  0.00  0.00    +0.000 N 
ATOM     16  H   UNL     1      -4.523  11.764  22.390  0.00  0.00    +0.000 HD
BRANCH  15  17
ATOM     17  C   UNL     1      -4.854  13.110  24.009  0.00  0.00    +0.000 C 
ATOM     18  C   UNL     1      -4.645  14.623  23.880  0.00  0.00    +0.000 C 
ATOM     19  C   UNL     1      -5.239  15.202  22.595  0.00  0.00    +0.000 C 
ATOM     20  C   UNL     1      -6.712  14.837  22.434  0.00  0.00    +0.000 C 
ATOM     21  C   UNL     1      -6.936  13.333  22.541  0.00  0.00    +0.000 C 
ATOM     22  C   UNL     1      -6.342  12.764  23.833  0.00  0.00    +0.000 C 
ENDBRANCH  15  17
ENDBRANCH   5  15
BRANCH   1  23
ATOM     23  C   UNL     1       0.974  10.902  21.209  0.00  0.00    +0.000 C 
BRANCH  23  25
ATOM     24  C   UNL     1      -0.468   9.221  22.767  0.00  0.00    +0.000 C 
ATOM     25  C   UNL     1       0.693   9.547  21.836  0.00  0.00    +0.000 C 
ENDBRANCH  23  25
ENDBRANCH   1  23
TORSDOF 4
ENDMDL
MODEL 3
REMARK VINA RESULT:      -6.5      1.924      3.573
REMARK  Name = 
REMARK  6 active torsions:
REMARK  status: ('A' for Active; 'I' for Inactive)
REMARK    1  A    between atoms: C_1  and  C_2
REMARK    2  A    between atoms: C_2  and  C_3
REMARK    3  A    between atoms: C_3  and  N_4
REMARK    4  A    between atoms: C_8  and  N_9
REMARK    5  A    between atoms: N_9  and  C_10
REMARK    6  A    between atoms: C_22  and  C_23
REMARK                            x       y       z     vdW  Elec       q    Type
REMARK                         _______ _______ _______ _____ _____    ______ ____
ROOT
ATOM      1  N   UNL     1       0.267  10.260  21.388  0.00  0.00    +0.000 N 
ATOM      2  C   UNL     1       0.049   8.900  21.075  0.00  0.00    +0.000 C 
ATOM      3  O   UNL     1      -0.764   8.158  21.644  0.00  0.00    +0.000 OA
ATOM      4  C   UNL     1       1.026   8.333  20.149  0.00  0.00    +0.000 C 
ATOM      5  C   UNL     1       1.688   7.228  20.488  0.00  0.00    +0.000 C 
ATOM      6  C   UNL     1       1.448   9.126  18.992  0.00  0.00    +0.000 C 
ATOM      7  O   UNL     1       1.843   8.628  17.968  0.00  0.00    +0.000 OA
ATOM      8  C   UNL     1       1.424  10.594  19.226  0.00  0.00    +0.000 A 
ATOM      9  C   UNL     1       2.035  11.305  18.169  0.00  0.00    +0.000 A 
ATOM     10  C   UNL     1       2.230  12.659  18.259  0.00  0.00    +0.000 A 
ATOM     11  C   UNL     1       1.780  13.298  19.392  0.00  0.00    +0.000 A 
ATOM     12  C   UNL     1       1.089  12.628  20.463  0.00  0.00    +0.000 A 
ATOM     13  C   UNL     1       0.573  13.690  21.420  0.00  0.00    +0.000 C 
ATOM     14  C   UNL     1       0.924  11.191  20.425  0.00  0.00    +0.000 A 
ENDROOT
BRANCH   5  15
ATOM     15  N   UNL     1       2.795   6.678  19.865  0.00  0.00    +0.000 N 
ATOM     16  H   UNL     1       3.234   7.290  19.173  0.00  0.00    +0.000 HD
BRANCH  15  17
ATOM     17  C   UNL     1       3.296   5.315  19.972  0.00  0.00    +0.000 C 
ATOM     18  C   UNL     1       2.331   4.449  20.790  0.00  0.00    +0.000 C 
ATOM     19  C   UNL     1       1.015   4.171  20.062  0.00  0.00    +0.000 C 
ATOM     20  C   UNL     1       1.246   3.576  18.676  0.00  0.00    +0.000 C 
ATOM     21  C   UNL     1       2.190   4.434  17.842  0.00  0.00    +0.000 C 
ATOM     22  C   UNL     1       3.506   4.703  18.577  0.00  0.00    +0.000 C 
ENDBRANCH  15  17
ENDBRANCH   5  15
BRANCH   1  23
ATOM     23  C   UNL     1       0.012  10.463  22.805  0.00  0.00    +0.000 C 
BRANCH  23  25
ATOM     24  C   UNL     1      -2.042  12.207  23.067  0.00  0.00    +0.000 C 
ATOM     25  C   UNL     1      -1.424  10.817  23.153  0.00  0.00    +0.000 C 
ENDBRANCH  23  25
ENDBRANCH   1  23
TORSDOF 4
ENDMDL
MODEL 4
REMARK VINA RESULT:      -6.4      1.104      1.570
REMARK  Name = 
REMARK  6 active torsions:
REMARK  status: ('A' for Active; 'I' for Inactive)
REMARK    1  A    between atoms: C_1  and  C_2
REMARK    2  A    between atoms: C_2  and  C_3
REMARK    3  A    between atoms: C_3  and  N_4
REMARK    4  A    between atoms: C_8  and  N_9
REMARK    5  A    between atoms: N_9  and  C_10
REMARK    6  A    between atoms: C_22  and  C_23
REMARK                            x       y       z     vdW  Elec       q    Type
REMARK                         _______ _______ _______ _____ _____    ______ ____
ROOT
ATOM      1  N   UNL     1       0.439  10.313  18.983  0.00  0.00    +0.000 N 
ATOM      2  C   UNL     1       1.508   9.582  18.419  0.00  0.00    +0.000 C 
ATOM      3  O   UNL     1       2.078   9.860  17.354  0.00  0.00    +0.000 OA
ATOM      4  C   UNL     1       1.776   8.307  19.076  0.00  0.00    +0.000 C 
ATOM      5  C   UNL     1       1.801   7.188  18.353  0.00  0.00    +0.000 C 
ATOM      6  C   UNL     1       1.751   8.245  20.540  0.00  0.00    +0.000 C 
ATOM      7  O   UNL     1       2.384   7.436  21.170  0.00  0.00    +0.000 OA
ATOM      8  C   UNL     1       0.811   9.211  21.168  0.00  0.00    +0.000 A 
ATOM      9  C   UNL     1       0.661   8.974  22.552  0.00  0.00    +0.000 A 
ATOM     10  C   UNL     1      -0.262   9.675  23.285  0.00  0.00    +0.000 A 
ATOM     11  C   UNL     1      -1.004  10.634  22.633  0.00  0.00    +0.000 A 
ATOM     12  C   UNL     1      -0.837  10.959  21.240  0.00  0.00    +0.000 A 
ATOM     13  C   UNL     1      -1.674  12.194  20.947  0.00  0.00    +0.000 C 
ATOM     14  C   UNL     1       0.084  10.194  20.427  0.00  0.00    +0.000 A 
ENDROOT
BRANCH   5  15
ATOM     15  N   UNL     1       1.808   5.881  18.813  0.00  0.00    +0.000 N 
ATOM     16  H   UNL     1       1.148   5.701  19.573  0.00  0.00    +0.000 HD
BRANCH  15  17
ATOM     17  C   UNL     1       2.724   4.810  18.448  0.00  0.00    +0.000 C 
ATOM     18  C   UNL     1       3.439   4.267  19.689  0.00  0.00    +0.000 C 
ATOM     19  C   UNL     1       2.510   3.489  20.623  0.00  0.00    +0.000 C 
ATOM     20  C   UNL     1       1.766   2.377  19.888  0.00  0.00    +0.000 C 
ATOM     21  C   UNL     1       1.033   2.904  18.659  0.00  0.00    +0.000 C 
ATOM     22  C   UNL     1       1.973   3.677  17.729  0.00  0.00    +0.000 C 
ENDBRANCH  15  17
ENDBRANCH   5  15
BRANCH   1  23
ATOM     23  C   UNL     1      -0.340  10.910  17.911  0.00  0.00    +0.000 C 
BRANCH  23  25
ATOM     24  C   UNL     1      -2.967  10.411  17.484  0.00  0.00    +0.000 C 
ATOM     25  C   UNL     1      -1.488  10.056  17.400  0.00  0.00    +0.000 C 
ENDBRANCH  23  25
ENDBRANCH   1  23
TORSDOF 4
ENDMDL
MODEL 5
REMARK VINA RESULT:      -6.3      3.246      7.820
REMARK  Name = 
REMARK  6 active torsions:
REMARK  status: ('A' for Active; 'I' for Inactive)
REMARK    1  A    between atoms: C_1  and  C_2
REMARK    2  A    between atoms: C_2  and  C_3
REMARK    3  A    between atoms: C_3  and  N_4
REMARK    4  A    between atoms: C_8  and  N_9
REMARK    5  A    between atoms: N_9  and  C_10
REMARK    6  A    between atoms: C_22  and  C_23
REMARK                            x       y       z     vdW  Elec       q    Type
REMARK                         _______ _______ _______ _____ _____    ______ ____
ROOT
ATOM      1  N   UNL     1      -0.181  11.441  20.643  0.00  0.00    +0.000 N 
ATOM      2  C   UNL     1      -0.731  12.480  21.426  0.00  0.00    +0.000 C 
ATOM      3  O   UNL     1      -0.115  13.130  22.282  0.00  0.00    +0.000 OA
ATOM      4  C   UNL     1      -2.182  12.608  21.319  0.00  0.00    +0.000 C 
ATOM      5  C   UNL     1      -2.926  12.588  22.424  0.00  0.00    +0.000 C 
ATOM      6  C   UNL     1      -2.808  12.494  20.000  0.00  0.00    +0.000 C 
ATOM      7  O   UNL     1      -3.854  13.024  19.725  0.00  0.00    +0.000 OA
ATOM      8  C   UNL     1      -2.079  11.599  19.062  0.00  0.00    +0.000 A 
ATOM      9  C   UNL     1      -2.823  11.352  17.887  0.00  0.00    +0.000 A 
ATOM     10  C   UNL     1      -2.380  10.445  16.958  0.00  0.00    +0.000 A 
ATOM     11  C   UNL     1      -1.177   9.820  17.195  0.00  0.00    +0.000 A 
ATOM     12  C   UNL     1      -0.350  10.092  18.343  0.00  0.00    +0.000 A 
ATOM     13  C   UNL     1       0.974   9.373  18.143  0.00  0.00    +0.000 C 
ATOM     14  C   UNL     1      -0.820  10.995  19.371  0.00  0.00    +0.000 A 
ENDROOT
BRANCH   5  15
ATOM     15  N   UNL     1      -4.302  12.465  22.517  0.00  0.00    +0.000 N 
ATOM     16  H   UNL     1      -4.652  11.520  22.339  0.00  0.00    +0.000 HD
BRANCH  15  17
ATOM     17  C   UNL     1      -5.284  13.526  22.685  0.00  0.00    +0.000 C 
ATOM     18  C   UNL     1      -6.348  13.456  21.584  0.00  0.00    +0.000 C 
ATOM     19  C   UNL     1      -7.269  12.243  21.718  0.00  0.00    +0.000 C 
ATOM     20  C   UNL     1      -7.908  12.165  23.102  0.00  0.00    +0.000 C 
ATOM     21  C   UNL     1      -6.863  12.215  24.211  0.00  0.00    +0.000 C 
ATOM     22  C   UNL     1      -5.948  13.434  24.070  0.00  0.00    +0.000 C 
ENDBRANCH  15  17
ENDBRANCH   5  15
BRANCH   1  23
ATOM     23  C   UNL     1       0.858  10.774  21.410  0.00  0.00    +0.000 C 
BRANCH  23  25
ATOM     24  C   UNL     1      -0.346   8.372  21.740  0.00  0.00    +0.000 C 
ATOM     25  C   UNL     1       0.381   9.607  22.257  0.00  0.00    +0.000 C 
ENDBRANCH  23  25
ENDBRANCH   1  23
TORSDOF 4
ENDMDL
MODEL 6
REMARK VINA RESULT:      -6.3      0.985      1.542
REMARK  Name = 
REMARK  6 active torsions:
REMARK  status: ('A' for Active; 'I' for Inactive)
REMARK    1  A    between atoms: C_1  and  C_2
REMARK    2  A    between atoms: C_2  and  C_3
REMARK    3  A    between atoms: C_3  and  N_4
REMARK    4  A    between atoms: C_8  and  N_9
REMARK    5  A    between atoms: N_9  and  C_10
REMARK    6  A    between atoms: C_22  and  C_23
REMARK                            x       y       z     vdW  Elec       q    Type
REMARK                         _______ _______ _______ _____ _____    ______ ____
ROOT
ATOM      1  N   UNL     1       0.367  10.079  18.904  0.00  0.00    +0.000 N 
ATOM      2  C   UNL     1       1.509   9.269  18.719  0.00  0.00    +0.000 C 
ATOM      3  O   UNL     1       2.217   9.255  17.703  0.00  0.00    +0.000 OA
ATOM      4  C   UNL     1       1.694   8.250  19.749  0.00  0.00    +0.000 C 
ATOM      5  C   UNL     1       1.828   6.973  19.392  0.00  0.00    +0.000 C 
ATOM      6  C   UNL     1       1.469   8.609  21.151  0.00  0.00    +0.000 C 
ATOM      7  O   UNL     1       2.016   8.047  22.065  0.00  0.00    +0.000 OA
ATOM      8  C   UNL     1       0.445   9.670  21.344  0.00  0.00    +0.000 A 
ATOM      9  C   UNL     1       0.109   9.834  22.706  0.00  0.00    +0.000 A 
ATOM     10  C   UNL     1      -0.912  10.672  23.077  0.00  0.00    +0.000 A 
ATOM     11  C   UNL     1      -1.565  11.366  22.084  0.00  0.00    +0.000 A 
ATOM     12  C   UNL     1      -1.211  11.285  20.690  0.00  0.00    +0.000 A 
ATOM     13  C   UNL     1      -2.010  12.343  19.946  0.00  0.00    +0.000 C 
ATOM     14  C   UNL     1      -0.182  10.364  20.262  0.00  0.00    +0.000 A 
ENDROOT
BRANCH   5  15
ATOM     15  N   UNL     1       1.781   5.855  20.209  0.00  0.00    +0.000 N 
ATOM     16  H   UNL     1       2.398   5.905  21.023  0.00  0.00    +0.000 HD
BRANCH  15  17
ATOM     17  C   UNL     1       1.088   4.599  19.964  0.00  0.00    +0.000 C 
ATOM     18  C   UNL     1       1.476   4.026  18.596  0.00  0.00    +0.000 C 
ATOM     19  C   UNL     1       2.920   3.526  18.546  0.00  0.00    +0.000 C 
ATOM     20  C   UNL     1       3.216   2.527  19.661  0.00  0.00    +0.000 C 
ATOM     21  C   UNL     1       2.852   3.087  21.032  0.00  0.00    +0.000 C 
ATOM     22  C   UNL     1       1.404   3.581  21.074  0.00  0.00    +0.000 C 
ENDBRANCH  15  17
ENDBRANCH   5  15
BRANCH   1  23
ATOM     23  C   UNL     1      -0.263  10.305  17.613  0.00  0.00    +0.000 C 
BRANCH  23  25
ATOM     24  C   UNL     1      -2.643  10.044  16.349  0.00  0.00    +0.000 C 
ATOM     25  C   UNL     1      -1.664   9.734  17.474  0.00  0.00    +0.000 C 
ENDBRANCH  23  25
ENDBRANCH   1  23
TORSDOF 4
ENDMDL
MODEL 7
REMARK VINA RESULT:      -6.3      1.993      7.650
REMARK  Name = 
REMARK  6 active torsions:
REMARK  status: ('A' for Active; 'I' for Inactive)
REMARK    1  A    between atoms: C_1  and  C_2
REMARK    2  A    between atoms: C_2  and  C_3
REMARK    3  A    between atoms: C_3  and  N_4
REMARK    4  A    between atoms: C_8  and  N_9
REMARK    5  A    between atoms: N_9  and  C_10
REMARK    6  A    between atoms: C_22  and  C_23
REMARK                            x       y       z     vdW  Elec       q    Type
REMARK                         _______ _______ _______ _____ _____    ______ ____
ROOT
ATOM      1  N   UNL     1       2.080   4.869  19.431  0.00  0.00    +0.000 N 
ATOM      2  C   UNL     1       2.063   6.131  20.066  0.00  0.00    +0.000 C 
ATOM      3  O   UNL     1       1.617   6.352  21.201  0.00  0.00    +0.000 OA
ATOM      4  C   UNL     1       2.419   7.246  19.194  0.00  0.00    +0.000 C 
ATOM      5  C   UNL     1       1.590   8.284  19.084  0.00  0.00    +0.000 C 
ATOM      6  C   UNL     1       3.540   7.089  18.264  0.00  0.00    +0.000 C 
ATOM      7  O   UNL     1       4.196   8.019  17.869  0.00  0.00    +0.000 OA
ATOM      8  C   UNL     1       3.738   5.694  17.789  0.00  0.00    +0.000 A 
ATOM      9  C   UNL     1       4.683   5.625  16.742  0.00  0.00    +0.000 A 
ATOM     10  C   UNL     1       4.907   4.444  16.080  0.00  0.00    +0.000 A 
ATOM     11  C   UNL     1       4.209   3.333  16.497  0.00  0.00    +0.000 A 
ATOM     12  C   UNL     1       3.289   3.340  17.604  0.00  0.00    +0.000 A 
ATOM     13  C   UNL     1       2.887   1.901  17.883  0.00  0.00    +0.000 C 
ATOM     14  C   UNL     1       2.984   4.582  18.280  0.00  0.00    +0.000 A 
ENDROOT
BRANCH   5  15
ATOM     15  N   UNL     1       1.634   9.309  18.153  0.00  0.00    +0.000 N 
ATOM     16  H   UNL     1       2.480   9.318  17.579  0.00  0.00    +0.000 HD
BRANCH  15  17
ATOM     17  C   UNL     1       0.711  10.425  18.010  0.00  0.00    +0.000 C 
ATOM     18  C   UNL     1      -0.631  10.105  18.678  0.00  0.00    +0.000 C 
ATOM     19  C   UNL     1      -0.541  10.053  20.204  0.00  0.00    +0.000 C 
ATOM     20  C   UNL     1       0.068  11.327  20.782  0.00  0.00    +0.000 C 
ATOM     21  C   UNL     1       1.412  11.652  20.141  0.00  0.00    +0.000 C 
ATOM     22  C   UNL     1       1.312  11.706  18.614  0.00  0.00    +0.000 C 
ENDBRANCH  15  17
ENDBRANCH   5  15
BRANCH   1  23
ATOM     23  C   UNL     1       0.941   4.094  19.896  0.00  0.00    +0.000 C 
BRANCH  23  25
ATOM     24  C   UNL     1       2.631   2.773  21.549  0.00  0.00    +0.000 C 
ATOM     25  C   UNL     1       1.280   2.984  20.877  0.00  0.00    +0.000 C 
ENDBRANCH  23  25
ENDBRANCH   1  23
TORSDOF 4
ENDMDL
MODEL 8
REMARK VINA RESULT:      -6.1      2.145      4.001
REMARK  Name = 
REMARK  6 active torsions:
REMARK  status: ('A' for Active; 'I' for Inactive)
REMARK    1  A    between atoms: C_1  and  C_2
REMARK    2  A    between atoms: C_2  and  C_3
REMARK    3  A    between atoms: C_3  and  N_4
REMARK    4  A    between atoms: C_8  and  N_9
REMARK    5  A    between atoms: N_9  and  C_10
REMARK    6  A    between atoms: C_22  and  C_23
REMARK                            x       y       z     vdW  Elec       q    Type
REMARK                         _______ _______ _______ _____ _____    ______ ____
ROOT
ATOM      1  N   UNL     1       0.265  10.257  21.394  0.00  0.00    +0.000 N 
ATOM      2  C   UNL     1       0.057   8.895  21.081  0.00  0.00    +0.000 C 
ATOM      3  O   UNL     1      -0.752   8.148  21.648  0.00  0.00    +0.000 OA
ATOM      4  C   UNL     1       1.041   8.335  20.158  0.00  0.00    +0.000 C 
ATOM      5  C   UNL     1       1.710   7.235  20.500  0.00  0.00    +0.000 C 
ATOM      6  C   UNL     1       1.461   9.131  19.002  0.00  0.00    +0.000 C 
ATOM      7  O   UNL     1       1.862   8.635  17.980  0.00  0.00    +0.000 OA
ATOM      8  C   UNL     1       1.426  10.599  19.235  0.00  0.00    +0.000 A 
ATOM      9  C   UNL     1       2.035  11.313  18.180  0.00  0.00    +0.000 A 
ATOM     10  C   UNL     1       2.220  12.670  18.270  0.00  0.00    +0.000 A 
ATOM     11  C   UNL     1       1.761  13.305  19.402  0.00  0.00    +0.000 A 
ATOM     12  C   UNL     1       1.072  12.630  20.471  0.00  0.00    +0.000 A 
ATOM     13  C   UNL     1       0.546  13.689  21.426  0.00  0.00    +0.000 C 
ATOM     14  C   UNL     1       0.918  11.192  20.433  0.00  0.00    +0.000 A 
ENDROOT
BRANCH   5  15
ATOM     15  N   UNL     1       2.823   6.693  19.880  0.00  0.00    +0.000 N 
ATOM     16  H   UNL     1       3.594   7.352  19.751  0.00  0.00    +0.000 HD
BRANCH  15  17
ATOM     17  C   UNL     1       2.956   5.374  19.277  0.00  0.00    +0.000 C 
ATOM     18  C   UNL     1       2.963   5.479  17.747  0.00  0.00    +0.000 C 
ATOM     19  C   UNL     1       4.232   6.132  17.198  0.00  0.00    +0.000 C 
ATOM     20  C   UNL     1       5.493   5.437  17.705  0.00  0.00    +0.000 C 
ATOM     21  C   UNL     1       5.512   5.340  19.226  0.00  0.00    +0.000 C 
ATOM     22  C   UNL     1       4.240   4.682  19.766  0.00  0.00    +0.000 C 
ENDBRANCH  15  17
ENDBRANCH   5  15
BRANCH   1  23
ATOM     23  C   UNL     1       0.004  10.458  22.810  0.00  0.00    +0.000 C 
BRANCH  23  25
ATOM     24  C   UNL     1      -2.051  12.194  23.118  0.00  0.00    +0.000 C 
ATOM     25  C   UNL     1      -1.436  10.801  23.154  0.00  0.00    +0.000 C 
ENDBRANCH  23  25
ENDBRANCH   1  23
TORSDOF 4
ENDMDL
MODEL 9
REMARK VINA RESULT:      -6.1      3.318      6.669
REMARK  Name = 
REMARK  6 active torsions:
REMARK  status: ('A' for Active; 'I' for Inactive)
REMARK    1  A    between atoms: C_1  and  C_2
REMARK    2  A    between atoms: C_2  and  C_3
REMARK    3  A    between atoms: C_3  and  N_4
REMARK    4  A    between atoms: C_8  and  N_9
REMARK    5  A    between atoms: N_9  and  C_10
REMARK    6  A    between atoms: C_22  and  C_23
REMARK                            x       y       z     vdW  Elec       q    Type
REMARK                         _______ _______ _______ _____ _____    ______ ____
ROOT
ATOM      1  N   UNL     1       0.947   9.765  20.253  0.00  0.00    +0.000 N 
ATOM      2  C   UNL     1       1.272  10.030  18.905  0.00  0.00    +0.000 C 
ATOM      3  O   UNL     1       1.700   9.195  18.096  0.00  0.00    +0.000 OA
ATOM      4  C   UNL     1       1.283  11.449  18.558  0.00  0.00    +0.000 C 
ATOM      5  C   UNL     1       2.368  11.980  17.996  0.00  0.00    +0.000 C 
ATOM      6  C   UNL     1       0.213  12.311  19.068  0.00  0.00    +0.000 C 
ATOM      7  O   UNL     1      -0.142  13.314  18.504  0.00  0.00    +0.000 OA
ATOM      8  C   UNL     1      -0.332  11.880  20.383  0.00  0.00    +0.000 A 
ATOM      9  C   UNL     1      -1.202  12.847  20.933  0.00  0.00    +0.000 A 
ATOM     10  C   UNL     1      -1.704  12.695  22.200  0.00  0.00    +0.000 A 
ATOM     11  C   UNL     1      -1.359  11.557  22.894  0.00  0.00    +0.000 A 
ATOM     12  C   UNL     1      -0.533  10.511  22.349  0.00  0.00    +0.000 A 
ATOM     13  C   UNL     1      -0.556   9.345  23.324  0.00  0.00    +0.000 C 
ATOM     14  C   UNL     1       0.061  10.672  21.040  0.00  0.00    +0.000 A 
ENDROOT
BRANCH   5  15
ATOM     15  N   UNL     1       2.655  13.322  17.809  0.00  0.00    +0.000 N 
ATOM     16  H   UNL     1       2.217  13.734  16.983  0.00  0.00    +0.000 HD
BRANCH  15  17
ATOM     17  C   UNL     1       3.601  14.144  18.551  0.00  0.00    +0.000 C 
ATOM     18  C   UNL     1       4.159  15.259  17.660  0.00  0.00    +0.000 C 
ATOM     19  C   UNL     1       3.119  16.327  17.317  0.00  0.00    +0.000 C 
ATOM     20  C   UNL     1       2.461  16.902  18.568  0.00  0.00    +0.000 C 
ATOM     21  C   UNL     1       1.884  15.807  19.458  0.00  0.00    +0.000 C 
ATOM     22  C   UNL     1       2.933  14.745  19.799  0.00  0.00    +0.000 C 
ENDBRANCH  15  17
ENDBRANCH   5  15
BRANCH   1  23
ATOM     23  C   UNL     1       1.803   8.697  20.742  0.00  0.00    +0.000 C 
BRANCH  23  25
ATOM     24  C   UNL     1       1.783   5.998  20.531  0.00  0.00    +0.000 C 
ATOM     25  C   UNL     1       1.133   7.338  20.853  0.00  0.00    +0.000 C 
ENDBRANCH  23  25
ENDBRANCH   1  23
TORSDOF 4
ENDMDL
