MODEL 1
REMARK VINA RESULT:      -8.5      0.000      0.000
REMARK  Name = 
REMARK  7 active torsions:
REMARK  status: ('A' for Active; 'I' for Inactive)
REMARK    1  A    between atoms: C_1  and  O_2
REMARK    2  A    between atoms: O_2  and  C_3
REMARK    3  A    between atoms: C_6  and  C_7
REMARK    4  A    between atoms: N_8  and  N_9
REMARK    5  A    between atoms: C_10  and  C_12
REMARK    6  A    between atoms: C_12  and  N_13
REMARK    7  A    between atoms: C_20  and  C_21
REMARK                            x       y       z     vdW  Elec       q    Type
REMARK                         _______ _______ _______ _____ _____    ______ ____
ROOT
ATOM      1  N   UNL     1       8.698   8.436  18.912  0.00  0.00    +0.000 N 
ATOM      2  C   UNL     1       7.923   7.559  18.099  0.00  0.00    +0.000 C 
ATOM      3  O   UNL     1       7.504   7.880  16.983  0.00  0.00    +0.000 OA
ATOM      4  H   UNL     1       9.281   8.015  19.636  0.00  0.00    +0.000 HD
ENDROOT
BRANCH   1   6
ATOM      5  C   UNL     1       9.421  10.624  19.397  0.00  0.00    +0.000 C 
ATOM      6  N   UNL     1       9.059   9.760  18.476  0.00  0.00    +0.000 NA
BRANCH   5  10
ATOM      7  C   UNL     1      10.757  14.788  18.769  0.00  0.00    +0.000 A 
ATOM      8  C   UNL     1       9.657  14.266  18.077  0.00  0.00    +0.000 A 
ATOM      9  C   UNL     1       9.204  12.935  18.273  0.00  0.00    +0.000 A 
ATOM     10  C   UNL     1       9.854  12.078  19.164  0.00  0.00    +0.000 A 
ATOM     11  C   UNL     1      10.972  12.610  19.851  0.00  0.00    +0.000 A 
ATOM     12  C   UNL     1      11.416  13.949  19.660  0.00  0.00    +0.000 A 
BRANCH   7  14
ATOM     13  C   UNL     1      11.433  16.389  17.098  0.00  0.00    +0.000 C 
ATOM     14  O   UNL     1      11.098  16.077  18.448  0.00  0.00    +0.000 OA
ENDBRANCH   7  14
ENDBRANCH   5  10
ENDBRANCH   1   6
BRANCH   2  15
ATOM     15  C   UNL     1       7.608   6.059  18.671  0.00  0.00    +0.000 C 
BRANCH  15  16
ATOM     16  N   UNL     1       6.475   5.376  18.048  0.00  0.00    +0.000 N 
ATOM     17  C   UNL     1       6.769   4.504  17.019  0.00  0.00    +0.000 A 
ATOM     18  O   UNL     1       7.901   4.190  16.664  0.00  0.00    +0.000 OA
ATOM     19  O   UNL     1       5.637   3.982  16.428  0.00  0.00    +0.000 OA
ATOM     20  C   UNL     1       4.667   4.335  17.333  0.00  0.00    +0.000 A 
ATOM     21  C   UNL     1       3.387   3.856  17.190  0.00  0.00    +0.000 A 
ATOM     22  C   UNL     1       2.512   4.057  18.235  0.00  0.00    +0.000 A 
ATOM     23  C   UNL     1       2.923   4.738  19.403  0.00  0.00    +0.000 A 
ATOM     24  C   UNL     1       1.908   4.724  20.532  0.00  0.00    +0.000 C 
ATOM     25  C   UNL     1       4.245   5.330  19.466  0.00  0.00    +0.000 A 
ATOM     26  C   UNL     1       5.126   5.114  18.404  0.00  0.00    +0.000 A 
ENDBRANCH  15  16
ENDBRANCH   2  15
TORSDOF 5
ENDMDL
MODEL 2
REMARK VINA RESULT:      -8.4      0.557      1.007
REMARK  Name = 
REMARK  7 active torsions:
REMARK  status: ('A' for Active; 'I' for Inactive)
REMARK    1  A    between atoms: C_1  and  O_2
REMARK    2  A    between atoms: O_2  and  C_3
REMARK    3  A    between atoms: C_6  and  C_7
REMARK    4  A    between atoms: N_8  and  N_9
REMARK    5  A    between atoms: C_10  and  C_12
REMARK    6  A    between atoms: C_12  and  N_13
REMARK    7  A    between atoms: C_20  and  C_21
REMARK                            x       y       z     vdW  Elec       q    Type
REMARK                         _______ _______ _______ _____ _____    ______ ____
ROOT
ATOM      1  N   UNL     1       8.562   8.410  18.810  0.00  0.00    +0.000 N 
ATOM      2  C   UNL     1       7.782   7.509  18.030  0.00  0.00    +0.000 C 
ATOM      3  O   UNL     1       7.373   7.787  16.899  0.00  0.00    +0.000 OA
ATOM      4  H   UNL     1       9.135   8.014  19.555  0.00  0.00    +0.000 HD
ENDROOT
BRANCH   1   6
ATOM      5  C   UNL     1       9.757  10.424  19.064  0.00  0.00    +0.000 C 
ATOM      6  N   UNL     1       8.940   9.710  18.322  0.00  0.00    +0.000 NA
BRANCH   5  10
ATOM      7  C   UNL     1      11.224  14.490  18.149  0.00  0.00    +0.000 A 
ATOM      8  C   UNL     1      12.112  13.427  18.359  0.00  0.00    +0.000 A 
ATOM      9  C   UNL     1      11.662  12.111  18.641  0.00  0.00    +0.000 A 
ATOM     10  C   UNL     1      10.298  11.823  18.738  0.00  0.00    +0.000 A 
ATOM     11  C   UNL     1       9.407  12.904  18.536  0.00  0.00    +0.000 A 
ATOM     12  C   UNL     1       9.863  14.221  18.242  0.00  0.00    +0.000 A 
BRANCH   7  14
ATOM     13  C   UNL     1      11.172  16.626  17.033  0.00  0.00    +0.000 C 
ATOM     14  O   UNL     1      11.808  15.709  17.921  0.00  0.00    +0.000 OA
ENDBRANCH   7  14
ENDBRANCH   5  10
ENDBRANCH   1   6
BRANCH   2  15
ATOM     15  C   UNL     1       7.446   6.038  18.663  0.00  0.00    +0.000 C 
BRANCH  15  16
ATOM     16  N   UNL     1       6.314   5.338  18.057  0.00  0.00    +0.000 N 
ATOM     17  C   UNL     1       6.610   4.435  17.055  0.00  0.00    +0.000 A 
ATOM     18  O   UNL     1       7.743   4.108  16.714  0.00  0.00    +0.000 OA
ATOM     19  O   UNL     1       5.480   3.897  16.476  0.00  0.00    +0.000 OA
ATOM     20  C   UNL     1       4.507   4.280  17.366  0.00  0.00    +0.000 A 
ATOM     21  C   UNL     1       3.226   3.799  17.233  0.00  0.00    +0.000 A 
ATOM     22  C   UNL     1       2.347   4.033  18.268  0.00  0.00    +0.000 A 
ATOM     23  C   UNL     1       2.756   4.748  19.417  0.00  0.00    +0.000 A 
ATOM     24  C   UNL     1       1.736   4.769  20.541  0.00  0.00    +0.000 C 
ATOM     25  C   UNL     1       4.079   5.338  19.467  0.00  0.00    +0.000 A 
ATOM     26  C   UNL     1       4.963   5.090  18.415  0.00  0.00    +0.000 A 
ENDBRANCH  15  16
ENDBRANCH   2  15
TORSDOF 5
ENDMDL
MODEL 3
REMARK VINA RESULT:      -8.3      2.413      3.089
REMARK  Name = 
REMARK  7 active torsions:
REMARK  status: ('A' for Active; 'I' for Inactive)
REMARK    1  A    between atoms: C_1  and  O_2
REMARK    2  A    between atoms: O_2  and  C_3
REMARK    3  A    between atoms: C_6  and  C_7
REMARK    4  A    between atoms: N_8  and  N_9
REMARK    5  A    between atoms: C_10  and  C_12
REMARK    6  A    between atoms: C_12  and  N_13
REMARK    7  A    between atoms: C_20  and  C_21
REMARK                            x       y       z     vdW  Elec       q    Type
REMARK                         _______ _______ _______ _____ _____    ______ ____
ROOT
ATOM      1  N   UNL     1       6.812   7.357  17.322  0.00  0.00    +0.000 N 
ATOM      2  C   UNL     1       6.769   6.220  16.464  0.00  0.00    +0.000 C 
ATOM      3  O   UNL     1       7.699   5.917  15.711  0.00  0.00    +0.000 OA
ATOM      4  H   UNL     1       6.192   7.360  18.132  0.00  0.00    +0.000 HD
ENDROOT
BRANCH   1   6
ATOM      5  C   UNL     1       7.952   9.182  18.281  0.00  0.00    +0.000 C 
ATOM      6  N   UNL     1       7.958   8.227  17.378  0.00  0.00    +0.000 NA
BRANCH   5  10
ATOM      7  C   UNL     1      11.161  12.109  19.086  0.00  0.00    +0.000 A 
ATOM      8  C   UNL     1      10.753  11.819  17.778  0.00  0.00    +0.000 A 
ATOM      9  C   UNL     1       9.716  10.892  17.498  0.00  0.00    +0.000 A 
ATOM     10  C   UNL     1       9.063  10.211  18.528  0.00  0.00    +0.000 A 
ATOM     11  C   UNL     1       9.488  10.501  19.847  0.00  0.00    +0.000 A 
ATOM     12  C   UNL     1      10.522  11.441  20.124  0.00  0.00    +0.000 A 
BRANCH   7  14
ATOM     13  C   UNL     1      12.333  14.030  18.222  0.00  0.00    +0.000 C 
ATOM     14  O   UNL     1      12.198  12.998  19.197  0.00  0.00    +0.000 OA
ENDBRANCH   7  14
ENDBRANCH   5  10
ENDBRANCH   1   6
BRANCH   2  15
ATOM     15  C   UNL     1       5.437   5.272  16.511  0.00  0.00    +0.000 C 
BRANCH  15  16
ATOM     16  N   UNL     1       4.546   5.498  17.648  0.00  0.00    +0.000 N 
ATOM     17  C   UNL     1       4.827   4.794  18.802  0.00  0.00    +0.000 A 
ATOM     18  O   UNL     1       5.813   4.083  18.971  0.00  0.00    +0.000 OA
ATOM     19  O   UNL     1       3.882   4.994  19.787  0.00  0.00    +0.000 OA
ATOM     20  C   UNL     1       3.192   6.073  19.291  0.00  0.00    +0.000 A 
ATOM     21  C   UNL     1       2.243   6.697  20.066  0.00  0.00    +0.000 A 
ATOM     22  C   UNL     1       1.742   7.898  19.613  0.00  0.00    +0.000 A 
ATOM     23  C   UNL     1       2.187   8.455  18.393  0.00  0.00    +0.000 A 
ATOM     24  C   UNL     1       1.679   9.859  18.118  0.00  0.00    +0.000 C 
ATOM     25  C   UNL     1       3.101   7.709  17.550  0.00  0.00    +0.000 A 
ATOM     26  C   UNL     1       3.608   6.496  18.021  0.00  0.00    +0.000 A 
ENDBRANCH  15  16
ENDBRANCH   2  15
TORSDOF 5
ENDMDL
MODEL 4
REMARK VINA RESULT:      -8.1      1.495      1.894
REMARK  Name = 
REMARK  7 active torsions:
REMARK  status: ('A' for Active; 'I' for Inactive)
REMARK    1  A    between atoms: C_1  and  O_2
REMARK    2  A    between atoms: O_2  and  C_3
REMARK    3  A    between atoms: C_6  and  C_7
REMARK    4  A    between atoms: N_8  and  N_9
REMARK    5  A    between atoms: C_10  and  C_12
REMARK    6  A    between atoms: C_12  and  N_13
REMARK    7  A    between atoms: C_20  and  C_21
REMARK                            x       y       z     vdW  Elec       q    Type
REMARK                         _______ _______ _______ _____ _____    ______ ____
ROOT
ATOM      1  N   UNL     1       7.953   6.971  18.072  0.00  0.00    +0.000 N 
ATOM      2  C   UNL     1       7.627   5.753  18.735  0.00  0.00    +0.000 C 
ATOM      3  O   UNL     1       7.687   5.624  19.962  0.00  0.00    +0.000 OA
ATOM      4  H   UNL     1       7.570   7.116  17.138  0.00  0.00    +0.000 HD
ENDROOT
BRANCH   1   6
ATOM      5  C   UNL     1       8.599   9.236  18.099  0.00  0.00    +0.000 C 
ATOM      6  N   UNL     1       8.365   8.146  18.795  0.00  0.00    +0.000 NA
BRANCH   5  10
ATOM      7  C   UNL     1       9.908  13.109  19.774  0.00  0.00    +0.000 A 
ATOM      8  C   UNL     1       9.330  13.026  18.501  0.00  0.00    +0.000 A 
ATOM      9  C   UNL     1       8.891  11.794  17.949  0.00  0.00    +0.000 A 
ATOM     10  C   UNL     1       9.034  10.598  18.656  0.00  0.00    +0.000 A 
ATOM     11  C   UNL     1       9.629  10.688  19.938  0.00  0.00    +0.000 A 
ATOM     12  C   UNL     1      10.057  11.928  20.493  0.00  0.00    +0.000 A 
BRANCH   7  14
ATOM     13  C   UNL     1      11.297  15.039  19.379  0.00  0.00    +0.000 C 
ATOM     14  O   UNL     1      10.314  14.361  20.157  0.00  0.00    +0.000 OA
ENDBRANCH   7  14
ENDBRANCH   5  10
ENDBRANCH   1   6
BRANCH   2  15
ATOM     15  C   UNL     1       7.127   4.491  17.822  0.00  0.00    +0.000 C 
BRANCH  15  16
ATOM     16  N   UNL     1       5.691   4.444  17.552  0.00  0.00    +0.000 N 
ATOM     17  C   UNL     1       5.314   4.039  16.287  0.00  0.00    +0.000 A 
ATOM     18  O   UNL     1       6.080   3.626  15.422  0.00  0.00    +0.000 OA
ATOM     19  O   UNL     1       3.951   4.118  16.090  0.00  0.00    +0.000 OA
ATOM     20  C   UNL     1       3.498   4.294  17.374  0.00  0.00    +0.000 A 
ATOM     21  C   UNL     1       2.149   4.261  17.638  0.00  0.00    +0.000 A 
ATOM     22  C   UNL     1       1.759   4.222  18.959  0.00  0.00    +0.000 A 
ATOM     23  C   UNL     1       2.718   4.223  19.997  0.00  0.00    +0.000 A 
ATOM     24  C   UNL     1       2.146   3.997  21.384  0.00  0.00    +0.000 C 
ATOM     25  C   UNL     1       4.124   4.377  19.680  0.00  0.00    +0.000 A 
ATOM     26  C   UNL     1       4.509   4.409  18.338  0.00  0.00    +0.000 A 
ENDBRANCH  15  16
ENDBRANCH   2  15
TORSDOF 5
ENDMDL
MODEL 5
REMARK VINA RESULT:      -8.0      2.083      2.679
REMARK  Name = 
REMARK  7 active torsions:
REMARK  status: ('A' for Active; 'I' for Inactive)
REMARK    1  A    between atoms: C_1  and  O_2
REMARK    2  A    between atoms: O_2  and  C_3
REMARK    3  A    between atoms: C_6  and  C_7
REMARK    4  A    between atoms: N_8  and  N_9
REMARK    5  A    between atoms: C_10  and  C_12
REMARK    6  A    between atoms: C_12  and  N_13
REMARK    7  A    between atoms: C_20  and  C_21
REMARK                            x       y       z     vdW  Elec       q    Type
REMARK                         _______ _______ _______ _____ _____    ______ ____
ROOT
ATOM      1  N   UNL     1       7.746   6.957  18.044  0.00  0.00    +0.000 N 
ATOM      2  C   UNL     1       7.563   5.691  18.671  0.00  0.00    +0.000 C 
ATOM      3  O   UNL     1       8.041   5.418  19.777  0.00  0.00    +0.000 OA
ATOM      4  H   UNL     1       7.073   7.230  17.328  0.00  0.00    +0.000 HD
ENDROOT
BRANCH   1   6
ATOM      5  C   UNL     1       8.374   9.224  18.166  0.00  0.00    +0.000 C 
ATOM      6  N   UNL     1       8.496   8.016  18.669  0.00  0.00    +0.000 NA
BRANCH   5  10
ATOM      7  C   UNL     1      10.403  12.835  19.705  0.00  0.00    +0.000 A 
ATOM      8  C   UNL     1       9.892  12.788  18.401  0.00  0.00    +0.000 A 
ATOM      9  C   UNL     1       9.226  11.643  17.892  0.00  0.00    +0.000 A 
ATOM     10  C   UNL     1       9.065  10.497  18.674  0.00  0.00    +0.000 A 
ATOM     11  C   UNL     1       9.594  10.548  19.986  0.00  0.00    +0.000 A 
ATOM     12  C   UNL     1      10.252  11.703  20.498  0.00  0.00    +0.000 A 
BRANCH   7  14
ATOM     13  C   UNL     1      11.896  14.622  19.081  0.00  0.00    +0.000 C 
ATOM     14  O   UNL     1      11.051  13.994  20.043  0.00  0.00    +0.000 OA
ENDBRANCH   7  14
ENDBRANCH   5  10
ENDBRANCH   1   6
BRANCH   2  15
ATOM     15  C   UNL     1       6.655   4.573  17.895  0.00  0.00    +0.000 C 
BRANCH  15  16
ATOM     16  N   UNL     1       5.218   4.641  18.155  0.00  0.00    +0.000 N 
ATOM     17  C   UNL     1       4.691   3.660  18.971  0.00  0.00    +0.000 A 
ATOM     18  O   UNL     1       5.348   2.810  19.565  0.00  0.00    +0.000 OA
ATOM     19  O   UNL     1       3.319   3.745  19.082  0.00  0.00    +0.000 OA
ATOM     20  C   UNL     1       3.077   4.987  18.551  0.00  0.00    +0.000 A 
ATOM     21  C   UNL     1       1.816   5.531  18.621  0.00  0.00    +0.000 A 
ATOM     22  C   UNL     1       1.674   6.857  18.276  0.00  0.00    +0.000 A 
ATOM     23  C   UNL     1       2.789   7.620  17.861  0.00  0.00    +0.000 A 
ATOM     24  C   UNL     1       2.510   9.102  17.689  0.00  0.00    +0.000 C 
ATOM     25  C   UNL     1       4.078   6.980  17.689  0.00  0.00    +0.000 A 
ATOM     26  C   UNL     1       4.212   5.637  18.047  0.00  0.00    +0.000 A 
ENDBRANCH  15  16
ENDBRANCH   2  15
TORSDOF 5
ENDMDL
MODEL 6
REMARK VINA RESULT:      -8.0      5.564      8.194
REMARK  Name = 
REMARK  7 active torsions:
REMARK  status: ('A' for Active; 'I' for Inactive)
REMARK    1  A    between atoms: C_1  and  O_2
REMARK    2  A    between atoms: O_2  and  C_3
REMARK    3  A    between atoms: C_6  and  C_7
REMARK    4  A    between atoms: N_8  and  N_9
REMARK    5  A    between atoms: C_10  and  C_12
REMARK    6  A    between atoms: C_12  and  N_13
REMARK    7  A    between atoms: C_20  and  C_21
REMARK                            x       y       z     vdW  Elec       q    Type
REMARK                         _______ _______ _______ _____ _____    ______ ____
ROOT
ATOM      1  N   UNL     1       2.344   5.358  20.078  0.00  0.00    +0.000 N 
ATOM      2  C   UNL     1       2.560   4.060  20.624  0.00  0.00    +0.000 C 
ATOM      3  O   UNL     1       2.046   3.687  21.683  0.00  0.00    +0.000 OA
ATOM      4  H   UNL     1       2.505   5.482  19.079  0.00  0.00    +0.000 HD
ENDROOT
BRANCH   1   6
ATOM      5  C   UNL     1       1.715   7.595  20.465  0.00  0.00    +0.000 C 
ATOM      6  N   UNL     1       1.495   6.325  20.724  0.00  0.00    +0.000 NA
BRANCH   5  10
ATOM      7  C   UNL     1      -0.514  11.002  22.179  0.00  0.00    +0.000 A 
ATOM      8  C   UNL     1      -0.157  10.975  20.825  0.00  0.00    +0.000 A 
ATOM      9  C   UNL     1       0.547   9.885  20.251  0.00  0.00    +0.000 A 
ATOM     10  C   UNL     1       0.932   8.789  21.028  0.00  0.00    +0.000 A 
ATOM     11  C   UNL     1       0.577   8.829  22.398  0.00  0.00    +0.000 A 
ATOM     12  C   UNL     1      -0.140   9.920  22.966  0.00  0.00    +0.000 A 
BRANCH   7  14
ATOM     13  C   UNL     1      -2.505  12.036  23.064  0.00  0.00    +0.000 C 
ATOM     14  O   UNL     1      -1.161  12.137  22.595  0.00  0.00    +0.000 OA
ENDBRANCH   7  14
ENDBRANCH   5  10
ENDBRANCH   1   6
BRANCH   2  15
ATOM     15  C   UNL     1       3.507   3.022  19.786  0.00  0.00    +0.000 C 
BRANCH  15  16
ATOM     16  N   UNL     1       4.083   3.555  18.553  0.00  0.00    +0.000 N 
ATOM     17  C   UNL     1       3.276   3.531  17.433  0.00  0.00    +0.000 A 
ATOM     18  O   UNL     1       2.096   3.194  17.423  0.00  0.00    +0.000 OA
ATOM     19  O   UNL     1       3.932   3.960  16.298  0.00  0.00    +0.000 OA
ATOM     20  C   UNL     1       5.063   4.526  16.832  0.00  0.00    +0.000 A 
ATOM     21  C   UNL     1       5.928   5.227  16.026  0.00  0.00    +0.000 A 
ATOM     22  C   UNL     1       6.922   5.956  16.640  0.00  0.00    +0.000 A 
ATOM     23  C   UNL     1       7.044   5.972  18.048  0.00  0.00    +0.000 A 
ATOM     24  C   UNL     1       8.068   6.958  18.582  0.00  0.00    +0.000 C 
ATOM     25  C   UNL     1       6.186   5.128  18.856  0.00  0.00    +0.000 A 
ATOM     26  C   UNL     1       5.178   4.398  18.223  0.00  0.00    +0.000 A 
ENDBRANCH  15  16
ENDBRANCH   2  15
TORSDOF 5
ENDMDL
MODEL 7
REMARK VINA RESULT:      -8.0      5.632      8.260
REMARK  Name = 
REMARK  7 active torsions:
REMARK  status: ('A' for Active; 'I' for Inactive)
REMARK    1  A    between atoms: C_1  and  O_2
REMARK    2  A    between atoms: O_2  and  C_3
REMARK    3  A    between atoms: C_6  and  C_7
REMARK    4  A    between atoms: N_8  and  N_9
REMARK    5  A    between atoms: C_10  and  C_12
REMARK    6  A    between atoms: C_12  and  N_13
REMARK    7  A    between atoms: C_20  and  C_21
REMARK                            x       y       z     vdW  Elec       q    Type
REMARK                         _______ _______ _______ _____ _____    ______ ____
ROOT
ATOM      1  N   UNL     1       2.549   5.523  20.455  0.00  0.00    +0.000 N 
ATOM      2  C   UNL     1       2.244   4.131  20.459  0.00  0.00    +0.000 C 
ATOM      3  O   UNL     1       1.184   3.682  20.906  0.00  0.00    +0.000 OA
ATOM      4  H   UNL     1       3.252   5.849  19.791  0.00  0.00    +0.000 HD
ENDROOT
BRANCH   1   6
ATOM      5  C   UNL     1       1.692   7.717  20.455  0.00  0.00    +0.000 C 
ATOM      6  N   UNL     1       1.630   6.507  20.964  0.00  0.00    +0.000 NA
BRANCH   5  10
ATOM      7  C   UNL     1      -0.867  11.178  21.448  0.00  0.00    +0.000 A 
ATOM      8  C   UNL     1      -0.562  10.202  22.405  0.00  0.00    +0.000 A 
ATOM      9  C   UNL     1       0.269   9.089  22.110  0.00  0.00    +0.000 A 
ATOM     10  C   UNL     1       0.808   8.912  20.834  0.00  0.00    +0.000 A 
ATOM     11  C   UNL     1       0.486   9.897  19.869  0.00  0.00    +0.000 A 
ATOM     12  C   UNL     1      -0.338  11.019  20.173  0.00  0.00    +0.000 A 
BRANCH   7  14
ATOM     13  C   UNL     1      -2.276  12.096  23.176  0.00  0.00    +0.000 C 
ATOM     14  O   UNL     1      -1.709  12.175  21.870  0.00  0.00    +0.000 OA
ENDBRANCH   7  14
ENDBRANCH   5  10
ENDBRANCH   1   6
BRANCH   2  15
ATOM     15  C   UNL     1       3.340   3.102  19.816  0.00  0.00    +0.000 C 
BRANCH  15  16
ATOM     16  N   UNL     1       3.979   3.557  18.582  0.00  0.00    +0.000 N 
ATOM     17  C   UNL     1       3.221   3.484  17.431  0.00  0.00    +0.000 A 
ATOM     18  O   UNL     1       2.037   3.166  17.386  0.00  0.00    +0.000 OA
ATOM     19  O   UNL     1       3.934   3.840  16.304  0.00  0.00    +0.000 OA
ATOM     20  C   UNL     1       5.050   4.417  16.857  0.00  0.00    +0.000 A 
ATOM     21  C   UNL     1       5.962   5.058  16.052  0.00  0.00    +0.000 A 
ATOM     22  C   UNL     1       6.941   5.805  16.670  0.00  0.00    +0.000 A 
ATOM     23  C   UNL     1       7.002   5.896  18.079  0.00  0.00    +0.000 A 
ATOM     24  C   UNL     1       8.019   6.894  18.603  0.00  0.00    +0.000 C 
ATOM     25  C   UNL     1       6.094   5.111  18.892  0.00  0.00    +0.000 A 
ATOM     26  C   UNL     1       5.102   4.363  18.256  0.00  0.00    +0.000 A 
ENDBRANCH  15  16
ENDBRANCH   2  15
TORSDOF 5
ENDMDL
MODEL 8
REMARK VINA RESULT:      -7.9      2.402      3.123
REMARK  Name = 
REMARK  7 active torsions:
REMARK  status: ('A' for Active; 'I' for Inactive)
REMARK    1  A    between atoms: C_1  and  O_2
REMARK    2  A    between atoms: O_2  and  C_3
REMARK    3  A    between atoms: C_6  and  C_7
REMARK    4  A    between atoms: N_8  and  N_9
REMARK    5  A    between atoms: C_10  and  C_12
REMARK    6  A    between atoms: C_12  and  N_13
REMARK    7  A    between atoms: C_20  and  C_21
REMARK                            x       y       z     vdW  Elec       q    Type
REMARK                         _______ _______ _______ _____ _____    ______ ____
ROOT
ATOM      1  N   UNL     1       6.795   7.484  17.573  0.00  0.00    +0.000 N 
ATOM      2  C   UNL     1       6.768   6.345  16.717  0.00  0.00    +0.000 C 
ATOM      3  O   UNL     1       7.732   6.010  16.021  0.00  0.00    +0.000 OA
ATOM      4  H   UNL     1       6.129   7.508  18.346  0.00  0.00    +0.000 HD
ENDROOT
BRANCH   1   6
ATOM      5  C   UNL     1       7.775   9.578  18.021  0.00  0.00    +0.000 C 
ATOM      6  N   UNL     1       7.962   8.319  17.695  0.00  0.00    +0.000 NA
BRANCH   5  10
ATOM      7  C   UNL     1      10.849  12.708  18.551  0.00  0.00    +0.000 A 
ATOM      8  C   UNL     1      10.989  11.444  19.138  0.00  0.00    +0.000 A 
ATOM      9  C   UNL     1      10.021  10.421  18.970  0.00  0.00    +0.000 A 
ATOM     10  C   UNL     1       8.865  10.640  18.216  0.00  0.00    +0.000 A 
ATOM     11  C   UNL     1       8.725  11.924  17.634  0.00  0.00    +0.000 A 
ATOM     12  C   UNL     1       9.705  12.944  17.796  0.00  0.00    +0.000 A 
BRANCH   7  14
ATOM     13  C   UNL     1      11.524  14.987  18.953  0.00  0.00    +0.000 C 
ATOM     14  O   UNL     1      11.848  13.603  18.831  0.00  0.00    +0.000 OA
ENDBRANCH   7  14
ENDBRANCH   5  10
ENDBRANCH   1   6
BRANCH   2  15
ATOM     15  C   UNL     1       5.408   5.437  16.689  0.00  0.00    +0.000 C 
BRANCH  15  16
ATOM     16  N   UNL     1       4.490   5.648  17.807  0.00  0.00    +0.000 N 
ATOM     17  C   UNL     1       4.763   4.955  18.969  0.00  0.00    +0.000 A 
ATOM     18  O   UNL     1       5.762   4.266  19.161  0.00  0.00    +0.000 OA
ATOM     19  O   UNL     1       3.795   5.137  19.935  0.00  0.00    +0.000 OA
ATOM     20  C   UNL     1       3.092   6.198  19.421  0.00  0.00    +0.000 A 
ATOM     21  C   UNL     1       2.114   6.804  20.174  0.00  0.00    +0.000 A 
ATOM     22  C   UNL     1       1.595   7.991  19.707  0.00  0.00    +0.000 A 
ATOM     23  C   UNL     1       2.052   8.554  18.494  0.00  0.00    +0.000 A 
ATOM     24  C   UNL     1       1.518   9.945  18.203  0.00  0.00    +0.000 C 
ATOM     25  C   UNL     1       2.998   7.825  17.672  0.00  0.00    +0.000 A 
ATOM     26  C   UNL     1       3.522   6.626  18.158  0.00  0.00    +0.000 A 
ENDBRANCH  15  16
ENDBRANCH   2  15
TORSDOF 5
ENDMDL
MODEL 9
REMARK VINA RESULT:      -7.8      1.652      2.195
REMARK  Name = 
REMARK  7 active torsions:
REMARK  status: ('A' for Active; 'I' for Inactive)
REMARK    1  A    between atoms: C_1  and  O_2
REMARK    2  A    between atoms: O_2  and  C_3
REMARK    3  A    between atoms: C_6  and  C_7
REMARK    4  A    between atoms: N_8  and  N_9
REMARK    5  A    between atoms: C_10  and  C_12
REMARK    6  A    between atoms: C_12  and  N_13
REMARK    7  A    between atoms: C_20  and  C_21
REMARK                            x       y       z     vdW  Elec       q    Type
REMARK                         _______ _______ _______ _____ _____    ______ ____
ROOT
ATOM      1  N   UNL     1       7.335   7.311  17.256  0.00  0.00    +0.000 N 
ATOM      2  C   UNL     1       7.621   6.242  18.153  0.00  0.00    +0.000 C 
ATOM      3  O   UNL     1       8.164   6.416  19.248  0.00  0.00    +0.000 OA
ATOM      4  H   UNL     1       6.608   7.157  16.556  0.00  0.00    +0.000 HD
ENDROOT
BRANCH   1   6
ATOM      5  C   UNL     1       8.667   8.896  18.378  0.00  0.00    +0.000 C 
ATOM      6  N   UNL     1       7.650   8.679  17.575  0.00  0.00    +0.000 NA
BRANCH   5  10
ATOM      7  C   UNL     1      10.137  12.871  19.625  0.00  0.00    +0.000 A 
ATOM      8  C   UNL     1       9.905  11.856  20.562  0.00  0.00    +0.000 A 
ATOM      9  C   UNL     1       9.445  10.568  20.181  0.00  0.00    +0.000 A 
ATOM     10  C   UNL     1       9.187  10.263  18.842  0.00  0.00    +0.000 A 
ATOM     11  C   UNL     1       9.414  11.298  17.903  0.00  0.00    +0.000 A 
ATOM     12  C   UNL     1       9.886  12.585  18.288  0.00  0.00    +0.000 A 
BRANCH   7  14
ATOM     13  C   UNL     1      10.163  14.417  21.475  0.00  0.00    +0.000 C 
ATOM     14  O   UNL     1      10.546  14.072  20.146  0.00  0.00    +0.000 OA
ENDBRANCH   7  14
ENDBRANCH   5  10
ENDBRANCH   1   6
BRANCH   2  15
ATOM     15  C   UNL     1       7.180   4.729  17.712  0.00  0.00    +0.000 C 
BRANCH  15  16
ATOM     16  N   UNL     1       5.755   4.547  17.438  0.00  0.00    +0.000 N 
ATOM     17  C   UNL     1       5.428   3.974  16.225  0.00  0.00    +0.000 A 
ATOM     18  O   UNL     1       6.235   3.522  15.419  0.00  0.00    +0.000 OA
ATOM     19  O   UNL     1       4.066   3.930  16.011  0.00  0.00    +0.000 OA
ATOM     20  C   UNL     1       3.581   4.218  17.263  0.00  0.00    +0.000 A 
ATOM     21  C   UNL     1       2.235   4.117  17.519  0.00  0.00    +0.000 A 
ATOM     22  C   UNL     1       1.828   4.201  18.833  0.00  0.00    +0.000 A 
ATOM     23  C   UNL     1       2.769   4.390  19.871  0.00  0.00    +0.000 A 
ATOM     24  C   UNL     1       2.192   4.282  21.271  0.00  0.00    +0.000 C 
ATOM     25  C   UNL     1       4.165   4.609  19.548  0.00  0.00    +0.000 A 
ATOM     26  C   UNL     1       4.567   4.516  18.214  0.00  0.00    +0.000 A 
ENDBRANCH  15  16
ENDBRANCH   2  15
TORSDOF 5
ENDMDL
