MODEL 1
REMARK VINA RESULT:      -6.2      0.000      0.000
REMARK  Name = 
REMARK  15 active torsions:
REMARK  status: ('A' for Active; 'I' for Inactive)
REMARK    1  A    between atoms: C_1  and  C_2
REMARK    2  A    between atoms: C_2  and  C_3
REMARK    3  A    between atoms: C_3  and  C_4
REMARK    4  A    between atoms: C_3  and  C_5
REMARK    5  A    between atoms: C_11  and  C_12
REMARK    6  A    between atoms: C_12  and  C_14
REMARK    7  A    between atoms: C_14  and  C_15
REMARK    8  A    between atoms: C_15  and  C_16
REMARK    9  A    between atoms: C_15  and  C_17
REMARK   10  A    between atoms: C_17  and  O_18
REMARK   11  A    between atoms: C_19  and  O_20
REMARK   12  A    between atoms: C_25  and  C_26
REMARK   13  A    between atoms: C_26  and  C_27
REMARK   14  A    between atoms: C_26  and  C_28
REMARK   15  A    between atoms: C_26  and  O_29
REMARK                            x       y       z     vdW  Elec       q    Type
REMARK                         _______ _______ _______ _____ _____    ______ ____
ROOT
ATOM      1  C   UNL     1       6.203  15.324  20.993  0.00  0.00    +0.000 A 
ATOM      2  C   UNL     1       5.027  15.726  21.502  0.00  0.00    +0.000 A 
ATOM      3  C   UNL     1       4.380  15.122  22.665  0.00  0.00    +0.000 A 
ATOM      4  O   UNL     1       3.301  15.517  23.084  0.00  0.00    +0.000 OA
ATOM      5  O   UNL     1       5.066  14.085  23.251  0.00  0.00    +0.000 OA
ATOM      6  C   UNL     1       6.256  13.540  22.721  0.00  0.00    +0.000 A 
ATOM      7  C   UNL     1       6.773  12.397  23.371  0.00  0.00    +0.000 A 
ATOM      8  C   UNL     1       7.980  11.858  22.921  0.00  0.00    +0.000 A 
ATOM      9  C   UNL     1       8.620  12.459  21.856  0.00  0.00    +0.000 A 
ATOM     10  C   UNL     1       8.085  13.570  21.213  0.00  0.00    +0.000 A 
ATOM     11  C   UNL     1       6.881  14.156  21.615  0.00  0.00    +0.000 A 
ATOM     12  O   UNL     1       8.882  13.986  20.176  0.00  0.00    +0.000 OA
ATOM     13  C   UNL     1       9.987  13.045  20.084  0.00  0.00    +0.000 C 
ATOM     14  C   UNL     1       9.935  12.094  21.285  0.00  0.00    +0.000 C 
ENDROOT
BRANCH  13  15
ATOM     15  C   UNL     1       9.983  12.325  18.707  0.00  0.00    +0.000 C 
ATOM     16  C   UNL     1       8.966  12.923  17.727  0.00  0.00    +0.000 C 
ATOM     17  C   UNL     1      11.379  12.391  18.078  0.00  0.00    +0.000 C 
BRANCH  15  18
ATOM     18  O   UNL     1       9.696  10.931  18.888  0.00  0.00    +0.000 OA
ATOM     19  H   UNL     1       9.985  10.444  18.097  0.00  0.00    +0.000 HD
ENDBRANCH  15  18
ENDBRANCH  13  15
BRANCH   1  20
ATOM     20  C   UNL     1       6.790  16.039  19.774  0.00  0.00    +0.000 C 
ATOM     21  C   UNL     1       7.304  17.453  20.100  0.00  0.00    +0.000 C 
BRANCH  20  23
ATOM     22  C   UNL     1       5.659  14.717  17.892  0.00  0.00    +0.000 C 
ATOM     23  C   UNL     1       5.742  16.036  18.643  0.00  0.00    +0.000 C 
ENDBRANCH  20  23
ENDBRANCH   1  20
BRANCH   7  24
ATOM     24  C   UNL     1       6.104  11.749  24.535  0.00  0.00    +0.000 C 
ATOM     25  O   UNL     1       5.228  10.921  24.285  0.00  0.00    +0.000 OA
BRANCH  24  26
ATOM     26  C   UNL     1       6.492  12.143  25.955  0.00  0.00    +0.000 C 
BRANCH  26  27
ATOM     27  C   UNL     1       5.856  11.310  27.075  0.00  0.00    +0.000 C 
ATOM     28  C   UNL     1       6.830  11.082  28.232  0.00  0.00    +0.000 C 
BRANCH  27  29
ATOM     29  C   UNL     1       4.509  11.886  27.532  0.00  0.00    +0.000 C 
BRANCH  29  30
ATOM     30  O   UNL     1       3.517  10.867  27.578  0.00  0.00    +0.000 OA
ATOM     31  H   UNL     1       3.450  10.562  28.497  0.00  0.00    +0.000 HD
ENDBRANCH  29  30
ENDBRANCH  27  29
ENDBRANCH  26  27
ENDBRANCH  24  26
ENDBRANCH   7  24
BRANCH   8  32
ATOM     32  O   UNL     1       8.579  10.759  23.467  0.00  0.00    +0.000 OA
ATOM     33  H   UNL     1       9.496  11.007  23.724  0.00  0.00    +0.000 HD
ENDBRANCH   8  32
TORSDOF 10
ENDMDL
MODEL 2
REMARK VINA RESULT:      -6.1      8.795     11.664
REMARK  Name = 
REMARK  15 active torsions:
REMARK  status: ('A' for Active; 'I' for Inactive)
REMARK    1  A    between atoms: C_1  and  C_2
REMARK    2  A    between atoms: C_2  and  C_3
REMARK    3  A    between atoms: C_3  and  C_4
REMARK    4  A    between atoms: C_3  and  C_5
REMARK    5  A    between atoms: C_11  and  C_12
REMARK    6  A    between atoms: C_12  and  C_14
REMARK    7  A    between atoms: C_14  and  C_15
REMARK    8  A    between atoms: C_15  and  C_16
REMARK    9  A    between atoms: C_15  and  C_17
REMARK   10  A    between atoms: C_17  and  O_18
REMARK   11  A    between atoms: C_19  and  O_20
REMARK   12  A    between atoms: C_25  and  C_26
REMARK   13  A    between atoms: C_26  and  C_27
REMARK   14  A    between atoms: C_26  and  C_28
REMARK   15  A    between atoms: C_26  and  O_29
REMARK                            x       y       z     vdW  Elec       q    Type
REMARK                         _______ _______ _______ _____ _____    ______ ____
ROOT
ATOM      1  C   UNL     1      -4.480  11.908  18.523  0.00  0.00    +0.000 A 
ATOM      2  C   UNL     1      -4.031  11.499  17.325  0.00  0.00    +0.000 A 
ATOM      3  C   UNL     1      -2.649  11.113  17.049  0.00  0.00    +0.000 A 
ATOM      4  O   UNL     1      -2.285  10.758  15.936  0.00  0.00    +0.000 OA
ATOM      5  O   UNL     1      -1.792  11.177  18.121  0.00  0.00    +0.000 OA
ATOM      6  C   UNL     1      -2.160  11.688  19.385  0.00  0.00    +0.000 A 
ATOM      7  C   UNL     1      -1.132  11.801  20.346  0.00  0.00    +0.000 A 
ATOM      8  C   UNL     1      -1.460  12.245  21.629  0.00  0.00    +0.000 A 
ATOM      9  C   UNL     1      -2.774  12.559  21.909  0.00  0.00    +0.000 A 
ATOM     10  C   UNL     1      -3.770  12.464  20.943  0.00  0.00    +0.000 A 
ATOM     11  C   UNL     1      -3.506  12.028  19.641  0.00  0.00    +0.000 A 
ATOM     12  O   UNL     1      -4.993  12.842  21.438  0.00  0.00    +0.000 OA
ATOM     13  C   UNL     1      -4.779  13.281  22.809  0.00  0.00    +0.000 C 
ATOM     14  C   UNL     1      -3.336  12.966  23.215  0.00  0.00    +0.000 C 
ENDROOT
BRANCH  13  15
ATOM     15  C   UNL     1      -5.171  14.776  22.974  0.00  0.00    +0.000 C 
ATOM     16  C   UNL     1      -3.957  15.713  22.972  0.00  0.00    +0.000 C 
ATOM     17  C   UNL     1      -6.126  15.194  21.850  0.00  0.00    +0.000 C 
BRANCH  15  18
ATOM     18  O   UNL     1      -5.898  14.954  24.198  0.00  0.00    +0.000 OA
ATOM     19  H   UNL     1      -6.832  15.130  23.988  0.00  0.00    +0.000 HD
ENDBRANCH  15  18
ENDBRANCH  13  15
BRANCH   1  20
ATOM     20  C   UNL     1      -5.954  12.280  18.698  0.00  0.00    +0.000 C 
ATOM     21  C   UNL     1      -6.849  11.060  18.979  0.00  0.00    +0.000 C 
BRANCH  20  23
ATOM     22  C   UNL     1      -7.373  14.213  17.793  0.00  0.00    +0.000 C 
ATOM     23  C   UNL     1      -6.415  13.080  17.463  0.00  0.00    +0.000 C 
ENDBRANCH  20  23
ENDBRANCH   1  20
BRANCH   7  24
ATOM     24  C   UNL     1       0.289  11.446  20.067  0.00  0.00    +0.000 C 
ATOM     25  O   UNL     1       1.089  12.378  19.977  0.00  0.00    +0.000 OA
BRANCH  24  26
ATOM     26  C   UNL     1       0.688   9.989  19.874  0.00  0.00    +0.000 C 
BRANCH  26  27
ATOM     27  C   UNL     1       0.605   9.104  21.124  0.00  0.00    +0.000 C 
ATOM     28  C   UNL     1       1.091   7.681  20.842  0.00  0.00    +0.000 C 
BRANCH  27  29
ATOM     29  C   UNL     1       1.297   9.744  22.334  0.00  0.00    +0.000 C 
BRANCH  29  30
ATOM     30  O   UNL     1       0.417   9.785  23.452  0.00  0.00    +0.000 OA
ATOM     31  H   UNL     1       0.928   9.534  24.238  0.00  0.00    +0.000 HD
ENDBRANCH  29  30
ENDBRANCH  27  29
ENDBRANCH  26  27
ENDBRANCH  24  26
ENDBRANCH   7  24
BRANCH   8  32
ATOM     32  O   UNL     1      -0.556  12.395  22.642  0.00  0.00    +0.000 OA
ATOM     33  H   UNL     1      -0.696  11.664  23.287  0.00  0.00    +0.000 HD
ENDBRANCH   8  32
TORSDOF 10
ENDMDL
MODEL 3
REMARK VINA RESULT:      -6.1      8.971     11.286
REMARK  Name = 
REMARK  15 active torsions:
REMARK  status: ('A' for Active; 'I' for Inactive)
REMARK    1  A    between atoms: C_1  and  C_2
REMARK    2  A    between atoms: C_2  and  C_3
REMARK    3  A    between atoms: C_3  and  C_4
REMARK    4  A    between atoms: C_3  and  C_5
REMARK    5  A    between atoms: C_11  and  C_12
REMARK    6  A    between atoms: C_12  and  C_14
REMARK    7  A    between atoms: C_14  and  C_15
REMARK    8  A    between atoms: C_15  and  C_16
REMARK    9  A    between atoms: C_15  and  C_17
REMARK   10  A    between atoms: C_17  and  O_18
REMARK   11  A    between atoms: C_19  and  O_20
REMARK   12  A    between atoms: C_25  and  C_26
REMARK   13  A    between atoms: C_26  and  C_27
REMARK   14  A    between atoms: C_26  and  C_28
REMARK   15  A    between atoms: C_26  and  O_29
REMARK                            x       y       z     vdW  Elec       q    Type
REMARK                         _______ _______ _______ _____ _____    ______ ____
ROOT
ATOM      1  C   UNL     1      -4.566  11.722  19.003  0.00  0.00    +0.000 A 
ATOM      2  C   UNL     1      -5.839  11.301  19.073  0.00  0.00    +0.000 A 
ATOM      3  C   UNL     1      -6.687  11.425  20.258  0.00  0.00    +0.000 A 
ATOM      4  O   UNL     1      -7.839  11.015  20.275  0.00  0.00    +0.000 OA
ATOM      5  O   UNL     1      -6.101  12.031  21.343  0.00  0.00    +0.000 OA
ATOM      6  C   UNL     1      -4.742  12.411  21.384  0.00  0.00    +0.000 A 
ATOM      7  C   UNL     1      -4.261  12.909  22.615  0.00  0.00    +0.000 A 
ATOM      8  C   UNL     1      -2.939  13.354  22.688  0.00  0.00    +0.000 A 
ATOM      9  C   UNL     1      -2.152  13.289  21.556  0.00  0.00    +0.000 A 
ATOM     10  C   UNL     1      -2.636  12.774  20.358  0.00  0.00    +0.000 A 
ATOM     11  C   UNL     1      -3.948  12.311  20.221  0.00  0.00    +0.000 A 
ATOM     12  O   UNL     1      -1.676  12.791  19.377  0.00  0.00    +0.000 OA
ATOM     13  C   UNL     1      -0.453  13.290  19.987  0.00  0.00    +0.000 C 
ATOM     14  C   UNL     1      -0.765  13.779  21.405  0.00  0.00    +0.000 C 
ENDROOT
BRANCH  13  15
ATOM     15  C   UNL     1       0.671  12.219  19.919  0.00  0.00    +0.000 C 
ATOM     16  C   UNL     1       0.206  10.909  19.270  0.00  0.00    +0.000 C 
ATOM     17  C   UNL     1       1.870  12.766  19.136  0.00  0.00    +0.000 C 
BRANCH  15  18
ATOM     18  O   UNL     1       1.156  11.940  21.240  0.00  0.00    +0.000 OA
ATOM     19  H   UNL     1       1.939  11.367  21.175  0.00  0.00    +0.000 HD
ENDBRANCH  15  18
ENDBRANCH  13  15
BRANCH   1  20
ATOM     20  C   UNL     1      -3.776  11.548  17.705  0.00  0.00    +0.000 C 
ATOM     21  C   UNL     1      -4.639  11.753  16.447  0.00  0.00    +0.000 C 
BRANCH  20  23
ATOM     22  C   UNL     1      -2.435   9.792  16.403  0.00  0.00    +0.000 C 
ATOM     23  C   UNL     1      -3.079  10.172  17.727  0.00  0.00    +0.000 C 
ENDBRANCH  20  23
ENDBRANCH   1  20
BRANCH   7  24
ATOM     24  C   UNL     1      -5.103  13.006  23.841  0.00  0.00    +0.000 C 
ATOM     25  O   UNL     1      -4.920  12.156  24.712  0.00  0.00    +0.000 OA
BRANCH  24  26
ATOM     26  C   UNL     1      -6.155  14.101  23.959  0.00  0.00    +0.000 C 
BRANCH  26  27
ATOM     27  C   UNL     1      -5.850  15.403  23.207  0.00  0.00    +0.000 C 
ATOM     28  C   UNL     1      -6.912  15.706  22.149  0.00  0.00    +0.000 C 
BRANCH  27  29
ATOM     29  C   UNL     1      -5.603  16.579  24.161  0.00  0.00    +0.000 C 
BRANCH  29  30
ATOM     30  O   UNL     1      -4.578  16.261  25.095  0.00  0.00    +0.000 OA
ATOM     31  H   UNL     1      -4.166  15.430  24.808  0.00  0.00    +0.000 HD
ENDBRANCH  29  30
ENDBRANCH  27  29
ENDBRANCH  26  27
ENDBRANCH  24  26
ENDBRANCH   7  24
BRANCH   8  32
ATOM     32  O   UNL     1      -2.361  13.856  23.819  0.00  0.00    +0.000 OA
ATOM     33  H   UNL     1      -2.248  14.826  23.700  0.00  0.00    +0.000 HD
ENDBRANCH   8  32
TORSDOF 10
ENDMDL
MODEL 4
REMARK VINA RESULT:      -6.1      8.830     12.146
REMARK  Name = 
REMARK  15 active torsions:
REMARK  status: ('A' for Active; 'I' for Inactive)
REMARK    1  A    between atoms: C_1  and  C_2
REMARK    2  A    between atoms: C_2  and  C_3
REMARK    3  A    between atoms: C_3  and  C_4
REMARK    4  A    between atoms: C_3  and  C_5
REMARK    5  A    between atoms: C_11  and  C_12
REMARK    6  A    between atoms: C_12  and  C_14
REMARK    7  A    between atoms: C_14  and  C_15
REMARK    8  A    between atoms: C_15  and  C_16
REMARK    9  A    between atoms: C_15  and  C_17
REMARK   10  A    between atoms: C_17  and  O_18
REMARK   11  A    between atoms: C_19  and  O_20
REMARK   12  A    between atoms: C_25  and  C_26
REMARK   13  A    between atoms: C_26  and  C_27
REMARK   14  A    between atoms: C_26  and  C_28
REMARK   15  A    between atoms: C_26  and  O_29
REMARK                            x       y       z     vdW  Elec       q    Type
REMARK                         _______ _______ _______ _____ _____    ______ ____
ROOT
ATOM      1  C   UNL     1      -4.735  11.692  18.272  0.00  0.00    +0.000 A 
ATOM      2  C   UNL     1      -4.360  11.364  17.025  0.00  0.00    +0.000 A 
ATOM      3  C   UNL     1      -2.971  11.246  16.584  0.00  0.00    +0.000 A 
ATOM      4  O   UNL     1      -2.680  10.956  15.432  0.00  0.00    +0.000 OA
ATOM      5  O   UNL     1      -2.023  11.482  17.550  0.00  0.00    +0.000 OA
ATOM      6  C   UNL     1      -2.331  11.925  18.854  0.00  0.00    +0.000 A 
ATOM      7  C   UNL     1      -1.238  12.241  19.691  0.00  0.00    +0.000 A 
ATOM      8  C   UNL     1      -1.492  12.626  21.009  0.00  0.00    +0.000 A 
ATOM      9  C   UNL     1      -2.800  12.687  21.444  0.00  0.00    +0.000 A 
ATOM     10  C   UNL     1      -3.865  12.395  20.599  0.00  0.00    +0.000 A 
ATOM     11  C   UNL     1      -3.678  12.005  19.270  0.00  0.00    +0.000 A 
ATOM     12  O   UNL     1      -5.072  12.538  21.239  0.00  0.00    +0.000 OA
ATOM     13  C   UNL     1      -4.786  13.023  22.581  0.00  0.00    +0.000 C 
ATOM     14  C   UNL     1      -3.272  12.992  22.812  0.00  0.00    +0.000 C 
ENDROOT
BRANCH  13  15
ATOM     15  C   UNL     1      -5.433  14.417  22.810  0.00  0.00    +0.000 C 
ATOM     16  C   UNL     1      -4.421  15.565  22.717  0.00  0.00    +0.000 C 
ATOM     17  C   UNL     1      -6.550  14.651  21.786  0.00  0.00    +0.000 C 
BRANCH  15  18
ATOM     18  O   UNL     1      -6.064  14.453  24.098  0.00  0.00    +0.000 OA
ATOM     19  H   UNL     1      -6.541  13.617  24.240  0.00  0.00    +0.000 HD
ENDBRANCH  15  18
ENDBRANCH  13  15
BRANCH   1  20
ATOM     20  C   UNL     1      -6.222  11.777  18.623  0.00  0.00    +0.000 C 
ATOM     21  C   UNL     1      -6.858  10.399  18.874  0.00  0.00    +0.000 C 
BRANCH  20  23
ATOM     22  C   UNL     1      -6.861  14.079  17.693  0.00  0.00    +0.000 C 
ATOM     23  C   UNL     1      -6.948  12.571  17.518  0.00  0.00    +0.000 C 
ENDBRANCH  20  23
ENDBRANCH   1  20
BRANCH   7  24
ATOM     24  C   UNL     1       0.182  12.161  19.243  0.00  0.00    +0.000 C 
ATOM     25  O   UNL     1       0.831  11.186  19.622  0.00  0.00    +0.000 OA
BRANCH  24  26
ATOM     26  C   UNL     1       0.776  13.271  18.386  0.00  0.00    +0.000 C 
BRANCH  26  27
ATOM     27  C   UNL     1       1.475  14.402  19.151  0.00  0.00    +0.000 C 
ATOM     28  C   UNL     1       2.844  14.727  18.551  0.00  0.00    +0.000 C 
BRANCH  27  29
ATOM     29  C   UNL     1       0.580  15.639  19.302  0.00  0.00    +0.000 C 
BRANCH  29  30
ATOM     30  O   UNL     1      -0.605  15.497  18.526  0.00  0.00    +0.000 OA
ATOM     31  H   UNL     1      -0.349  15.153  17.656  0.00  0.00    +0.000 HD
ENDBRANCH  29  30
ENDBRANCH  27  29
ENDBRANCH  26  27
ENDBRANCH  24  26
ENDBRANCH   7  24
BRANCH   8  32
ATOM     32  O   UNL     1      -0.521  12.955  21.911  0.00  0.00    +0.000 OA
ATOM     33  H   UNL     1       0.288  12.438  21.691  0.00  0.00    +0.000 HD
ENDBRANCH   8  32
TORSDOF 10
ENDMDL
MODEL 5
REMARK VINA RESULT:      -6.0      9.058     12.149
REMARK  Name = 
REMARK  15 active torsions:
REMARK  status: ('A' for Active; 'I' for Inactive)
REMARK    1  A    between atoms: C_1  and  C_2
REMARK    2  A    between atoms: C_2  and  C_3
REMARK    3  A    between atoms: C_3  and  C_4
REMARK    4  A    between atoms: C_3  and  C_5
REMARK    5  A    between atoms: C_11  and  C_12
REMARK    6  A    between atoms: C_12  and  C_14
REMARK    7  A    between atoms: C_14  and  C_15
REMARK    8  A    between atoms: C_15  and  C_16
REMARK    9  A    between atoms: C_15  and  C_17
REMARK   10  A    between atoms: C_17  and  O_18
REMARK   11  A    between atoms: C_19  and  O_20
REMARK   12  A    between atoms: C_25  and  C_26
REMARK   13  A    between atoms: C_26  and  C_27
REMARK   14  A    between atoms: C_26  and  C_28
REMARK   15  A    between atoms: C_26  and  O_29
REMARK                            x       y       z     vdW  Elec       q    Type
REMARK                         _______ _______ _______ _____ _____    ______ ____
ROOT
ATOM      1  C   UNL     1      -4.762  11.861  19.189  0.00  0.00    +0.000 A 
ATOM      2  C   UNL     1      -4.172  11.609  18.008  0.00  0.00    +0.000 A 
ATOM      3  C   UNL     1      -2.730  11.661  17.777  0.00  0.00    +0.000 A 
ATOM      4  O   UNL     1      -2.241  11.433  16.679  0.00  0.00    +0.000 OA
ATOM      5  O   UNL     1      -1.967  11.981  18.874  0.00  0.00    +0.000 OA
ATOM      6  C   UNL     1      -2.513  12.355  20.122  0.00  0.00    +0.000 A 
ATOM      7  C   UNL     1      -1.598  12.774  21.113  0.00  0.00    +0.000 A 
ATOM      8  C   UNL     1      -2.085  13.095  22.381  0.00  0.00    +0.000 A 
ATOM      9  C   UNL     1      -3.440  12.996  22.618  0.00  0.00    +0.000 A 
ATOM     10  C   UNL     1      -4.330  12.603  21.624  0.00  0.00    +0.000 A 
ATOM     11  C   UNL     1      -3.906  12.270  20.334  0.00  0.00    +0.000 A 
ATOM     12  O   UNL     1      -5.625  12.592  22.079  0.00  0.00    +0.000 OA
ATOM     13  C   UNL     1      -5.597  13.074  23.451  0.00  0.00    +0.000 C 
ATOM     14  C   UNL     1      -4.140  13.212  23.904  0.00  0.00    +0.000 C 
ENDROOT
BRANCH  13  15
ATOM     15  C   UNL     1      -6.429  14.379  23.592  0.00  0.00    +0.000 C 
ATOM     16  C   UNL     1      -6.736  15.037  22.241  0.00  0.00    +0.000 C 
ATOM     17  C   UNL     1      -7.749  14.084  24.314  0.00  0.00    +0.000 C 
BRANCH  15  18
ATOM     18  O   UNL     1      -5.726  15.316  24.421  0.00  0.00    +0.000 OA
ATOM     19  H   UNL     1      -6.374  15.857  24.905  0.00  0.00    +0.000 HD
ENDBRANCH  15  18
ENDBRANCH  13  15
BRANCH   1  20
ATOM     20  C   UNL     1      -6.284  11.767  19.316  0.00  0.00    +0.000 C 
ATOM     21  C   UNL     1      -6.873  10.558  18.569  0.00  0.00    +0.000 C 
BRANCH  20  23
ATOM     22  C   UNL     1      -7.301  13.124  17.393  0.00  0.00    +0.000 C 
ATOM     23  C   UNL     1      -6.904  13.104  18.861  0.00  0.00    +0.000 C 
ENDBRANCH  20  23
ENDBRANCH   1  20
BRANCH   7  24
ATOM     24  C   UNL     1      -0.128  12.867  20.880  0.00  0.00    +0.000 C 
ATOM     25  O   UNL     1       0.290  13.905  20.368  0.00  0.00    +0.000 OA
BRANCH  24  26
ATOM     26  C   UNL     1       0.778  11.696  21.240  0.00  0.00    +0.000 C 
BRANCH  26  27
ATOM     27  C   UNL     1       0.110  10.315  21.252  0.00  0.00    +0.000 C 
ATOM     28  C   UNL     1       0.621   9.431  20.114  0.00  0.00    +0.000 C 
BRANCH  27  29
ATOM     29  C   UNL     1       0.204   9.638  22.626  0.00  0.00    +0.000 C 
BRANCH  29  30
ATOM     30  O   UNL     1      -0.990   9.847  23.371  0.00  0.00    +0.000 OA
ATOM     31  H   UNL     1      -1.276  10.762  23.219  0.00  0.00    +0.000 HD
ENDBRANCH  29  30
ENDBRANCH  27  29
ENDBRANCH  26  27
ENDBRANCH  24  26
ENDBRANCH   7  24
BRANCH   8  32
ATOM     32  O   UNL     1      -1.301  13.511  23.420  0.00  0.00    +0.000 OA
ATOM     33  H   UNL     1      -0.696  14.212  23.084  0.00  0.00    +0.000 HD
ENDBRANCH   8  32
TORSDOF 10
ENDMDL
MODEL 6
REMARK VINA RESULT:      -6.0      9.045     12.003
REMARK  Name = 
REMARK  15 active torsions:
REMARK  status: ('A' for Active; 'I' for Inactive)
REMARK    1  A    between atoms: C_1  and  C_2
REMARK    2  A    between atoms: C_2  and  C_3
REMARK    3  A    between atoms: C_3  and  C_4
REMARK    4  A    between atoms: C_3  and  C_5
REMARK    5  A    between atoms: C_11  and  C_12
REMARK    6  A    between atoms: C_12  and  C_14
REMARK    7  A    between atoms: C_14  and  C_15
REMARK    8  A    between atoms: C_15  and  C_16
REMARK    9  A    between atoms: C_15  and  C_17
REMARK   10  A    between atoms: C_17  and  O_18
REMARK   11  A    between atoms: C_19  and  O_20
REMARK   12  A    between atoms: C_25  and  C_26
REMARK   13  A    between atoms: C_26  and  C_27
REMARK   14  A    between atoms: C_26  and  C_28
REMARK   15  A    between atoms: C_26  and  O_29
REMARK                            x       y       z     vdW  Elec       q    Type
REMARK                         _______ _______ _______ _____ _____    ______ ____
ROOT
ATOM      1  C   UNL     1      -4.610  12.045  18.217  0.00  0.00    +0.000 A 
ATOM      2  C   UNL     1      -4.145  11.527  17.068  0.00  0.00    +0.000 A 
ATOM      3  C   UNL     1      -2.800  10.982  16.891  0.00  0.00    +0.000 A 
ATOM      4  O   UNL     1      -2.419  10.531  15.820  0.00  0.00    +0.000 OA
ATOM      5  O   UNL     1      -2.000  11.013  18.008  0.00  0.00    +0.000 OA
ATOM      6  C   UNL     1      -2.377  11.627  19.222  0.00  0.00    +0.000 A 
ATOM      7  C   UNL     1      -1.395  11.681  20.235  0.00  0.00    +0.000 A 
ATOM      8  C   UNL     1      -1.740  12.225  21.475  0.00  0.00    +0.000 A 
ATOM      9  C   UNL     1      -3.025  12.692  21.661  0.00  0.00    +0.000 A 
ATOM     10  C   UNL     1      -3.973  12.651  20.644  0.00  0.00    +0.000 A 
ATOM     11  C   UNL     1      -3.690  12.121  19.382  0.00  0.00    +0.000 A 
ATOM     12  O   UNL     1      -5.172  13.182  21.049  0.00  0.00    +0.000 OA
ATOM     13  C   UNL     1      -4.984  13.669  22.407  0.00  0.00    +0.000 C 
ATOM     14  C   UNL     1      -3.608  13.225  22.912  0.00  0.00    +0.000 C 
ENDROOT
BRANCH  13  15
ATOM     15  C   UNL     1      -5.220  15.204  22.478  0.00  0.00    +0.000 C 
ATOM     16  C   UNL     1      -5.900  15.759  21.220  0.00  0.00    +0.000 C 
ATOM     17  C   UNL     1      -6.077  15.546  23.702  0.00  0.00    +0.000 C 
BRANCH  15  18
ATOM     18  O   UNL     1      -3.969  15.879  22.671  0.00  0.00    +0.000 OA
ATOM     19  H   UNL     1      -4.074  16.545  23.372  0.00  0.00    +0.000 HD
ENDBRANCH  15  18
ENDBRANCH  13  15
BRANCH   1  20
ATOM     20  C   UNL     1      -6.042  12.579  18.287  0.00  0.00    +0.000 C 
ATOM     21  C   UNL     1      -7.070  11.491  18.643  0.00  0.00    +0.000 C 
BRANCH  20  23
ATOM     22  C   UNL     1      -7.085  14.624  17.145  0.00  0.00    +0.000 C 
ATOM     23  C   UNL     1      -6.372  13.294  16.961  0.00  0.00    +0.000 C 
ENDBRANCH  20  23
ENDBRANCH   1  20
BRANCH   7  24
ATOM     24  C   UNL     1      -0.008  11.163  20.057  0.00  0.00    +0.000 C 
ATOM     25  O   UNL     1       0.865  11.989  19.793  0.00  0.00    +0.000 OA
BRANCH  24  26
ATOM     26  C   UNL     1       0.269   9.670  20.170  0.00  0.00    +0.000 C 
BRANCH  26  27
ATOM     27  C   UNL     1       1.503   9.161  19.415  0.00  0.00    +0.000 C 
ATOM     28  C   UNL     1       1.942   7.784  19.913  0.00  0.00    +0.000 C 
BRANCH  27  29
ATOM     29  C   UNL     1       1.314   9.215  17.893  0.00  0.00    +0.000 C 
BRANCH  29  30
ATOM     30  O   UNL     1       1.966  10.357  17.347  0.00  0.00    +0.000 OA
ATOM     31  H   UNL     1       2.365  10.848  18.083  0.00  0.00    +0.000 HD
ENDBRANCH  29  30
ENDBRANCH  27  29
ENDBRANCH  26  27
ENDBRANCH  24  26
ENDBRANCH   7  24
BRANCH   8  32
ATOM     32  O   UNL     1      -0.880  12.332  22.530  0.00  0.00    +0.000 OA
ATOM     33  H   UNL     1      -1.025  13.209  22.955  0.00  0.00    +0.000 HD
ENDBRANCH   8  32
TORSDOF 10
ENDMDL
MODEL 7
REMARK VINA RESULT:      -6.0      9.267     12.482
REMARK  Name = 
REMARK  15 active torsions:
REMARK  status: ('A' for Active; 'I' for Inactive)
REMARK    1  A    between atoms: C_1  and  C_2
REMARK    2  A    between atoms: C_2  and  C_3
REMARK    3  A    between atoms: C_3  and  C_4
REMARK    4  A    between atoms: C_3  and  C_5
REMARK    5  A    between atoms: C_11  and  C_12
REMARK    6  A    between atoms: C_12  and  C_14
REMARK    7  A    between atoms: C_14  and  C_15
REMARK    8  A    between atoms: C_15  and  C_16
REMARK    9  A    between atoms: C_15  and  C_17
REMARK   10  A    between atoms: C_17  and  O_18
REMARK   11  A    between atoms: C_19  and  O_20
REMARK   12  A    between atoms: C_25  and  C_26
REMARK   13  A    between atoms: C_26  and  C_27
REMARK   14  A    between atoms: C_26  and  C_28
REMARK   15  A    between atoms: C_26  and  O_29
REMARK                            x       y       z     vdW  Elec       q    Type
REMARK                         _______ _______ _______ _____ _____    ______ ____
ROOT
ATOM      1  C   UNL     1      -4.916  11.697  18.919  0.00  0.00    +0.000 A 
ATOM      2  C   UNL     1      -4.335  11.400  17.745  0.00  0.00    +0.000 A 
ATOM      3  C   UNL     1      -2.900  11.502  17.484  0.00  0.00    +0.000 A 
ATOM      4  O   UNL     1      -2.419  11.231  16.392  0.00  0.00    +0.000 OA
ATOM      5  O   UNL     1      -2.135  11.921  18.545  0.00  0.00    +0.000 OA
ATOM      6  C   UNL     1      -2.677  12.344  19.778  0.00  0.00    +0.000 A 
ATOM      7  C   UNL     1      -1.766  12.862  20.726  0.00  0.00    +0.000 A 
ATOM      8  C   UNL     1      -2.247  13.238  21.982  0.00  0.00    +0.000 A 
ATOM      9  C   UNL     1      -3.593  13.092  22.250  0.00  0.00    +0.000 A 
ATOM     10  C   UNL     1      -4.479  12.602  21.297  0.00  0.00    +0.000 A 
ATOM     11  C   UNL     1      -4.061  12.211  20.021  0.00  0.00    +0.000 A 
ATOM     12  O   UNL     1      -5.765  12.561  21.776  0.00  0.00    +0.000 OA
ATOM     13  C   UNL     1      -5.737  13.126  23.117  0.00  0.00    +0.000 C 
ATOM     14  C   UNL     1      -4.280  13.354  23.533  0.00  0.00    +0.000 C 
ENDROOT
BRANCH  13  15
ATOM     15  C   UNL     1      -6.625  14.399  23.195  0.00  0.00    +0.000 C 
ATOM     16  C   UNL     1      -7.914  14.175  23.995  0.00  0.00    +0.000 C 
ATOM     17  C   UNL     1      -5.836  15.549  23.831  0.00  0.00    +0.000 C 
BRANCH  15  18
ATOM     18  O   UNL     1      -6.964  14.836  21.872  0.00  0.00    +0.000 OA
ATOM     19  H   UNL     1      -6.145  14.997  21.372  0.00  0.00    +0.000 HD
ENDBRANCH  15  18
ENDBRANCH  13  15
BRANCH   1  20
ATOM     20  C   UNL     1      -6.430  11.544  19.080  0.00  0.00    +0.000 C 
ATOM     21  C   UNL     1      -6.869  10.078  19.246  0.00  0.00    +0.000 C 
BRANCH  20  23
ATOM     22  C   UNL     1      -7.876  13.506  18.283  0.00  0.00    +0.000 C 
ATOM     23  C   UNL     1      -7.129  12.240  17.894  0.00  0.00    +0.000 C 
ENDBRANCH  20  23
ENDBRANCH   1  20
BRANCH   7  24
ATOM     24  C   UNL     1      -0.306  13.006  20.460  0.00  0.00    +0.000 C 
ATOM     25  O   UNL     1       0.041  13.949  19.750  0.00  0.00    +0.000 OA
BRANCH  24  26
ATOM     26  C   UNL     1       0.677  11.992  21.031  0.00  0.00    +0.000 C 
BRANCH  26  27
ATOM     27  C   UNL     1       0.858  10.706  20.214  0.00  0.00    +0.000 C 
ATOM     28  C   UNL     1      -0.307   9.737  20.422  0.00  0.00    +0.000 C 
BRANCH  27  29
ATOM     29  C   UNL     1       1.140  10.994  18.734  0.00  0.00    +0.000 C 
BRANCH  29  30
ATOM     30  O   UNL     1       0.197  10.326  17.904  0.00  0.00    +0.000 OA
ATOM     31  H   UNL     1       0.530   9.428  17.744  0.00  0.00    +0.000 HD
ENDBRANCH  29  30
ENDBRANCH  27  29
ENDBRANCH  26  27
ENDBRANCH  24  26
ENDBRANCH   7  24
BRANCH   8  32
ATOM     32  O   UNL     1      -1.466  13.749  22.979  0.00  0.00    +0.000 OA
ATOM     33  H   UNL     1      -1.816  13.422  23.839  0.00  0.00    +0.000 HD
ENDBRANCH   8  32
TORSDOF 10
ENDMDL
MODEL 8
REMARK VINA RESULT:      -6.0      9.081     12.105
REMARK  Name = 
REMARK  15 active torsions:
REMARK  status: ('A' for Active; 'I' for Inactive)
REMARK    1  A    between atoms: C_1  and  C_2
REMARK    2  A    between atoms: C_2  and  C_3
REMARK    3  A    between atoms: C_3  and  C_4
REMARK    4  A    between atoms: C_3  and  C_5
REMARK    5  A    between atoms: C_11  and  C_12
REMARK    6  A    between atoms: C_12  and  C_14
REMARK    7  A    between atoms: C_14  and  C_15
REMARK    8  A    between atoms: C_15  and  C_16
REMARK    9  A    between atoms: C_15  and  C_17
REMARK   10  A    between atoms: C_17  and  O_18
REMARK   11  A    between atoms: C_19  and  O_20
REMARK   12  A    between atoms: C_25  and  C_26
REMARK   13  A    between atoms: C_26  and  C_27
REMARK   14  A    between atoms: C_26  and  C_28
REMARK   15  A    between atoms: C_26  and  O_29
REMARK                            x       y       z     vdW  Elec       q    Type
REMARK                         _______ _______ _______ _____ _____    ______ ____
ROOT
ATOM      1  C   UNL     1      -4.765  11.766  18.371  0.00  0.00    +0.000 A 
ATOM      2  C   UNL     1      -4.337  11.436  17.141  0.00  0.00    +0.000 A 
ATOM      3  C   UNL     1      -2.931  11.288  16.768  0.00  0.00    +0.000 A 
ATOM      4  O   UNL     1      -2.590  10.997  15.629  0.00  0.00    +0.000 OA
ATOM      5  O   UNL     1      -2.026  11.497  17.780  0.00  0.00    +0.000 OA
ATOM      6  C   UNL     1      -2.388  11.941  19.071  0.00  0.00    +0.000 A 
ATOM      7  C   UNL     1      -1.330  12.227  19.961  0.00  0.00    +0.000 A 
ATOM      8  C   UNL     1      -1.639  12.612  21.268  0.00  0.00    +0.000 A 
ATOM      9  C   UNL     1      -2.965  12.700  21.639  0.00  0.00    +0.000 A 
ATOM     10  C   UNL     1      -3.994  12.437  20.742  0.00  0.00    +0.000 A 
ATOM     11  C   UNL     1      -3.751  12.050  19.420  0.00  0.00    +0.000 A 
ATOM     12  O   UNL     1      -5.227  12.605  21.323  0.00  0.00    +0.000 OA
ATOM     13  C   UNL     1      -4.996  13.076  22.679  0.00  0.00    +0.000 C 
ATOM     14  C   UNL     1      -3.496  13.009  22.985  0.00  0.00    +0.000 C 
ENDROOT
BRANCH  13  15
ATOM     15  C   UNL     1      -5.622  14.484  22.886  0.00  0.00    +0.000 C 
ATOM     16  C   UNL     1      -4.586  15.612  22.809  0.00  0.00    +0.000 C 
ATOM     17  C   UNL     1      -6.710  14.733  21.835  0.00  0.00    +0.000 C 
BRANCH  15  18
ATOM     18  O   UNL     1      -6.282  14.540  24.159  0.00  0.00    +0.000 OA
ATOM     19  H   UNL     1      -5.658  14.879  24.823  0.00  0.00    +0.000 HD
ENDBRANCH  15  18
ENDBRANCH  13  15
BRANCH   1  20
ATOM     20  C   UNL     1      -6.265  11.884  18.649  0.00  0.00    +0.000 C 
ATOM     21  C   UNL     1      -6.930  10.526  18.934  0.00  0.00    +0.000 C 
BRANCH  20  23
ATOM     22  C   UNL     1      -7.890  13.728  17.918  0.00  0.00    +0.000 C 
ATOM     23  C   UNL     1      -6.930  12.634  17.477  0.00  0.00    +0.000 C 
ENDBRANCH  20  23
ENDBRANCH   1  20
BRANCH   7  24
ATOM     24  C   UNL     1       0.108  12.116  19.583  0.00  0.00    +0.000 C 
ATOM     25  O   UNL     1       0.539  12.945  18.782  0.00  0.00    +0.000 OA
BRANCH  24  26
ATOM     26  C   UNL     1       0.963  10.994  20.157  0.00  0.00    +0.000 C 
BRANCH  26  27
ATOM     27  C   UNL     1       0.689   9.593  19.596  0.00  0.00    +0.000 C 
ATOM     28  C   UNL     1       0.767   9.571  18.069  0.00  0.00    +0.000 C 
BRANCH  27  29
ATOM     29  C   UNL     1       1.568   8.522  20.255  0.00  0.00    +0.000 C 
BRANCH  29  30
ATOM     30  O   UNL     1       1.419   8.553  21.670  0.00  0.00    +0.000 OA
ATOM     31  H   UNL     1       0.575   8.126  21.887  0.00  0.00    +0.000 HD
ENDBRANCH  29  30
ENDBRANCH  27  29
ENDBRANCH  26  27
ENDBRANCH  24  26
ENDBRANCH   7  24
BRANCH   8  32
ATOM     32  O   UNL     1      -0.706  12.913  22.219  0.00  0.00    +0.000 OA
ATOM     33  H   UNL     1      -0.043  12.185  22.237  0.00  0.00    +0.000 HD
ENDBRANCH   8  32
TORSDOF 10
ENDMDL
MODEL 9
REMARK VINA RESULT:      -6.0      8.691     11.582
REMARK  Name = 
REMARK  15 active torsions:
REMARK  status: ('A' for Active; 'I' for Inactive)
REMARK    1  A    between atoms: C_1  and  C_2
REMARK    2  A    between atoms: C_2  and  C_3
REMARK    3  A    between atoms: C_3  and  C_4
REMARK    4  A    between atoms: C_3  and  C_5
REMARK    5  A    between atoms: C_11  and  C_12
REMARK    6  A    between atoms: C_12  and  C_14
REMARK    7  A    between atoms: C_14  and  C_15
REMARK    8  A    between atoms: C_15  and  C_16
REMARK    9  A    between atoms: C_15  and  C_17
REMARK   10  A    between atoms: C_17  and  O_18
REMARK   11  A    between atoms: C_19  and  O_20
REMARK   12  A    between atoms: C_25  and  C_26
REMARK   13  A    between atoms: C_26  and  C_27
REMARK   14  A    between atoms: C_26  and  C_28
REMARK   15  A    between atoms: C_26  and  O_29
REMARK                            x       y       z     vdW  Elec       q    Type
REMARK                         _______ _______ _______ _____ _____    ______ ____
ROOT
ATOM      1  C   UNL     1      -4.433  11.920  18.479  0.00  0.00    +0.000 A 
ATOM      2  C   UNL     1      -4.300  11.603  17.180  0.00  0.00    +0.000 A 
ATOM      3  C   UNL     1      -3.043  11.201  16.553  0.00  0.00    +0.000 A 
ATOM      4  O   UNL     1      -2.970  10.933  15.361  0.00  0.00    +0.000 OA
ATOM      5  O   UNL     1      -1.955  11.147  17.390  0.00  0.00    +0.000 OA
ATOM      6  C   UNL     1      -1.990  11.557  18.741  0.00  0.00    +0.000 A 
ATOM      7  C   UNL     1      -0.759  11.556  19.434  0.00  0.00    +0.000 A 
ATOM      8  C   UNL     1      -0.753  11.896  20.789  0.00  0.00    +0.000 A 
ATOM      9  C   UNL     1      -1.947  12.224  21.398  0.00  0.00    +0.000 A 
ATOM     10  C   UNL     1      -3.146  12.243  20.693  0.00  0.00    +0.000 A 
ATOM     11  C   UNL     1      -3.219  11.914  19.337  0.00  0.00    +0.000 A 
ATOM     12  O   UNL     1      -4.197  12.613  21.495  0.00  0.00    +0.000 OA
ATOM     13  C   UNL     1      -3.644  12.925  22.804  0.00  0.00    +0.000 C 
ATOM     14  C   UNL     1      -2.164  12.533  22.828  0.00  0.00    +0.000 C 
ENDROOT
BRANCH  13  15
ATOM     15  C   UNL     1      -3.912  14.411  23.173  0.00  0.00    +0.000 C 
ATOM     16  C   UNL     1      -2.626  15.242  23.262  0.00  0.00    +0.000 C 
ATOM     17  C   UNL     1      -4.847  15.048  22.138  0.00  0.00    +0.000 C 
BRANCH  15  18
ATOM     18  O   UNL     1      -4.604  14.482  24.427  0.00  0.00    +0.000 OA
ATOM     19  H   UNL     1      -4.398  13.687  24.948  0.00  0.00    +0.000 HD
ENDBRANCH  15  18
ENDBRANCH  13  15
BRANCH   1  20
ATOM     20  C   UNL     1      -5.804  12.319  19.029  0.00  0.00    +0.000 C 
ATOM     21  C   UNL     1      -6.777  11.131  19.130  0.00  0.00    +0.000 C 
BRANCH  20  23
ATOM     22  C   UNL     1      -7.884  13.488  18.092  0.00  0.00    +0.000 C 
ATOM     23  C   UNL     1      -6.366  13.473  18.175  0.00  0.00    +0.000 C 
ENDBRANCH  20  23
ENDBRANCH   1  20
BRANCH   7  24
ATOM     24  C   UNL     1       0.537  11.184  18.797  0.00  0.00    +0.000 C 
ATOM     25  O   UNL     1       1.375  12.077  18.678  0.00  0.00    +0.000 OA
BRANCH  24  26
ATOM     26  C   UNL     1       0.761   9.763  18.298  0.00  0.00    +0.000 C 
BRANCH  26  27
ATOM     27  C   UNL     1       1.815   8.947  19.059  0.00  0.00    +0.000 C 
ATOM     28  C   UNL     1       1.300   8.496  20.427  0.00  0.00    +0.000 C 
BRANCH  27  29
ATOM     29  C   UNL     1       2.371   7.791  18.218  0.00  0.00    +0.000 C 
BRANCH  29  30
ATOM     30  O   UNL     1       2.484   6.609  19.002  0.00  0.00    +0.000 OA
ATOM     31  H   UNL     1       1.626   6.455  19.428  0.00  0.00    +0.000 HD
ENDBRANCH  29  30
ENDBRANCH  27  29
ENDBRANCH  26  27
ENDBRANCH  24  26
ENDBRANCH   7  24
BRANCH   8  32
ATOM     32  O   UNL     1       0.371  11.931  21.565  0.00  0.00    +0.000 OA
ATOM     33  H   UNL     1       0.140  12.367  22.416  0.00  0.00    +0.000 HD
ENDBRANCH   8  32
TORSDOF 10
ENDMDL
