MODEL 1
REMARK VINA RESULT:      -6.1      0.000      0.000
REMARK  Name = 
REMARK  9 active torsions:
REMARK  status: ('A' for Active; 'I' for Inactive)
REMARK    1  A    between atoms: C_1  and  C_2
REMARK    2  A    between atoms: C_2  and  C_3
REMARK    3  A    between atoms: C_3  and  C_4
REMARK    4  A    between atoms: C_3  and  C_5
REMARK    5  A    between atoms: C_5  and  O_7
REMARK    6  A    between atoms: O_7  and  C_8
REMARK    7  A    between atoms: C_8  and  N_9
REMARK    8  A    between atoms: N_9  and  C_10
REMARK    9  A    between atoms: C_14  and  C_15
REMARK                            x       y       z     vdW  Elec       q    Type
REMARK                         _______ _______ _______ _____ _____    ______ ____
ROOT
ATOM      1  C   UNL     1       4.874   3.808  19.158  0.00  0.00    +0.000 C 
ENDROOT
BRANCH   1   2
ATOM      2  N   UNL     1       3.427   3.344  19.393  0.00  0.00    +0.000 N 
ATOM      3  C   UNL     1       3.415   2.530  20.676  0.00  0.00    +0.000 C 
ATOM      4  C   UNL     1       2.989   2.475  18.210  0.00  0.00    +0.000 C 
ATOM      5  C   UNL     1       2.633   3.483  17.139  0.00  0.00    +0.000 C 
ATOM      6  C   UNL     1       1.952   4.607  17.898  0.00  0.00    +0.000 C 
ATOM      7  C   UNL     1       2.457   4.548  19.352  0.00  0.00    +0.000 C 
ATOM      8  C   UNL     1       1.274   4.398  20.310  0.00  0.00    +0.000 C 
ENDBRANCH   1   2
BRANCH   1   9
ATOM      9  O   UNL     1       5.095   5.215  19.101  0.00  0.00    +0.000 OA
BRANCH   9  10
ATOM     10  C   UNL     1       6.413   5.552  19.037  0.00  0.00    +0.000 C 
ATOM     11  O   UNL     1       7.212   5.322  19.937  0.00  0.00    +0.000 OA
BRANCH  10  12
ATOM     12  C   UNL     1       6.762   6.141  17.686  0.00  0.00    +0.000 C 
ATOM     13  C   UNL     1       7.730   7.299  17.931  0.00  0.00    +0.000 C 
BRANCH  12  15
ATOM     14  C   UNL     1       5.267   5.896  15.635  0.00  0.00    +0.000 C 
ATOM     15  C   UNL     1       5.515   6.640  16.941  0.00  0.00    +0.000 C 
ENDBRANCH  12  15
ENDBRANCH  10  12
ENDBRANCH   9  10
ENDBRANCH   1   9
TORSDOF 5
ENDMDL
MODEL 2
REMARK VINA RESULT:      -5.9      1.090      1.334
REMARK  Name = 
REMARK  9 active torsions:
REMARK  status: ('A' for Active; 'I' for Inactive)
REMARK    1  A    between atoms: C_1  and  C_2
REMARK    2  A    between atoms: C_2  and  C_3
REMARK    3  A    between atoms: C_3  and  C_4
REMARK    4  A    between atoms: C_3  and  C_5
REMARK    5  A    between atoms: C_5  and  O_7
REMARK    6  A    between atoms: O_7  and  C_8
REMARK    7  A    between atoms: C_8  and  N_9
REMARK    8  A    between atoms: N_9  and  C_10
REMARK    9  A    between atoms: C_14  and  C_15
REMARK                            x       y       z     vdW  Elec       q    Type
REMARK                         _______ _______ _______ _____ _____    ______ ____
ROOT
ATOM      1  C   UNL     1       4.369   4.404  18.915  0.00  0.00    +0.000 C 
ENDROOT
BRANCH   1   2
ATOM      2  N   UNL     1       3.454   3.300  19.469  0.00  0.00    +0.000 N 
ATOM      3  C   UNL     1       4.348   2.193  20.000  0.00  0.00    +0.000 C 
ATOM      4  C   UNL     1       2.576   2.771  18.331  0.00  0.00    +0.000 C 
ATOM      5  C   UNL     1       1.479   3.807  18.214  0.00  0.00    +0.000 C 
ATOM      6  C   UNL     1       1.179   4.194  19.650  0.00  0.00    +0.000 C 
ATOM      7  C   UNL     1       2.442   3.889  20.479  0.00  0.00    +0.000 C 
ATOM      8  C   UNL     1       2.100   2.925  21.617  0.00  0.00    +0.000 C 
ENDBRANCH   1   2
BRANCH   1   9
ATOM      9  O   UNL     1       5.691   4.017  18.547  0.00  0.00    +0.000 OA
BRANCH   9  10
ATOM     10  C   UNL     1       6.622   4.983  18.783  0.00  0.00    +0.000 C 
ATOM     11  O   UNL     1       6.853   5.438  19.896  0.00  0.00    +0.000 OA
BRANCH  10  12
ATOM     12  C   UNL     1       7.381   5.330  17.519  0.00  0.00    +0.000 C 
ATOM     13  C   UNL     1       7.253   6.839  17.311  0.00  0.00    +0.000 C 
BRANCH  12  15
ATOM     14  C   UNL     1       5.873   5.415  15.466  0.00  0.00    +0.000 C 
ATOM     15  C   UNL     1       6.834   4.576  16.298  0.00  0.00    +0.000 C 
ENDBRANCH  12  15
ENDBRANCH  10  12
ENDBRANCH   9  10
ENDBRANCH   1   9
TORSDOF 5
ENDMDL
MODEL 3
REMARK VINA RESULT:      -5.9      1.253      1.626
REMARK  Name = 
REMARK  9 active torsions:
REMARK  status: ('A' for Active; 'I' for Inactive)
REMARK    1  A    between atoms: C_1  and  C_2
REMARK    2  A    between atoms: C_2  and  C_3
REMARK    3  A    between atoms: C_3  and  C_4
REMARK    4  A    between atoms: C_3  and  C_5
REMARK    5  A    between atoms: C_5  and  O_7
REMARK    6  A    between atoms: O_7  and  C_8
REMARK    7  A    between atoms: C_8  and  N_9
REMARK    8  A    between atoms: N_9  and  C_10
REMARK    9  A    between atoms: C_14  and  C_15
REMARK                            x       y       z     vdW  Elec       q    Type
REMARK                         _______ _______ _______ _____ _____    ______ ____
ROOT
ATOM      1  C   UNL     1       4.585   3.136  19.090  0.00  0.00    +0.000 C 
ENDROOT
BRANCH   1   2
ATOM      2  N   UNL     1       3.140   3.254  19.602  0.00  0.00    +0.000 N 
ATOM      3  C   UNL     1       3.102   2.658  20.998  0.00  0.00    +0.000 C 
ATOM      4  C   UNL     1       2.220   2.467  18.664  0.00  0.00    +0.000 C 
ATOM      5  C   UNL     1       2.022   3.400  17.489  0.00  0.00    +0.000 C 
ATOM      6  C   UNL     1       1.914   4.775  18.122  0.00  0.00    +0.000 C 
ATOM      7  C   UNL     1       2.639   4.713  19.480  0.00  0.00    +0.000 C 
ATOM      8  C   UNL     1       1.680   5.113  20.602  0.00  0.00    +0.000 C 
ENDBRANCH   1   2
BRANCH   1   9
ATOM      9  O   UNL     1       5.404   4.297  19.208  0.00  0.00    +0.000 OA
BRANCH   9  10
ATOM     10  C   UNL     1       6.201   4.508  18.123  0.00  0.00    +0.000 C 
ATOM     11  O   UNL     1       7.424   4.464  18.167  0.00  0.00    +0.000 OA
BRANCH  10  12
ATOM     12  C   UNL     1       5.375   4.695  16.868  0.00  0.00    +0.000 C 
ATOM     13  C   UNL     1       5.977   3.792  15.789  0.00  0.00    +0.000 C 
BRANCH  12  15
ATOM     14  C   UNL     1       4.476   7.050  17.243  0.00  0.00    +0.000 C 
ATOM     15  C   UNL     1       5.372   6.156  16.397  0.00  0.00    +0.000 C 
ENDBRANCH  12  15
ENDBRANCH  10  12
ENDBRANCH   9  10
ENDBRANCH   1   9
TORSDOF 5
ENDMDL
MODEL 4
REMARK VINA RESULT:      -5.9      1.341      1.866
REMARK  Name = 
REMARK  9 active torsions:
REMARK  status: ('A' for Active; 'I' for Inactive)
REMARK    1  A    between atoms: C_1  and  C_2
REMARK    2  A    between atoms: C_2  and  C_3
REMARK    3  A    between atoms: C_3  and  C_4
REMARK    4  A    between atoms: C_3  and  C_5
REMARK    5  A    between atoms: C_5  and  O_7
REMARK    6  A    between atoms: O_7  and  C_8
REMARK    7  A    between atoms: C_8  and  N_9
REMARK    8  A    between atoms: N_9  and  C_10
REMARK    9  A    between atoms: C_14  and  C_15
REMARK                            x       y       z     vdW  Elec       q    Type
REMARK                         _______ _______ _______ _____ _____    ______ ____
ROOT
ATOM      1  C   UNL     1       4.383   4.616  19.213  0.00  0.00    +0.000 C 
ENDROOT
BRANCH   1   2
ATOM      2  N   UNL     1       3.502   3.417  19.598  0.00  0.00    +0.000 N 
ATOM      3  C   UNL     1       4.429   2.279  19.990  0.00  0.00    +0.000 C 
ATOM      4  C   UNL     1       2.657   3.017  18.384  0.00  0.00    +0.000 C 
ATOM      5  C   UNL     1       1.526   4.021  18.389  0.00  0.00    +0.000 C 
ATOM      6  C   UNL     1       1.195   4.200  19.859  0.00  0.00    +0.000 C 
ATOM      7  C   UNL     1       2.457   3.830  20.661  0.00  0.00    +0.000 C 
ATOM      8  C   UNL     1       2.136   2.710  21.652  0.00  0.00    +0.000 C 
ENDBRANCH   1   2
BRANCH   1   9
ATOM      9  O   UNL     1       4.809   4.690  17.854  0.00  0.00    +0.000 OA
BRANCH   9  10
ATOM     10  C   UNL     1       6.153   4.871  17.719  0.00  0.00    +0.000 C 
ATOM     11  O   UNL     1       6.975   4.435  18.515  0.00  0.00    +0.000 OA
BRANCH  10  12
ATOM     12  C   UNL     1       6.480   5.582  16.422  0.00  0.00    +0.000 C 
ATOM     13  C   UNL     1       5.207   6.292  15.960  0.00  0.00    +0.000 C 
BRANCH  12  15
ATOM     14  C   UNL     1       5.855   4.165  14.397  0.00  0.00    +0.000 C 
ATOM     15  C   UNL     1       6.966   4.605  15.341  0.00  0.00    +0.000 C 
ENDBRANCH  12  15
ENDBRANCH  10  12
ENDBRANCH   9  10
ENDBRANCH   1   9
TORSDOF 5
ENDMDL
MODEL 5
REMARK VINA RESULT:      -5.8      1.734      2.561
REMARK  Name = 
REMARK  9 active torsions:
REMARK  status: ('A' for Active; 'I' for Inactive)
REMARK    1  A    between atoms: C_1  and  C_2
REMARK    2  A    between atoms: C_2  and  C_3
REMARK    3  A    between atoms: C_3  and  C_4
REMARK    4  A    between atoms: C_3  and  C_5
REMARK    5  A    between atoms: C_5  and  O_7
REMARK    6  A    between atoms: O_7  and  C_8
REMARK    7  A    between atoms: C_8  and  N_9
REMARK    8  A    between atoms: N_9  and  C_10
REMARK    9  A    between atoms: C_14  and  C_15
REMARK                            x       y       z     vdW  Elec       q    Type
REMARK                         _______ _______ _______ _____ _____    ______ ____
ROOT
ATOM      1  C   UNL     1       5.161   4.029  17.319  0.00  0.00    +0.000 C 
ENDROOT
BRANCH   1   2
ATOM      2  N   UNL     1       3.906   4.081  18.205  0.00  0.00    +0.000 N 
ATOM      3  C   UNL     1       3.858   5.458  18.844  0.00  0.00    +0.000 C 
ATOM      4  C   UNL     1       4.020   3.000  19.284  0.00  0.00    +0.000 C 
ATOM      5  C   UNL     1       3.621   1.731  18.563  0.00  0.00    +0.000 C 
ATOM      6  C   UNL     1       2.486   2.161  17.654  0.00  0.00    +0.000 C 
ATOM      7  C   UNL     1       2.653   3.671  17.397  0.00  0.00    +0.000 C 
ATOM      8  C   UNL     1       1.389   4.418  17.829  0.00  0.00    +0.000 C 
ENDBRANCH   1   2
BRANCH   1   9
ATOM      9  O   UNL     1       5.827   5.267  17.077  0.00  0.00    +0.000 OA
BRANCH   9  10
ATOM     10  C   UNL     1       7.185   5.157  17.074  0.00  0.00    +0.000 C 
ATOM     11  O   UNL     1       7.792   4.326  16.412  0.00  0.00    +0.000 OA
BRANCH  10  12
ATOM     12  C   UNL     1       7.822   6.251  17.906  0.00  0.00    +0.000 C 
ATOM     13  C   UNL     1       7.562   5.916  19.375  0.00  0.00    +0.000 C 
BRANCH  12  15
ATOM     14  C   UNL     1       8.166   8.776  17.988  0.00  0.00    +0.000 C 
ATOM     15  C   UNL     1       7.250   7.635  17.566  0.00  0.00    +0.000 C 
ENDBRANCH  12  15
ENDBRANCH  10  12
ENDBRANCH   9  10
ENDBRANCH   1   9
TORSDOF 5
ENDMDL
MODEL 6
REMARK VINA RESULT:      -5.8      1.875      2.574
REMARK  Name = 
REMARK  9 active torsions:
REMARK  status: ('A' for Active; 'I' for Inactive)
REMARK    1  A    between atoms: C_1  and  C_2
REMARK    2  A    between atoms: C_2  and  C_3
REMARK    3  A    between atoms: C_3  and  C_4
REMARK    4  A    between atoms: C_3  and  C_5
REMARK    5  A    between atoms: C_5  and  O_7
REMARK    6  A    between atoms: O_7  and  C_8
REMARK    7  A    between atoms: C_8  and  N_9
REMARK    8  A    between atoms: N_9  and  C_10
REMARK    9  A    between atoms: C_14  and  C_15
REMARK                            x       y       z     vdW  Elec       q    Type
REMARK                         _______ _______ _______ _____ _____    ______ ____
ROOT
ATOM      1  C   UNL     1       3.530   5.159  17.400  0.00  0.00    +0.000 C 
ENDROOT
BRANCH   1   2
ATOM      2  N   UNL     1       3.388   4.317  18.678  0.00  0.00    +0.000 N 
ATOM      3  C   UNL     1       4.359   4.879  19.702  0.00  0.00    +0.000 C 
ATOM      4  C   UNL     1       3.744   2.863  18.352  0.00  0.00    +0.000 C 
ATOM      5  C   UNL     1       2.490   2.325  17.698  0.00  0.00    +0.000 C 
ATOM      6  C   UNL     1       1.360   2.954  18.491  0.00  0.00    +0.000 C 
ATOM      7  C   UNL     1       1.908   4.248  19.122  0.00  0.00    +0.000 C 
ATOM      8  C   UNL     1       1.740   4.199  20.642  0.00  0.00    +0.000 C 
ENDBRANCH   1   2
BRANCH   1   9
ATOM      9  O   UNL     1       4.695   5.974  17.294  0.00  0.00    +0.000 OA
BRANCH   9  10
ATOM     10  C   UNL     1       5.288   5.911  16.069  0.00  0.00    +0.000 C 
ATOM     11  O   UNL     1       5.205   6.803  15.235  0.00  0.00    +0.000 OA
BRANCH  10  12
ATOM     12  C   UNL     1       6.129   4.659  15.933  0.00  0.00    +0.000 C 
ATOM     13  C   UNL     1       7.135   4.659  17.085  0.00  0.00    +0.000 C 
BRANCH  12  15
ATOM     14  C   UNL     1       6.103   3.825  13.524  0.00  0.00    +0.000 C 
ATOM     15  C   UNL     1       6.864   4.608  14.586  0.00  0.00    +0.000 C 
ENDBRANCH  12  15
ENDBRANCH  10  12
ENDBRANCH   9  10
ENDBRANCH   1   9
TORSDOF 5
ENDMDL
MODEL 7
REMARK VINA RESULT:      -5.8      1.126      2.350
REMARK  Name = 
REMARK  9 active torsions:
REMARK  status: ('A' for Active; 'I' for Inactive)
REMARK    1  A    between atoms: C_1  and  C_2
REMARK    2  A    between atoms: C_2  and  C_3
REMARK    3  A    between atoms: C_3  and  C_4
REMARK    4  A    between atoms: C_3  and  C_5
REMARK    5  A    between atoms: C_5  and  O_7
REMARK    6  A    between atoms: O_7  and  C_8
REMARK    7  A    between atoms: C_8  and  N_9
REMARK    8  A    between atoms: N_9  and  C_10
REMARK    9  A    between atoms: C_14  and  C_15
REMARK                            x       y       z     vdW  Elec       q    Type
REMARK                         _______ _______ _______ _____ _____    ______ ____
ROOT
ATOM      1  C   UNL     1       4.280   5.273  19.476  0.00  0.00    +0.000 C 
ENDROOT
BRANCH   1   2
ATOM      2  N   UNL     1       3.305   4.208  18.949  0.00  0.00    +0.000 N 
ATOM      3  C   UNL     1       3.363   4.251  17.432  0.00  0.00    +0.000 C 
ATOM      4  C   UNL     1       1.893   4.549  19.435  0.00  0.00    +0.000 C 
ATOM      5  C   UNL     1       1.876   4.050  20.863  0.00  0.00    +0.000 C 
ATOM      6  C   UNL     1       2.662   2.753  20.812  0.00  0.00    +0.000 C 
ATOM      7  C   UNL     1       3.601   2.834  19.594  0.00  0.00    +0.000 C 
ATOM      8  C   UNL     1       3.335   1.659  18.650  0.00  0.00    +0.000 C 
ENDBRANCH   1   2
BRANCH   1   9
ATOM      9  O   UNL     1       5.262   5.753  18.560  0.00  0.00    +0.000 OA
BRANCH   9  10
ATOM     10  C   UNL     1       6.540   5.502  18.958  0.00  0.00    +0.000 C 
ATOM     11  O   UNL     1       6.839   5.185  20.103  0.00  0.00    +0.000 OA
BRANCH  10  12
ATOM     12  C   UNL     1       7.500   5.566  17.788  0.00  0.00    +0.000 C 
ATOM     13  C   UNL     1       7.398   6.971  17.193  0.00  0.00    +0.000 C 
BRANCH  12  15
ATOM     14  C   UNL     1       6.794   5.125  15.378  0.00  0.00    +0.000 C 
ATOM     15  C   UNL     1       7.171   4.512  16.720  0.00  0.00    +0.000 C 
ENDBRANCH  12  15
ENDBRANCH  10  12
ENDBRANCH   9  10
ENDBRANCH   1   9
TORSDOF 5
ENDMDL
MODEL 8
REMARK VINA RESULT:      -5.8      1.439      2.136
REMARK  Name = 
REMARK  9 active torsions:
REMARK  status: ('A' for Active; 'I' for Inactive)
REMARK    1  A    between atoms: C_1  and  C_2
REMARK    2  A    between atoms: C_2  and  C_3
REMARK    3  A    between atoms: C_3  and  C_4
REMARK    4  A    between atoms: C_3  and  C_5
REMARK    5  A    between atoms: C_5  and  O_7
REMARK    6  A    between atoms: O_7  and  C_8
REMARK    7  A    between atoms: C_8  and  N_9
REMARK    8  A    between atoms: N_9  and  C_10
REMARK    9  A    between atoms: C_14  and  C_15
REMARK                            x       y       z     vdW  Elec       q    Type
REMARK                         _______ _______ _______ _____ _____    ______ ____
ROOT
ATOM      1  C   UNL     1       4.405   3.450  18.992  0.00  0.00    +0.000 C 
ENDROOT
BRANCH   1   2
ATOM      2  N   UNL     1       2.885   3.344  19.197  0.00  0.00    +0.000 N 
ATOM      3  C   UNL     1       2.442   2.010  18.622  0.00  0.00    +0.000 C 
ATOM      4  C   UNL     1       2.206   4.496  18.450  0.00  0.00    +0.000 C 
ATOM      5  C   UNL     1       2.383   5.678  19.377  0.00  0.00    +0.000 C 
ATOM      6  C   UNL     1       2.188   5.095  20.764  0.00  0.00    +0.000 C 
ATOM      7  C   UNL     1       2.519   3.592  20.679  0.00  0.00    +0.000 C 
ATOM      8  C   UNL     1       1.319   2.766  21.146  0.00  0.00    +0.000 C 
ENDBRANCH   1   2
BRANCH   1   9
ATOM      9  O   UNL     1       4.854   3.791  17.682  0.00  0.00    +0.000 OA
BRANCH   9  10
ATOM     10  C   UNL     1       5.957   4.590  17.680  0.00  0.00    +0.000 C 
ATOM     11  O   UNL     1       6.907   4.428  18.435  0.00  0.00    +0.000 OA
BRANCH  10  12
ATOM     12  C   UNL     1       5.887   5.615  16.567  0.00  0.00    +0.000 C 
ATOM     13  C   UNL     1       4.893   6.692  17.004  0.00  0.00    +0.000 C 
BRANCH  12  15
ATOM     14  C   UNL     1       6.559   4.233  14.533  0.00  0.00    +0.000 C 
ATOM     15  C   UNL     1       5.440   4.987  15.238  0.00  0.00    +0.000 C 
ENDBRANCH  12  15
ENDBRANCH  10  12
ENDBRANCH   9  10
ENDBRANCH   1   9
TORSDOF 5
ENDMDL
MODEL 9
REMARK VINA RESULT:      -5.8      2.150      5.185
REMARK  Name = 
REMARK  9 active torsions:
REMARK  status: ('A' for Active; 'I' for Inactive)
REMARK    1  A    between atoms: C_1  and  C_2
REMARK    2  A    between atoms: C_2  and  C_3
REMARK    3  A    between atoms: C_3  and  C_4
REMARK    4  A    between atoms: C_3  and  C_5
REMARK    5  A    between atoms: C_5  and  O_7
REMARK    6  A    between atoms: O_7  and  C_8
REMARK    7  A    between atoms: C_8  and  N_9
REMARK    8  A    between atoms: N_9  and  C_10
REMARK    9  A    between atoms: C_14  and  C_15
REMARK                            x       y       z     vdW  Elec       q    Type
REMARK                         _______ _______ _______ _____ _____    ______ ____
ROOT
ATOM      1  C   UNL     1       3.713   4.384  17.431  0.00  0.00    +0.000 C 
ENDROOT
BRANCH   1   2
ATOM      2  N   UNL     1       5.055   5.081  17.709  0.00  0.00    +0.000 N 
ATOM      3  C   UNL     1       5.331   4.956  19.197  0.00  0.00    +0.000 C 
ATOM      4  C   UNL     1       4.935   6.556  17.314  0.00  0.00    +0.000 C 
ATOM      5  C   UNL     1       5.102   6.539  15.811  0.00  0.00    +0.000 C 
ATOM      6  C   UNL     1       6.174   5.494  15.568  0.00  0.00    +0.000 C 
ATOM      7  C   UNL     1       6.156   4.532  16.772  0.00  0.00    +0.000 C 
ATOM      8  C   UNL     1       7.537   4.491  17.429  0.00  0.00    +0.000 C 
ENDBRANCH   1   2
BRANCH   1   9
ATOM      9  O   UNL     1       2.540   5.035  17.914  0.00  0.00    +0.000 OA
BRANCH   9  10
ATOM     10  C   UNL     1       1.673   4.190  18.539  0.00  0.00    +0.000 C 
ATOM     11  O   UNL     1       1.152   3.230  17.986  0.00  0.00    +0.000 OA
BRANCH  10  12
ATOM     12  C   UNL     1       1.532   4.539  20.006  0.00  0.00    +0.000 C 
ATOM     13  C   UNL     1       1.981   5.991  20.173  0.00  0.00    +0.000 C 
BRANCH  12  15
ATOM     14  C   UNL     1       1.540   2.573  21.630  0.00  0.00    +0.000 C 
ATOM     15  C   UNL     1       2.375   3.616  20.898  0.00  0.00    +0.000 C 
ENDBRANCH  12  15
ENDBRANCH  10  12
ENDBRANCH   9  10
ENDBRANCH   1   9
TORSDOF 5
ENDMDL
