MODEL 1
REMARK VINA RESULT:      -7.6      0.000      0.000
REMARK  Name = 
REMARK  5 active torsions:
REMARK  status: ('A' for Active; 'I' for Inactive)
REMARK    1  A    between atoms: C_2  and  C_3
REMARK    2  A    between atoms: C_3  and  C_4
REMARK    3  A    between atoms: N_17  and  C_18
REMARK    4  A    between atoms: C_18  and  C_19
REMARK    5  A    between atoms: C_19  and  C_20
REMARK                            x       y       z     vdW  Elec       q    Type
REMARK                         _______ _______ _______ _____ _____    ______ ____
ROOT
ATOM      1  O   UNL     1       2.447   5.481  20.351  0.00  0.00    +0.000 OA
ATOM      2  C   UNL     1       2.537   6.282  19.415  0.00  0.00    +0.000 C 
ATOM      3  N   UNL     1       2.054   7.584  19.520  0.00  0.00    +0.000 N 
ATOM      4  C   UNL     1       2.124   8.595  18.470  0.00  0.00    +0.000 C 
ATOM      5  C   UNL     1       0.786   9.307  18.317  0.00  0.00    +0.000 C 
ATOM      6  C   UNL     1       0.282   9.922  19.642  0.00  0.00    +0.000 C 
ATOM      7  C   UNL     1       1.129  11.111  20.136  0.00  0.00    +0.000 C 
ATOM      8  C   UNL     1       1.102  12.283  19.171  0.00  0.00    +0.000 C 
ATOM      9  C   UNL     1      -0.248  12.618  18.561  0.00  0.00    +0.000 C 
ATOM     10  O   UNL     1      -0.411  13.704  18.006  0.00  0.00    +0.000 OA
ATOM     11  N   UNL     1      -1.185  11.593  18.505  0.00  0.00    +0.000 N 
ATOM     12  C   UNL     1      -1.137  10.469  19.437  0.00  0.00    +0.000 C 
ATOM     13  C   UNL     1       0.253   8.801  20.710  0.00  0.00    +0.000 C 
ATOM     14  C   UNL     1       1.584   8.057  20.823  0.00  0.00    +0.000 C 
ENDROOT
BRANCH   2  15
ATOM     15  C   UNL     1       3.200   5.840  18.117  0.00  0.00    +0.000 C 
BRANCH  15  16
ATOM     16  C   UNL     1       4.695   5.839  18.242  0.00  0.00    +0.000 A 
ATOM     17  C   UNL     1       5.473   5.224  19.204  0.00  0.00    +0.000 A 
ATOM     18  C   UNL     1       6.862   5.493  19.037  0.00  0.00    +0.000 A 
ATOM     19  C   UNL     1       7.103   6.304  17.951  0.00  0.00    +0.000 A 
ATOM     20  S   UNL     1       5.660   6.742  17.148  0.00  0.00    +0.000 S 
ENDBRANCH  15  16
ENDBRANCH   2  15
BRANCH  11  21
ATOM     21  C   UNL     1      -2.168  11.629  17.412  0.00  0.00    +0.000 C 
BRANCH  21  22
ATOM     22  C   UNL     1      -3.201  10.502  17.372  0.00  0.00    +0.000 C 
BRANCH  22  23
ATOM     23  C   UNL     1      -4.600  11.005  17.615  0.00  0.00    +0.000 A 
ATOM     24  C   UNL     1      -5.434  10.395  18.555  0.00  0.00    +0.000 A 
ATOM     25  C   UNL     1      -6.728  10.879  18.736  0.00  0.00    +0.000 A 
ATOM     26  C   UNL     1      -7.138  11.964  17.982  0.00  0.00    +0.000 A 
ATOM     27  N   UNL     1      -6.352  12.590  17.079  0.00  0.00    +0.000 NA
ATOM     28  C   UNL     1      -5.103  12.100  16.920  0.00  0.00    +0.000 A 
ENDBRANCH  22  23
ENDBRANCH  21  22
ENDBRANCH  11  21
TORSDOF 5
ENDMDL
MODEL 2
REMARK VINA RESULT:      -7.6      1.629      2.143
REMARK  Name = 
REMARK  5 active torsions:
REMARK  status: ('A' for Active; 'I' for Inactive)
REMARK    1  A    between atoms: C_2  and  C_3
REMARK    2  A    between atoms: C_3  and  C_4
REMARK    3  A    between atoms: N_17  and  C_18
REMARK    4  A    between atoms: C_18  and  C_19
REMARK    5  A    between atoms: C_19  and  C_20
REMARK                            x       y       z     vdW  Elec       q    Type
REMARK                         _______ _______ _______ _____ _____    ______ ____
ROOT
ATOM      1  O   UNL     1       2.315   5.587  20.567  0.00  0.00    +0.000 OA
ATOM      2  C   UNL     1       2.434   6.383  19.630  0.00  0.00    +0.000 C 
ATOM      3  N   UNL     1       1.974   7.693  19.723  0.00  0.00    +0.000 N 
ATOM      4  C   UNL     1       2.079   8.698  18.671  0.00  0.00    +0.000 C 
ATOM      5  C   UNL     1       0.756   9.434  18.494  0.00  0.00    +0.000 C 
ATOM      6  C   UNL     1       0.243  10.064  19.809  0.00  0.00    +0.000 C 
ATOM      7  C   UNL     1       1.103  11.238  20.312  0.00  0.00    +0.000 C 
ATOM      8  C   UNL     1       1.113  12.407  19.342  0.00  0.00    +0.000 C 
ATOM      9  C   UNL     1      -0.221  12.765  18.710  0.00  0.00    +0.000 C 
ATOM     10  O   UNL     1      -0.355  13.851  18.148  0.00  0.00    +0.000 OA
ATOM     11  N   UNL     1      -1.176  11.756  18.643  0.00  0.00    +0.000 N 
ATOM     12  C   UNL     1      -1.163  10.636  19.580  0.00  0.00    +0.000 C 
ATOM     13  C   UNL     1       0.176   8.947  20.880  0.00  0.00    +0.000 C 
ATOM     14  C   UNL     1       1.492   8.180  21.016  0.00  0.00    +0.000 C 
ENDROOT
BRANCH   2  15
ATOM     15  C   UNL     1       3.110   5.923  18.344  0.00  0.00    +0.000 C 
BRANCH  15  16
ATOM     16  C   UNL     1       3.045   4.432  18.198  0.00  0.00    +0.000 A 
ATOM     17  C   UNL     1       1.995   3.662  17.734  0.00  0.00    +0.000 A 
ATOM     18  C   UNL     1       2.272   2.266  17.792  0.00  0.00    +0.000 A 
ATOM     19  C   UNL     1       3.527   2.012  18.298  0.00  0.00    +0.000 A 
ATOM     20  S   UNL     1       4.356   3.449  18.705  0.00  0.00    +0.000 S 
ENDBRANCH  15  16
ENDBRANCH   2  15
BRANCH  11  21
ATOM     21  C   UNL     1      -2.140  11.806  17.534  0.00  0.00    +0.000 C 
BRANCH  21  22
ATOM     22  C   UNL     1      -3.392  10.937  17.666  0.00  0.00    +0.000 C 
BRANCH  22  23
ATOM     23  C   UNL     1      -4.612  11.748  18.017  0.00  0.00    +0.000 A 
ATOM     24  C   UNL     1      -5.570  12.067  17.052  0.00  0.00    +0.000 A 
ATOM     25  C   UNL     1      -6.674  12.836  17.414  0.00  0.00    +0.000 A 
ATOM     26  C   UNL     1      -6.790  13.246  18.730  0.00  0.00    +0.000 A 
ATOM     27  N   UNL     1      -5.894  12.939  19.693  0.00  0.00    +0.000 NA
ATOM     28  C   UNL     1      -4.831  12.195  19.316  0.00  0.00    +0.000 A 
ENDBRANCH  22  23
ENDBRANCH  21  22
ENDBRANCH  11  21
TORSDOF 5
ENDMDL
MODEL 3
REMARK VINA RESULT:      -7.5      1.500      1.904
REMARK  Name = 
REMARK  5 active torsions:
REMARK  status: ('A' for Active; 'I' for Inactive)
REMARK    1  A    between atoms: C_2  and  C_3
REMARK    2  A    between atoms: C_3  and  C_4
REMARK    3  A    between atoms: N_17  and  C_18
REMARK    4  A    between atoms: C_18  and  C_19
REMARK    5  A    between atoms: C_19  and  C_20
REMARK                            x       y       z     vdW  Elec       q    Type
REMARK                         _______ _______ _______ _____ _____    ______ ____
ROOT
ATOM      1  O   UNL     1       2.484   5.615  20.602  0.00  0.00    +0.000 OA
ATOM      2  C   UNL     1       2.567   6.394  19.648  0.00  0.00    +0.000 C 
ATOM      3  N   UNL     1       2.045   7.683  19.710  0.00  0.00    +0.000 N 
ATOM      4  C   UNL     1       2.105   8.668  18.635  0.00  0.00    +0.000 C 
ATOM      5  C   UNL     1       0.750   9.336  18.439  0.00  0.00    +0.000 C 
ATOM      6  C   UNL     1       0.204   9.971  19.739  0.00  0.00    +0.000 C 
ATOM      7  C   UNL     1       1.007  11.196  20.216  0.00  0.00    +0.000 C 
ATOM      8  C   UNL     1       0.964  12.341  19.219  0.00  0.00    +0.000 C 
ATOM      9  C   UNL     1      -0.384  12.621  18.578  0.00  0.00    +0.000 C 
ATOM     10  O   UNL     1      -0.568  13.687  17.991  0.00  0.00    +0.000 OA
ATOM     11  N   UNL     1      -1.290  11.567  18.533  0.00  0.00    +0.000 N 
ATOM     12  C   UNL     1      -1.226  10.470  19.495  0.00  0.00    +0.000 C 
ATOM     13  C   UNL     1       0.188   8.877  20.835  0.00  0.00    +0.000 C 
ATOM     14  C   UNL     1       1.539   8.176  20.991  0.00  0.00    +0.000 C 
ENDROOT
BRANCH   2  15
ATOM     15  C   UNL     1       3.267   5.937  18.373  0.00  0.00    +0.000 C 
BRANCH  15  16
ATOM     16  C   UNL     1       3.130   4.457  18.177  0.00  0.00    +0.000 A 
ATOM     17  C   UNL     1       4.129   3.525  17.970  0.00  0.00    +0.000 A 
ATOM     18  C   UNL     1       3.617   2.212  17.763  0.00  0.00    +0.000 A 
ATOM     19  C   UNL     1       2.242   2.180  17.820  0.00  0.00    +0.000 A 
ATOM     20  S   UNL     1       1.578   3.728  18.112  0.00  0.00    +0.000 S 
ENDBRANCH  15  16
ENDBRANCH   2  15
BRANCH  11  21
ATOM     21  C   UNL     1      -2.253  11.546  17.422  0.00  0.00    +0.000 C 
BRANCH  21  22
ATOM     22  C   UNL     1      -3.328  10.458  17.458  0.00  0.00    +0.000 C 
BRANCH  22  23
ATOM     23  C   UNL     1      -4.707  11.029  17.661  0.00  0.00    +0.000 A 
ATOM     24  C   UNL     1      -5.602  10.451  18.563  0.00  0.00    +0.000 A 
ATOM     25  C   UNL     1      -6.876  10.998  18.707  0.00  0.00    +0.000 A 
ATOM     26  C   UNL     1      -7.204  12.111  17.956  0.00  0.00    +0.000 A 
ATOM     27  N   UNL     1      -6.357  12.709  17.089  0.00  0.00    +0.000 NA
ATOM     28  C   UNL     1      -5.130  12.158  16.965  0.00  0.00    +0.000 A 
ENDBRANCH  22  23
ENDBRANCH  21  22
ENDBRANCH  11  21
TORSDOF 5
ENDMDL
MODEL 4
REMARK VINA RESULT:      -7.2      3.413      9.418
REMARK  Name = 
REMARK  5 active torsions:
REMARK  status: ('A' for Active; 'I' for Inactive)
REMARK    1  A    between atoms: C_2  and  C_3
REMARK    2  A    between atoms: C_3  and  C_4
REMARK    3  A    between atoms: N_17  and  C_18
REMARK    4  A    between atoms: C_18  and  C_19
REMARK    5  A    between atoms: C_19  and  C_20
REMARK                            x       y       z     vdW  Elec       q    Type
REMARK                         _______ _______ _______ _____ _____    ______ ____
ROOT
ATOM      1  O   UNL     1       1.129   9.990  20.988  0.00  0.00    +0.000 OA
ATOM      2  C   UNL     1       1.186   9.454  19.877  0.00  0.00    +0.000 C 
ATOM      3  N   UNL     1       1.320   8.075  19.738  0.00  0.00    +0.000 N 
ATOM      4  C   UNL     1       1.389   7.360  18.468  0.00  0.00    +0.000 C 
ATOM      5  C   UNL     1       2.519   6.338  18.485  0.00  0.00    +0.000 C 
ATOM      6  C   UNL     1       2.413   5.350  19.670  0.00  0.00    +0.000 C 
ATOM      7  C   UNL     1       1.219   4.382  19.566  0.00  0.00    +0.000 C 
ATOM      8  C   UNL     1       1.315   3.472  18.354  0.00  0.00    +0.000 C 
ATOM      9  C   UNL     1       2.686   2.891  18.059  0.00  0.00    +0.000 C 
ATOM     10  O   UNL     1       2.790   1.939  17.286  0.00  0.00    +0.000 OA
ATOM     11  N   UNL     1       3.784   3.592  18.546  0.00  0.00    +0.000 N 
ATOM     12  C   UNL     1       3.670   4.470  19.707  0.00  0.00    +0.000 C 
ATOM     13  C   UNL     1       2.324   6.177  20.976  0.00  0.00    +0.000 C 
ATOM     14  C   UNL     1       1.220   7.235  20.932  0.00  0.00    +0.000 C 
ENDROOT
BRANCH   2  15
ATOM     15  C   UNL     1       1.100  10.320  18.627  0.00  0.00    +0.000 C 
BRANCH  15  16
ATOM     16  C   UNL     1      -0.325  10.637  18.281  0.00  0.00    +0.000 A 
ATOM     17  C   UNL     1      -1.199   9.907  17.498  0.00  0.00    +0.000 A 
ATOM     18  C   UNL     1      -2.460  10.551  17.340  0.00  0.00    +0.000 A 
ATOM     19  C   UNL     1      -2.511  11.753  18.009  0.00  0.00    +0.000 A 
ATOM     20  S   UNL     1      -1.044  12.101  18.813  0.00  0.00    +0.000 S 
ENDBRANCH  15  16
ENDBRANCH   2  15
BRANCH  11  21
ATOM     21  C   UNL     1       5.042   3.495  17.790  0.00  0.00    +0.000 C 
BRANCH  21  22
ATOM     22  C   UNL     1       5.335   4.611  16.786  0.00  0.00    +0.000 C 
BRANCH  22  23
ATOM     23  C   UNL     1       6.314   5.620  17.327  0.00  0.00    +0.000 A 
ATOM     24  C   UNL     1       7.143   5.314  18.408  0.00  0.00    +0.000 A 
ATOM     25  C   UNL     1       8.022   6.282  18.890  0.00  0.00    +0.000 A 
ATOM     26  C   UNL     1       8.050   7.517  18.267  0.00  0.00    +0.000 A 
ATOM     27  N   UNL     1       7.276   7.841  17.207  0.00  0.00    +0.000 NA
ATOM     28  C   UNL     1       6.431   6.886  16.760  0.00  0.00    +0.000 A 
ENDBRANCH  22  23
ENDBRANCH  21  22
ENDBRANCH  11  21
TORSDOF 5
ENDMDL
MODEL 5
REMARK VINA RESULT:      -7.1      3.924      9.479
REMARK  Name = 
REMARK  5 active torsions:
REMARK  status: ('A' for Active; 'I' for Inactive)
REMARK    1  A    between atoms: C_2  and  C_3
REMARK    2  A    between atoms: C_3  and  C_4
REMARK    3  A    between atoms: N_17  and  C_18
REMARK    4  A    between atoms: C_18  and  C_19
REMARK    5  A    between atoms: C_19  and  C_20
REMARK                            x       y       z     vdW  Elec       q    Type
REMARK                         _______ _______ _______ _____ _____    ______ ____
ROOT
ATOM      1  O   UNL     1       0.938  10.679  20.751  0.00  0.00    +0.000 OA
ATOM      2  C   UNL     1       1.248  10.145  19.681  0.00  0.00    +0.000 C 
ATOM      3  N   UNL     1       1.364   8.763  19.562  0.00  0.00    +0.000 N 
ATOM      4  C   UNL     1       1.719   8.050  18.340  0.00  0.00    +0.000 C 
ATOM      5  C   UNL     1       2.774   6.988  18.621  0.00  0.00    +0.000 C 
ATOM      6  C   UNL     1       2.346   6.000  19.731  0.00  0.00    +0.000 C 
ATOM      7  C   UNL     1       1.182   5.077  19.325  0.00  0.00    +0.000 C 
ATOM      8  C   UNL     1       1.541   4.167  18.163  0.00  0.00    +0.000 C 
ATOM      9  C   UNL     1       2.922   3.538  18.207  0.00  0.00    +0.000 C 
ATOM     10  O   UNL     1       3.180   2.586  17.472  0.00  0.00    +0.000 OA
ATOM     11  N   UNL     1       3.890   4.197  18.957  0.00  0.00    +0.000 N 
ATOM     12  C   UNL     1       3.524   5.075  20.065  0.00  0.00    +0.000 C 
ATOM     13  C   UNL     1       1.968   6.826  20.985  0.00  0.00    +0.000 C 
ATOM     14  C   UNL     1       0.945   7.923  20.685  0.00  0.00    +0.000 C 
ENDROOT
BRANCH   2  15
ATOM     15  C   UNL     1       1.502  11.019  18.458  0.00  0.00    +0.000 C 
BRANCH  15  16
ATOM     16  C   UNL     1       1.094  12.439  18.710  0.00  0.00    +0.000 A 
ATOM     17  C   UNL     1      -0.133  13.032  18.474  0.00  0.00    +0.000 A 
ATOM     18  C   UNL     1      -0.136  14.423  18.781  0.00  0.00    +0.000 A 
ATOM     19  C   UNL     1       1.088  14.851  19.245  0.00  0.00    +0.000 A 
ATOM     20  S   UNL     1       2.231  13.581  19.298  0.00  0.00    +0.000 S 
ENDBRANCH  15  16
ENDBRANCH   2  15
BRANCH  11  21
ATOM     21  C   UNL     1       5.291   4.057  18.532  0.00  0.00    +0.000 C 
BRANCH  21  22
ATOM     22  C   UNL     1       5.936   5.269  17.859  0.00  0.00    +0.000 C 
BRANCH  22  23
ATOM     23  C   UNL     1       6.216   5.027  16.399  0.00  0.00    +0.000 A 
ATOM     24  C   UNL     1       5.300   4.352  15.590  0.00  0.00    +0.000 A 
ATOM     25  C   UNL     1       5.606   4.131  14.248  0.00  0.00    +0.000 A 
ATOM     26  C   UNL     1       6.810   4.605  13.760  0.00  0.00    +0.000 A 
ATOM     27  N   UNL     1       7.711   5.279  14.508  0.00  0.00    +0.000 NA
ATOM     28  C   UNL     1       7.392   5.478  15.806  0.00  0.00    +0.000 A 
ENDBRANCH  22  23
ENDBRANCH  21  22
ENDBRANCH  11  21
TORSDOF 5
ENDMDL
MODEL 6
REMARK VINA RESULT:      -7.0      3.412      4.652
REMARK  Name = 
REMARK  5 active torsions:
REMARK  status: ('A' for Active; 'I' for Inactive)
REMARK    1  A    between atoms: C_2  and  C_3
REMARK    2  A    between atoms: C_3  and  C_4
REMARK    3  A    between atoms: N_17  and  C_18
REMARK    4  A    between atoms: C_18  and  C_19
REMARK    5  A    between atoms: C_19  and  C_20
REMARK                            x       y       z     vdW  Elec       q    Type
REMARK                         _______ _______ _______ _____ _____    ______ ____
ROOT
ATOM      1  O   UNL     1       4.270   6.528  18.146  0.00  0.00    +0.000 OA
ATOM      2  C   UNL     1       3.304   6.625  18.910  0.00  0.00    +0.000 C 
ATOM      3  N   UNL     1       2.341   7.616  18.745  0.00  0.00    +0.000 N 
ATOM      4  C   UNL     1       1.168   7.799  19.594  0.00  0.00    +0.000 C 
ATOM      5  C   UNL     1       0.997   9.266  19.969  0.00  0.00    +0.000 C 
ATOM      6  C   UNL     1       0.934  10.194  18.734  0.00  0.00    +0.000 C 
ATOM      7  C   UNL     1      -0.340  10.014  17.887  0.00  0.00    +0.000 C 
ATOM      8  C   UNL     1      -1.602  10.365  18.656  0.00  0.00    +0.000 C 
ATOM      9  C   UNL     1      -1.534  11.609  19.524  0.00  0.00    +0.000 C 
ATOM     10  O   UNL     1      -2.575  12.114  19.945  0.00  0.00    +0.000 OA
ATOM     11  N   UNL     1      -0.273  12.010  19.950  0.00  0.00    +0.000 N 
ATOM     12  C   UNL     1       0.929  11.656  19.202  0.00  0.00    +0.000 C 
ATOM     13  C   UNL     1       2.194   9.932  17.874  0.00  0.00    +0.000 C 
ATOM     14  C   UNL     1       2.387   8.451  17.544  0.00  0.00    +0.000 C 
ENDROOT
BRANCH   2  15
ATOM     15  C   UNL     1       3.158   5.631  20.055  0.00  0.00    +0.000 C 
BRANCH  15  16
ATOM     16  C   UNL     1       2.526   4.353  19.590  0.00  0.00    +0.000 A 
ATOM     17  C   UNL     1       1.579   4.178  18.599  0.00  0.00    +0.000 A 
ATOM     18  C   UNL     1       1.164   2.822  18.472  0.00  0.00    +0.000 A 
ATOM     19  C   UNL     1       1.808   2.000  19.370  0.00  0.00    +0.000 A 
ATOM     20  S   UNL     1       2.898   2.866  20.361  0.00  0.00    +0.000 S 
ENDBRANCH  15  16
ENDBRANCH   2  15
BRANCH  11  21
ATOM     21  C   UNL     1      -0.184  12.721  21.235  0.00  0.00    +0.000 C 
BRANCH  21  22
ATOM     22  C   UNL     1      -0.666  11.969  22.477  0.00  0.00    +0.000 C 
BRANCH  22  23
ATOM     23  C   UNL     1      -1.720  12.735  23.232  0.00  0.00    +0.000 A 
ATOM     24  C   UNL     1      -2.957  12.160  23.530  0.00  0.00    +0.000 A 
ATOM     25  C   UNL     1      -3.912  12.909  24.214  0.00  0.00    +0.000 A 
ATOM     26  C   UNL     1      -3.593  14.202  24.587  0.00  0.00    +0.000 A 
ATOM     27  N   UNL     1      -2.400  14.784  24.333  0.00  0.00    +0.000 NA
ATOM     28  C   UNL     1      -1.492  14.037  23.667  0.00  0.00    +0.000 A 
ENDBRANCH  22  23
ENDBRANCH  21  22
ENDBRANCH  11  21
TORSDOF 5
ENDMDL
MODEL 7
REMARK VINA RESULT:      -7.0      0.935      1.026
REMARK  Name = 
REMARK  5 active torsions:
REMARK  status: ('A' for Active; 'I' for Inactive)
REMARK    1  A    between atoms: C_2  and  C_3
REMARK    2  A    between atoms: C_3  and  C_4
REMARK    3  A    between atoms: N_17  and  C_18
REMARK    4  A    between atoms: C_18  and  C_19
REMARK    5  A    between atoms: C_19  and  C_20
REMARK                            x       y       z     vdW  Elec       q    Type
REMARK                         _______ _______ _______ _____ _____    ______ ____
ROOT
ATOM      1  O   UNL     1       2.509   5.402  20.126  0.00  0.00    +0.000 OA
ATOM      2  C   UNL     1       2.555   6.223  19.204  0.00  0.00    +0.000 C 
ATOM      3  N   UNL     1       2.120   7.534  19.373  0.00  0.00    +0.000 N 
ATOM      4  C   UNL     1       2.144   8.568  18.343  0.00  0.00    +0.000 C 
ATOM      5  C   UNL     1       0.821   9.321  18.303  0.00  0.00    +0.000 C 
ATOM      6  C   UNL     1       0.433   9.918  19.675  0.00  0.00    +0.000 C 
ATOM      7  C   UNL     1       1.348  11.070  20.133  0.00  0.00    +0.000 C 
ATOM      8  C   UNL     1       1.287  12.265  19.197  0.00  0.00    +0.000 C 
ATOM      9  C   UNL     1      -0.093  12.654  18.696  0.00  0.00    +0.000 C 
ATOM     10  O   UNL     1      -0.263  13.757  18.178  0.00  0.00    +0.000 OA
ATOM     11  N   UNL     1      -1.062  11.657  18.686  0.00  0.00    +0.000 N 
ATOM     12  C   UNL     1      -0.981  10.510  19.587  0.00  0.00    +0.000 C 
ATOM     13  C   UNL     1       0.447   8.773  20.717  0.00  0.00    +0.000 C 
ATOM     14  C   UNL     1       1.760   7.989  20.716  0.00  0.00    +0.000 C 
ENDROOT
BRANCH   2  15
ATOM     15  C   UNL     1       3.109   5.793  17.851  0.00  0.00    +0.000 C 
BRANCH  15  16
ATOM     16  C   UNL     1       4.570   5.468  17.940  0.00  0.00    +0.000 A 
ATOM     17  C   UNL     1       5.412   5.600  19.028  0.00  0.00    +0.000 A 
ATOM     18  C   UNL     1       6.759   5.248  18.724  0.00  0.00    +0.000 A 
ATOM     19  C   UNL     1       6.905   4.856  17.412  0.00  0.00    +0.000 A 
ATOM     20  S   UNL     1       5.427   4.922  16.557  0.00  0.00    +0.000 S 
ENDBRANCH  15  16
ENDBRANCH   2  15
BRANCH  11  21
ATOM     21  C   UNL     1      -2.120  11.747  17.668  0.00  0.00    +0.000 C 
BRANCH  21  22
ATOM     22  C   UNL     1      -3.304  10.791  17.813  0.00  0.00    +0.000 C 
BRANCH  22  23
ATOM     23  C   UNL     1      -4.563  11.504  18.230  0.00  0.00    +0.000 A 
ATOM     24  C   UNL     1      -5.727  11.425  17.463  0.00  0.00    +0.000 A 
ATOM     25  C   UNL     1      -6.865  12.116  17.874  0.00  0.00    +0.000 A 
ATOM     26  C   UNL     1      -6.804  12.851  19.044  0.00  0.00    +0.000 A 
ATOM     27  N   UNL     1      -5.702  12.935  19.821  0.00  0.00    +0.000 NA
ATOM     28  C   UNL     1      -4.611  12.258  19.400  0.00  0.00    +0.000 A 
ENDBRANCH  22  23
ENDBRANCH  21  22
ENDBRANCH  11  21
TORSDOF 5
ENDMDL
MODEL 8
REMARK VINA RESULT:      -7.0      4.953      7.124
REMARK  Name = 
REMARK  5 active torsions:
REMARK  status: ('A' for Active; 'I' for Inactive)
REMARK    1  A    between atoms: C_2  and  C_3
REMARK    2  A    between atoms: C_3  and  C_4
REMARK    3  A    between atoms: N_17  and  C_18
REMARK    4  A    between atoms: C_18  and  C_19
REMARK    5  A    between atoms: C_19  and  C_20
REMARK                            x       y       z     vdW  Elec       q    Type
REMARK                         _______ _______ _______ _____ _____    ______ ____
ROOT
ATOM      1  O   UNL     1       0.023  11.266  22.129  0.00  0.00    +0.000 OA
ATOM      2  C   UNL     1      -0.625  12.126  21.524  0.00  0.00    +0.000 C 
ATOM      3  N   UNL     1      -1.699  12.783  22.119  0.00  0.00    +0.000 N 
ATOM      4  C   UNL     1      -2.512  13.813  21.482  0.00  0.00    +0.000 C 
ATOM      5  C   UNL     1      -3.995  13.549  21.714  0.00  0.00    +0.000 C 
ATOM      6  C   UNL     1      -4.350  13.414  23.213  0.00  0.00    +0.000 C 
ATOM      7  C   UNL     1      -4.215  14.729  24.004  0.00  0.00    +0.000 C 
ATOM      8  C   UNL     1      -5.170  15.803  23.511  0.00  0.00    +0.000 C 
ATOM      9  C   UNL     1      -6.582  15.347  23.188  0.00  0.00    +0.000 C 
ATOM     10  O   UNL     1      -7.477  16.182  23.061  0.00  0.00    +0.000 OA
ATOM     11  N   UNL     1      -6.752  14.003  22.871  0.00  0.00    +0.000 N 
ATOM     12  C   UNL     1      -5.818  12.987  23.347  0.00  0.00    +0.000 C 
ATOM     13  C   UNL     1      -3.437  12.322  23.824  0.00  0.00    +0.000 C 
ATOM     14  C   UNL     1      -1.954  12.567  23.544  0.00  0.00    +0.000 C 
ENDROOT
BRANCH   2  15
ATOM     15  C   UNL     1      -0.235  12.485  20.096  0.00  0.00    +0.000 C 
BRANCH  15  16
ATOM     16  C   UNL     1      -0.977  11.643  19.101  0.00  0.00    +0.000 A 
ATOM     17  C   UNL     1      -2.302  11.736  18.721  0.00  0.00    +0.000 A 
ATOM     18  C   UNL     1      -2.677  10.724  17.790  0.00  0.00    +0.000 A 
ATOM     19  C   UNL     1      -1.625   9.889  17.487  0.00  0.00    +0.000 A 
ATOM     20  S   UNL     1      -0.201  10.323  18.327  0.00  0.00    +0.000 S 
ENDBRANCH  15  16
ENDBRANCH   2  15
BRANCH  11  21
ATOM     21  C   UNL     1      -7.850  13.654  21.957  0.00  0.00    +0.000 C 
BRANCH  21  22
ATOM     22  C   UNL     1      -7.464  13.239  20.537  0.00  0.00    +0.000 C 
BRANCH  22  23
ATOM     23  C   UNL     1      -7.411  11.743  20.377  0.00  0.00    +0.000 A 
ATOM     24  C   UNL     1      -6.845  11.156  19.243  0.00  0.00    +0.000 A 
ATOM     25  C   UNL     1      -6.833   9.768  19.125  0.00  0.00    +0.000 A 
ATOM     26  C   UNL     1      -7.375   9.014  20.150  0.00  0.00    +0.000 A 
ATOM     27  N   UNL     1      -7.914   9.546  21.269  0.00  0.00    +0.000 NA
ATOM     28  C   UNL     1      -7.915  10.894  21.359  0.00  0.00    +0.000 A 
ENDBRANCH  22  23
ENDBRANCH  21  22
ENDBRANCH  11  21
TORSDOF 5
ENDMDL
MODEL 9
REMARK VINA RESULT:      -6.9      4.271      9.364
REMARK  Name = 
REMARK  5 active torsions:
REMARK  status: ('A' for Active; 'I' for Inactive)
REMARK    1  A    between atoms: C_2  and  C_3
REMARK    2  A    between atoms: C_3  and  C_4
REMARK    3  A    between atoms: N_17  and  C_18
REMARK    4  A    between atoms: C_18  and  C_19
REMARK    5  A    between atoms: C_19  and  C_20
REMARK                            x       y       z     vdW  Elec       q    Type
REMARK                         _______ _______ _______ _____ _____    ______ ____
ROOT
ATOM      1  O   UNL     1       1.108  10.527  20.714  0.00  0.00    +0.000 OA
ATOM      2  C   UNL     1       1.384   9.984  19.640  0.00  0.00    +0.000 C 
ATOM      3  N   UNL     1       1.460   8.600  19.519  0.00  0.00    +0.000 N 
ATOM      4  C   UNL     1       1.773   7.877  18.291  0.00  0.00    +0.000 C 
ATOM      5  C   UNL     1       2.804   6.787  18.553  0.00  0.00    +0.000 C 
ATOM      6  C   UNL     1       2.369   5.811  19.671  0.00  0.00    +0.000 C 
ATOM      7  C   UNL     1       1.173   4.920  19.287  0.00  0.00    +0.000 C 
ATOM      8  C   UNL     1       1.487   4.001  18.119  0.00  0.00    +0.000 C 
ATOM      9  C   UNL     1       2.851   3.334  18.138  0.00  0.00    +0.000 C 
ATOM     10  O   UNL     1       3.069   2.376  17.398  0.00  0.00    +0.000 OA
ATOM     11  N   UNL     1       3.850   3.967  18.870  0.00  0.00    +0.000 N 
ATOM     12  C   UNL     1       3.528   4.854  19.984  0.00  0.00    +0.000 C 
ATOM     13  C   UNL     1       2.036   6.647  20.932  0.00  0.00    +0.000 C 
ATOM     14  C   UNL     1       1.038   7.771  20.650  0.00  0.00    +0.000 C 
ENDROOT
BRANCH   2  15
ATOM     15  C   UNL     1       1.639  10.851  18.412  0.00  0.00    +0.000 C 
BRANCH  15  16
ATOM     16  C   UNL     1       1.257  12.279  18.665  0.00  0.00    +0.000 A 
ATOM     17  C   UNL     1       2.067  13.322  19.072  0.00  0.00    +0.000 A 
ATOM     18  C   UNL     1       1.342  14.532  19.268  0.00  0.00    +0.000 A 
ATOM     19  C   UNL     1      -0.000  14.377  19.004  0.00  0.00    +0.000 A 
ATOM     20  S   UNL     1      -0.378  12.780  18.531  0.00  0.00    +0.000 S 
ENDBRANCH  15  16
ENDBRANCH   2  15
BRANCH  11  21
ATOM     21  C   UNL     1       5.238   3.789  18.420  0.00  0.00    +0.000 C 
BRANCH  21  22
ATOM     22  C   UNL     1       5.671   4.573  17.180  0.00  0.00    +0.000 C 
BRANCH  22  23
ATOM     23  C   UNL     1       6.544   5.749  17.527  0.00  0.00    +0.000 A 
ATOM     24  C   UNL     1       7.457   5.686  18.581  0.00  0.00    +0.000 A 
ATOM     25  C   UNL     1       8.233   6.803  18.882  0.00  0.00    +0.000 A 
ATOM     26  C   UNL     1       8.078   7.941  18.110  0.00  0.00    +0.000 A 
ATOM     27  N   UNL     1       7.220   8.032  17.071  0.00  0.00    +0.000 NA
ATOM     28  C   UNL     1       6.477   6.935  16.801  0.00  0.00    +0.000 A 
ENDBRANCH  22  23
ENDBRANCH  21  22
ENDBRANCH  11  21
TORSDOF 5
ENDMDL
