MODEL 1
REMARK VINA RESULT:      -8.0      0.000      0.000
REMARK  Name = 
REMARK  5 active torsions:
REMARK  status: ('A' for Active; 'I' for Inactive)
REMARK    1  A    between atoms: C_2  and  C_3
REMARK    2  A    between atoms: C_3  and  C_4
REMARK    3  A    between atoms: N_10  and  C_11
REMARK    4  A    between atoms: C_15  and  C_16
REMARK    5  A    between atoms: C_20  and  N_21
REMARK                            x       y       z     vdW  Elec       q    Type
REMARK                         _______ _______ _______ _____ _____    ______ ____
ROOT
ATOM      1  C   UNL     1       7.244   5.110  15.770  0.00  0.00    +0.000 C 
ATOM      2  C   UNL     1       6.766   6.476  16.290  0.00  0.00    +0.000 C 
ATOM      3  C   UNL     1       5.270   6.725  16.083  0.00  0.00    +0.000 C 
ATOM      4  O   UNL     1       4.389   6.150  17.039  0.00  0.00    +0.000 OA
ATOM      5  C   UNL     1       4.764   4.894  17.579  0.00  0.00    +0.000 C 
ATOM      6  O   UNL     1       5.253   3.971  16.612  0.00  0.00    +0.000 OA
ATOM      7  C   UNL     1       6.676   3.934  16.571  0.00  0.00    +0.000 C 
ENDROOT
BRANCH   5   8
ATOM      8  C   UNL     1       3.533   4.254  18.188  0.00  0.00    +0.000 A 
ATOM      9  C   UNL     1       2.305   4.280  17.507  0.00  0.00    +0.000 A 
ATOM     10  C   UNL     1       1.152   3.749  18.089  0.00  0.00    +0.000 A 
ATOM     11  C   UNL     1       1.206   3.184  19.364  0.00  0.00    +0.000 A 
ATOM     12  C   UNL     1       2.428   3.146  20.050  0.00  0.00    +0.000 A 
ATOM     13  C   UNL     1       3.590   3.669  19.466  0.00  0.00    +0.000 A 
BRANCH  12  14
ATOM     14  N   UNL     1       2.489   2.563  21.395  0.00  0.00    +0.000 N 
ATOM     15  O   UNL     1       3.560   2.050  21.753  0.00  0.00    +0.000 OA
ATOM     16  O   UNL     1       1.467   2.613  22.098  0.00  0.00    +0.000 OA
ENDBRANCH  12  14
ENDBRANCH   5   8
BRANCH   1  19
ATOM     17  O   UNL     1       8.847   5.917  13.571  0.00  0.00    +0.000 OA
ATOM     18  C   UNL     1       7.759   5.389  13.352  0.00  0.00    +0.000 C 
ATOM     19  N   UNL     1       6.926   4.943  14.353  0.00  0.00    +0.000 N 
ATOM     20  H   UNL     1       5.971   4.696  14.114  0.00  0.00    +0.000 HD
BRANCH  18  21
ATOM     21  C   UNL     1       7.225   5.161  11.950  0.00  0.00    +0.000 C 
BRANCH  21  22
ATOM     22  C   UNL     1       6.753   3.749  11.715  0.00  0.00    +0.000 A 
ATOM     23  C   UNL     1       5.387   3.435  11.762  0.00  0.00    +0.000 A 
ATOM     24  C   UNL     1       4.953   2.128  11.529  0.00  0.00    +0.000 A 
ATOM     25  C   UNL     1       5.876   1.128  11.236  0.00  0.00    +0.000 A 
ATOM     26  C   UNL     1       7.235   1.431  11.174  0.00  0.00    +0.000 A 
ATOM     27  C   UNL     1       7.672   2.735  11.412  0.00  0.00    +0.000 A 
ENDBRANCH  21  22
ENDBRANCH  18  21
ENDBRANCH   1  19
TORSDOF 5
ENDMDL
MODEL 2
REMARK VINA RESULT:      -7.7      2.696      7.948
REMARK  Name = 
REMARK  5 active torsions:
REMARK  status: ('A' for Active; 'I' for Inactive)
REMARK    1  A    between atoms: C_2  and  C_3
REMARK    2  A    between atoms: C_3  and  C_4
REMARK    3  A    between atoms: N_10  and  C_11
REMARK    4  A    between atoms: C_15  and  C_16
REMARK    5  A    between atoms: C_20  and  N_21
REMARK                            x       y       z     vdW  Elec       q    Type
REMARK                         _______ _______ _______ _____ _____    ______ ____
ROOT
ATOM      1  C   UNL     1       5.044   6.471  17.987  0.00  0.00    +0.000 C 
ATOM      2  C   UNL     1       6.168   5.520  18.431  0.00  0.00    +0.000 C 
ATOM      3  C   UNL     1       6.129   4.155  17.740  0.00  0.00    +0.000 C 
ATOM      4  O   UNL     1       6.697   4.081  16.439  0.00  0.00    +0.000 OA
ATOM      5  C   UNL     1       6.555   5.225  15.613  0.00  0.00    +0.000 C 
ATOM      6  O   UNL     1       5.254   5.803  15.646  0.00  0.00    +0.000 OA
ATOM      7  C   UNL     1       5.181   6.919  16.528  0.00  0.00    +0.000 C 
ENDROOT
BRANCH   5   8
ATOM      8  C   UNL     1       6.793   4.804  14.177  0.00  0.00    +0.000 A 
ATOM      9  C   UNL     1       7.783   5.433  13.405  0.00  0.00    +0.000 A 
ATOM     10  C   UNL     1       7.966   5.096  12.062  0.00  0.00    +0.000 A 
ATOM     11  C   UNL     1       7.161   4.124  11.467  0.00  0.00    +0.000 A 
ATOM     12  C   UNL     1       6.174   3.485  12.231  0.00  0.00    +0.000 A 
ATOM     13  C   UNL     1       5.993   3.813  13.581  0.00  0.00    +0.000 A 
BRANCH  12  14
ATOM     14  N   UNL     1       5.317   2.470  11.607  0.00  0.00    +0.000 N 
ATOM     15  O   UNL     1       4.178   2.814  11.257  0.00  0.00    +0.000 OA
ATOM     16  O   UNL     1       5.777   1.326  11.466  0.00  0.00    +0.000 OA
ENDBRANCH  12  14
ENDBRANCH   5   8
BRANCH   1  19
ATOM     17  O   UNL     1       2.654   7.834  18.687  0.00  0.00    +0.000 OA
ATOM     18  C   UNL     1       2.627   6.612  18.560  0.00  0.00    +0.000 C 
ATOM     19  N   UNL     1       3.729   5.870  18.198  0.00  0.00    +0.000 N 
ATOM     20  H   UNL     1       3.686   4.861  18.298  0.00  0.00    +0.000 HD
BRANCH  18  21
ATOM     21  C   UNL     1       1.368   5.793  18.777  0.00  0.00    +0.000 C 
BRANCH  21  22
ATOM     22  C   UNL     1       1.590   4.578  19.642  0.00  0.00    +0.000 A 
ATOM     23  C   UNL     1       1.981   4.718  20.982  0.00  0.00    +0.000 A 
ATOM     24  C   UNL     1       2.170   3.590  21.784  0.00  0.00    +0.000 A 
ATOM     25  C   UNL     1       1.961   2.317  21.261  0.00  0.00    +0.000 A 
ATOM     26  C   UNL     1       1.560   2.168  19.934  0.00  0.00    +0.000 A 
ATOM     27  C   UNL     1       1.375   3.292  19.129  0.00  0.00    +0.000 A 
ENDBRANCH  21  22
ENDBRANCH  18  21
ENDBRANCH   1  19
TORSDOF 5
ENDMDL
MODEL 3
REMARK VINA RESULT:      -7.7      3.657      6.722
REMARK  Name = 
REMARK  5 active torsions:
REMARK  status: ('A' for Active; 'I' for Inactive)
REMARK    1  A    between atoms: C_2  and  C_3
REMARK    2  A    between atoms: C_3  and  C_4
REMARK    3  A    between atoms: N_10  and  C_11
REMARK    4  A    between atoms: C_15  and  C_16
REMARK    5  A    between atoms: C_20  and  N_21
REMARK                            x       y       z     vdW  Elec       q    Type
REMARK                         _______ _______ _______ _____ _____    ______ ____
ROOT
ATOM      1  C   UNL     1       6.756   6.880  16.573  0.00  0.00    +0.000 C 
ATOM      2  C   UNL     1       7.125   5.463  16.104  0.00  0.00    +0.000 C 
ATOM      3  C   UNL     1       7.035   4.406  17.207  0.00  0.00    +0.000 C 
ATOM      4  O   UNL     1       5.743   3.884  17.488  0.00  0.00    +0.000 OA
ATOM      5  C   UNL     1       4.651   4.780  17.365  0.00  0.00    +0.000 C 
ATOM      6  O   UNL     1       4.893   6.066  17.927  0.00  0.00    +0.000 OA
ATOM      7  C   UNL     1       5.276   7.022  16.943  0.00  0.00    +0.000 C 
ENDROOT
BRANCH   5   8
ATOM      8  C   UNL     1       3.476   4.202  18.126  0.00  0.00    +0.000 A 
ATOM      9  C   UNL     1       2.177   4.280  17.598  0.00  0.00    +0.000 A 
ATOM     10  C   UNL     1       1.080   3.806  18.322  0.00  0.00    +0.000 A 
ATOM     11  C   UNL     1       1.263   3.247  19.587  0.00  0.00    +0.000 A 
ATOM     12  C   UNL     1       2.556   3.158  20.121  0.00  0.00    +0.000 A 
ATOM     13  C   UNL     1       3.661   3.623  19.394  0.00  0.00    +0.000 A 
BRANCH  12  14
ATOM     14  N   UNL     1       2.753   2.582  21.456  0.00  0.00    +0.000 N 
ATOM     15  O   UNL     1       1.843   2.728  22.286  0.00  0.00    +0.000 OA
ATOM     16  O   UNL     1       3.817   1.983  21.681  0.00  0.00    +0.000 OA
ENDBRANCH  12  14
ENDBRANCH   5   8
BRANCH   1  19
ATOM     17  O   UNL     1       7.546   9.534  17.200  0.00  0.00    +0.000 OA
ATOM     18  C   UNL     1       7.942   8.612  17.910  0.00  0.00    +0.000 C 
ATOM     19  N   UNL     1       7.590   7.297  17.699  0.00  0.00    +0.000 N 
ATOM     20  H   UNL     1       8.099   6.575  18.198  0.00  0.00    +0.000 HD
BRANCH  18  21
ATOM     21  C   UNL     1       8.850   8.829  19.106  0.00  0.00    +0.000 C 
BRANCH  21  22
ATOM     22  C   UNL     1       9.377  10.238  19.204  0.00  0.00    +0.000 A 
ATOM     23  C   UNL     1       9.882  10.892  18.070  0.00  0.00    +0.000 A 
ATOM     24  C   UNL     1      10.354  12.203  18.163  0.00  0.00    +0.000 A 
ATOM     25  C   UNL     1      10.316  12.876  19.381  0.00  0.00    +0.000 A 
ATOM     26  C   UNL     1       9.804  12.239  20.511  0.00  0.00    +0.000 A 
ATOM     27  C   UNL     1       9.336  10.928  20.423  0.00  0.00    +0.000 A 
ENDBRANCH  21  22
ENDBRANCH  18  21
ENDBRANCH   1  19
TORSDOF 5
ENDMDL
MODEL 4
REMARK VINA RESULT:      -7.7      3.714      6.721
REMARK  Name = 
REMARK  5 active torsions:
REMARK  status: ('A' for Active; 'I' for Inactive)
REMARK    1  A    between atoms: C_2  and  C_3
REMARK    2  A    between atoms: C_3  and  C_4
REMARK    3  A    between atoms: N_10  and  C_11
REMARK    4  A    between atoms: C_15  and  C_16
REMARK    5  A    between atoms: C_20  and  N_21
REMARK                            x       y       z     vdW  Elec       q    Type
REMARK                         _______ _______ _______ _____ _____    ______ ____
ROOT
ATOM      1  C   UNL     1       6.792   6.950  16.593  0.00  0.00    +0.000 C 
ATOM      2  C   UNL     1       7.182   5.541  16.117  0.00  0.00    +0.000 C 
ATOM      3  C   UNL     1       7.102   4.477  17.214  0.00  0.00    +0.000 C 
ATOM      4  O   UNL     1       5.817   3.935  17.486  0.00  0.00    +0.000 OA
ATOM      5  C   UNL     1       4.713   4.816  17.362  0.00  0.00    +0.000 C 
ATOM      6  O   UNL     1       4.933   6.102  17.933  0.00  0.00    +0.000 OA
ATOM      7  C   UNL     1       5.309   7.069  16.956  0.00  0.00    +0.000 C 
ENDROOT
BRANCH   5   8
ATOM      8  C   UNL     1       3.542   4.217  18.114  0.00  0.00    +0.000 A 
ATOM      9  C   UNL     1       2.252   4.240  17.560  0.00  0.00    +0.000 A 
ATOM     10  C   UNL     1       1.157   3.747  18.273  0.00  0.00    +0.000 A 
ATOM     11  C   UNL     1       1.332   3.224  19.555  0.00  0.00    +0.000 A 
ATOM     12  C   UNL     1       2.618   3.190  20.115  0.00  0.00    +0.000 A 
ATOM     13  C   UNL     1       3.721   3.674  19.399  0.00  0.00    +0.000 A 
BRANCH  12  14
ATOM     14  N   UNL     1       2.806   2.651  21.467  0.00  0.00    +0.000 N 
ATOM     15  O   UNL     1       3.823   1.973  21.680  0.00  0.00    +0.000 OA
ATOM     16  O   UNL     1       1.941   2.902  22.319  0.00  0.00    +0.000 OA
ENDBRANCH  12  14
ENDBRANCH   5   8
BRANCH   1  19
ATOM     17  O   UNL     1       7.622   9.600  17.185  0.00  0.00    +0.000 OA
ATOM     18  C   UNL     1       7.987   8.684  17.918  0.00  0.00    +0.000 C 
ATOM     19  N   UNL     1       7.614   7.373  17.725  0.00  0.00    +0.000 N 
ATOM     20  H   UNL     1       8.101   6.650  18.246  0.00  0.00    +0.000 HD
BRANCH  18  21
ATOM     21  C   UNL     1       8.880   8.906  19.126  0.00  0.00    +0.000 C 
BRANCH  21  22
ATOM     22  C   UNL     1       9.380  10.323  19.242  0.00  0.00    +0.000 A 
ATOM     23  C   UNL     1       9.303  11.010  20.462  0.00  0.00    +0.000 A 
ATOM     24  C   UNL     1       9.782  12.317  20.569  0.00  0.00    +0.000 A 
ATOM     25  C   UNL     1      10.353  12.945  19.465  0.00  0.00    +0.000 A 
ATOM     26  C   UNL     1      10.447  12.267  18.251  0.00  0.00    +0.000 A 
ATOM     27  C   UNL     1       9.964  10.962  18.140  0.00  0.00    +0.000 A 
ENDBRANCH  21  22
ENDBRANCH  18  21
ENDBRANCH   1  19
TORSDOF 5
ENDMDL
MODEL 5
REMARK VINA RESULT:      -7.5      0.517      1.131
REMARK  Name = 
REMARK  5 active torsions:
REMARK  status: ('A' for Active; 'I' for Inactive)
REMARK    1  A    between atoms: C_2  and  C_3
REMARK    2  A    between atoms: C_3  and  C_4
REMARK    3  A    between atoms: N_10  and  C_11
REMARK    4  A    between atoms: C_15  and  C_16
REMARK    5  A    between atoms: C_20  and  N_21
REMARK                            x       y       z     vdW  Elec       q    Type
REMARK                         _______ _______ _______ _____ _____    ______ ____
ROOT
ATOM      1  C   UNL     1       7.056   5.108  15.908  0.00  0.00    +0.000 C 
ATOM      2  C   UNL     1       6.595   6.461  16.474  0.00  0.00    +0.000 C 
ATOM      3  C   UNL     1       5.101   6.731  16.284  0.00  0.00    +0.000 C 
ATOM      4  O   UNL     1       4.219   6.135  17.225  0.00  0.00    +0.000 OA
ATOM      5  C   UNL     1       4.584   4.859  17.723  0.00  0.00    +0.000 C 
ATOM      6  O   UNL     1       5.058   3.962  16.723  0.00  0.00    +0.000 OA
ATOM      7  C   UNL     1       6.480   3.912  16.674  0.00  0.00    +0.000 C 
ENDROOT
BRANCH   5   8
ATOM      8  C   UNL     1       3.349   4.212  18.318  0.00  0.00    +0.000 A 
ATOM      9  C   UNL     1       2.230   3.939  17.515  0.00  0.00    +0.000 A 
ATOM     10  C   UNL     1       1.065   3.402  18.068  0.00  0.00    +0.000 A 
ATOM     11  C   UNL     1       0.999   3.130  19.435  0.00  0.00    +0.000 A 
ATOM     12  C   UNL     1       2.113   3.393  20.245  0.00  0.00    +0.000 A 
ATOM     13  C   UNL     1       3.287   3.922  19.693  0.00  0.00    +0.000 A 
BRANCH  12  14
ATOM     14  N   UNL     1       2.045   3.119  21.685  0.00  0.00    +0.000 N 
ATOM     15  O   UNL     1       1.384   2.136  22.054  0.00  0.00    +0.000 OA
ATOM     16  O   UNL     1       2.648   3.885  22.452  0.00  0.00    +0.000 OA
ENDBRANCH  12  14
ENDBRANCH   5   8
BRANCH   1  19
ATOM     17  O   UNL     1       8.762   5.719  13.722  0.00  0.00    +0.000 OA
ATOM     18  C   UNL     1       7.617   5.333  13.494  0.00  0.00    +0.000 C 
ATOM     19  N   UNL     1       6.729   4.989  14.488  0.00  0.00    +0.000 N 
ATOM     20  H   UNL     1       5.752   4.865  14.242  0.00  0.00    +0.000 HD
BRANCH  18  21
ATOM     21  C   UNL     1       7.068   5.181  12.088  0.00  0.00    +0.000 C 
BRANCH  21  22
ATOM     22  C   UNL     1       6.658   3.768  11.759  0.00  0.00    +0.000 A 
ATOM     23  C   UNL     1       7.624   2.788  11.490  0.00  0.00    +0.000 A 
ATOM     24  C   UNL     1       7.240   1.477  11.201  0.00  0.00    +0.000 A 
ATOM     25  C   UNL     1       5.891   1.131  11.189  0.00  0.00    +0.000 A 
ATOM     26  C   UNL     1       4.924   2.094  11.468  0.00  0.00    +0.000 A 
ATOM     27  C   UNL     1       5.304   3.406  11.752  0.00  0.00    +0.000 A 
ENDBRANCH  21  22
ENDBRANCH  18  21
ENDBRANCH   1  19
TORSDOF 5
ENDMDL
MODEL 6
REMARK VINA RESULT:      -7.5      4.285      8.866
REMARK  Name = 
REMARK  5 active torsions:
REMARK  status: ('A' for Active; 'I' for Inactive)
REMARK    1  A    between atoms: C_2  and  C_3
REMARK    2  A    between atoms: C_3  and  C_4
REMARK    3  A    between atoms: N_10  and  C_11
REMARK    4  A    between atoms: C_15  and  C_16
REMARK    5  A    between atoms: C_20  and  N_21
REMARK                            x       y       z     vdW  Elec       q    Type
REMARK                         _______ _______ _______ _____ _____    ______ ____
ROOT
ATOM      1  C   UNL     1       4.666   6.758  18.096  0.00  0.00    +0.000 C 
ATOM      2  C   UNL     1       4.287   5.283  18.303  0.00  0.00    +0.000 C 
ATOM      3  C   UNL     1       3.641   4.635  17.077  0.00  0.00    +0.000 C 
ATOM      4  O   UNL     1       4.519   4.177  16.058  0.00  0.00    +0.000 OA
ATOM      5  C   UNL     1       5.696   4.938  15.839  0.00  0.00    +0.000 C 
ATOM      6  O   UNL     1       5.480   6.345  15.830  0.00  0.00    +0.000 OA
ATOM      7  C   UNL     1       5.797   6.948  17.081  0.00  0.00    +0.000 C 
ENDROOT
BRANCH   5   8
ATOM      8  C   UNL     1       6.239   4.586  14.469  0.00  0.00    +0.000 A 
ATOM      9  C   UNL     1       7.387   5.223  13.973  0.00  0.00    +0.000 A 
ATOM     10  C   UNL     1       7.858   4.951  12.686  0.00  0.00    +0.000 A 
ATOM     11  C   UNL     1       7.187   4.037  11.872  0.00  0.00    +0.000 A 
ATOM     12  C   UNL     1       6.043   3.390  12.361  0.00  0.00    +0.000 A 
ATOM     13  C   UNL     1       5.573   3.653  13.655  0.00  0.00    +0.000 A 
BRANCH  12  14
ATOM     14  N   UNL     1       5.327   2.436  11.506  0.00  0.00    +0.000 N 
ATOM     15  O   UNL     1       5.897   1.369  11.231  0.00  0.00    +0.000 OA
ATOM     16  O   UNL     1       4.196   2.750  11.105  0.00  0.00    +0.000 OA
ENDBRANCH  12  14
ENDBRANCH   5   8
BRANCH   1  19
ATOM     17  O   UNL     1       2.423   7.404  19.713  0.00  0.00    +0.000 OA
ATOM     18  C   UNL     1       2.449   7.793  18.548  0.00  0.00    +0.000 C 
ATOM     19  N   UNL     1       3.505   7.551  17.698  0.00  0.00    +0.000 N 
ATOM     20  H   UNL     1       3.379   7.732  16.707  0.00  0.00    +0.000 HD
BRANCH  18  21
ATOM     21  C   UNL     1       1.321   8.597  17.927  0.00  0.00    +0.000 C 
BRANCH  21  22
ATOM     22  C   UNL     1       1.073   9.911  18.624  0.00  0.00    +0.000 A 
ATOM     23  C   UNL     1       1.837  11.043  18.307  0.00  0.00    +0.000 A 
ATOM     24  C   UNL     1       1.594  12.262  18.944  0.00  0.00    +0.000 A 
ATOM     25  C   UNL     1       0.580  12.364  19.894  0.00  0.00    +0.000 A 
ATOM     26  C   UNL     1      -0.194  11.247  20.207  0.00  0.00    +0.000 A 
ATOM     27  C   UNL     1       0.051  10.027  19.576  0.00  0.00    +0.000 A 
ENDBRANCH  21  22
ENDBRANCH  18  21
ENDBRANCH   1  19
TORSDOF 5
ENDMDL
MODEL 7
REMARK VINA RESULT:      -7.5      2.696      7.584
REMARK  Name = 
REMARK  5 active torsions:
REMARK  status: ('A' for Active; 'I' for Inactive)
REMARK    1  A    between atoms: C_2  and  C_3
REMARK    2  A    between atoms: C_3  and  C_4
REMARK    3  A    between atoms: N_10  and  C_11
REMARK    4  A    between atoms: C_15  and  C_16
REMARK    5  A    between atoms: C_20  and  N_21
REMARK                            x       y       z     vdW  Elec       q    Type
REMARK                         _______ _______ _______ _____ _____    ______ ____
ROOT
ATOM      1  C   UNL     1       5.194   6.507  18.068  0.00  0.00    +0.000 C 
ATOM      2  C   UNL     1       6.249   5.469  18.488  0.00  0.00    +0.000 C 
ATOM      3  C   UNL     1       6.116   4.128  17.763  0.00  0.00    +0.000 C 
ATOM      4  O   UNL     1       6.679   4.047  16.460  0.00  0.00    +0.000 OA
ATOM      5  C   UNL     1       6.619   5.218  15.664  0.00  0.00    +0.000 C 
ATOM      6  O   UNL     1       5.361   5.885  15.711  0.00  0.00    +0.000 OA
ATOM      7  C   UNL     1       5.365   6.981  16.621  0.00  0.00    +0.000 C 
ENDROOT
BRANCH   5   8
ATOM      8  C   UNL     1       6.830   4.819  14.218  0.00  0.00    +0.000 A 
ATOM      9  C   UNL     1       7.830   5.434  13.447  0.00  0.00    +0.000 A 
ATOM     10  C   UNL     1       7.989   5.117  12.096  0.00  0.00    +0.000 A 
ATOM     11  C   UNL     1       7.150   4.181  11.491  0.00  0.00    +0.000 A 
ATOM     12  C   UNL     1       6.152   3.556  12.253  0.00  0.00    +0.000 A 
ATOM     13  C   UNL     1       5.995   3.863  13.612  0.00  0.00    +0.000 A 
BRANCH  12  14
ATOM     14  N   UNL     1       5.259   2.579  11.620  0.00  0.00    +0.000 N 
ATOM     15  O   UNL     1       4.101   2.941  11.360  0.00  0.00    +0.000 OA
ATOM     16  O   UNL     1       5.709   1.448  11.381  0.00  0.00    +0.000 OA
ENDBRANCH  12  14
ENDBRANCH   5   8
BRANCH   1  19
ATOM     17  O   UNL     1       2.817   8.043  18.277  0.00  0.00    +0.000 OA
ATOM     18  C   UNL     1       2.746   6.821  18.378  0.00  0.00    +0.000 C 
ATOM     19  N   UNL     1       3.840   5.993  18.265  0.00  0.00    +0.000 N 
ATOM     20  H   UNL     1       3.743   5.023  18.546  0.00  0.00    +0.000 HD
BRANCH  18  21
ATOM     21  C   UNL     1       1.437   6.093  18.625  0.00  0.00    +0.000 C 
BRANCH  21  22
ATOM     22  C   UNL     1       1.616   4.618  18.883  0.00  0.00    +0.000 A 
ATOM     23  C   UNL     1       1.921   3.741  17.832  0.00  0.00    +0.000 A 
ATOM     24  C   UNL     1       2.102   2.379  18.079  0.00  0.00    +0.000 A 
ATOM     25  C   UNL     1       1.991   1.882  19.375  0.00  0.00    +0.000 A 
ATOM     26  C   UNL     1       1.702   2.748  20.428  0.00  0.00    +0.000 A 
ATOM     27  C   UNL     1       1.515   4.109  20.185  0.00  0.00    +0.000 A 
ENDBRANCH  21  22
ENDBRANCH  18  21
ENDBRANCH   1  19
TORSDOF 5
ENDMDL
MODEL 8
REMARK VINA RESULT:      -7.4      2.558      7.338
REMARK  Name = 
REMARK  5 active torsions:
REMARK  status: ('A' for Active; 'I' for Inactive)
REMARK    1  A    between atoms: C_2  and  C_3
REMARK    2  A    between atoms: C_3  and  C_4
REMARK    3  A    between atoms: N_10  and  C_11
REMARK    4  A    between atoms: C_15  and  C_16
REMARK    5  A    between atoms: C_20  and  N_21
REMARK                            x       y       z     vdW  Elec       q    Type
REMARK                         _______ _______ _______ _____ _____    ______ ____
ROOT
ATOM      1  C   UNL     1       5.282   6.700  17.863  0.00  0.00    +0.000 C 
ATOM      2  C   UNL     1       6.668   6.140  18.225  0.00  0.00    +0.000 C 
ATOM      3  C   UNL     1       6.913   4.721  17.707  0.00  0.00    +0.000 C 
ATOM      4  O   UNL     1       7.313   4.596  16.349  0.00  0.00    +0.000 OA
ATOM      5  C   UNL     1       6.765   5.529  15.433  0.00  0.00    +0.000 C 
ATOM      6  O   UNL     1       5.371   5.761  15.609  0.00  0.00    +0.000 OA
ATOM      7  C   UNL     1       5.110   6.943  16.360  0.00  0.00    +0.000 C 
ENDROOT
BRANCH   5   8
ATOM      8  C   UNL     1       6.927   4.971  14.034  0.00  0.00    +0.000 A 
ATOM      9  C   UNL     1       7.938   5.452  13.187  0.00  0.00    +0.000 A 
ATOM     10  C   UNL     1       8.054   4.988  11.875  0.00  0.00    +0.000 A 
ATOM     11  C   UNL     1       7.159   4.035  11.386  0.00  0.00    +0.000 A 
ATOM     12  C   UNL     1       6.150   3.543  12.226  0.00  0.00    +0.000 A 
ATOM     13  C   UNL     1       6.036   3.998  13.546  0.00  0.00    +0.000 A 
BRANCH  12  14
ATOM     14  N   UNL     1       5.199   2.550  11.713  0.00  0.00    +0.000 N 
ATOM     15  O   UNL     1       5.625   1.407  11.489  0.00  0.00    +0.000 OA
ATOM     16  O   UNL     1       4.025   2.908  11.531  0.00  0.00    +0.000 OA
ENDBRANCH  12  14
ENDBRANCH   5   8
BRANCH   1  19
ATOM     17  O   UNL     1       2.788   7.518  18.943  0.00  0.00    +0.000 OA
ATOM     18  C   UNL     1       3.044   6.318  18.880  0.00  0.00    +0.000 C 
ATOM     19  N   UNL     1       4.215   5.827  18.348  0.00  0.00    +0.000 N 
ATOM     20  H   UNL     1       4.443   4.850  18.500  0.00  0.00    +0.000 HD
BRANCH  18  21
ATOM     21  C   UNL     1       2.086   5.248  19.370  0.00  0.00    +0.000 C 
BRANCH  21  22
ATOM     22  C   UNL     1       2.569   3.847  19.096  0.00  0.00    +0.000 A 
ATOM     23  C   UNL     1       2.098   3.133  17.985  0.00  0.00    +0.000 A 
ATOM     24  C   UNL     1       2.561   1.841  17.727  0.00  0.00    +0.000 A 
ATOM     25  C   UNL     1       3.504   1.255  18.567  0.00  0.00    +0.000 A 
ATOM     26  C   UNL     1       3.988   1.961  19.667  0.00  0.00    +0.000 A 
ATOM     27  C   UNL     1       3.524   3.250  19.931  0.00  0.00    +0.000 A 
ENDBRANCH  21  22
ENDBRANCH  18  21
ENDBRANCH   1  19
TORSDOF 5
ENDMDL
MODEL 9
REMARK VINA RESULT:      -7.3      6.809     10.069
REMARK  Name = 
REMARK  5 active torsions:
REMARK  status: ('A' for Active; 'I' for Inactive)
REMARK    1  A    between atoms: C_2  and  C_3
REMARK    2  A    between atoms: C_3  and  C_4
REMARK    3  A    between atoms: N_10  and  C_11
REMARK    4  A    between atoms: C_15  and  C_16
REMARK    5  A    between atoms: C_20  and  N_21
REMARK                            x       y       z     vdW  Elec       q    Type
REMARK                         _______ _______ _______ _____ _____    ______ ____
ROOT
ATOM      1  C   UNL     1       0.751  10.677  18.661  0.00  0.00    +0.000 C 
ATOM      2  C   UNL     1       0.653  10.554  20.190  0.00  0.00    +0.000 C 
ATOM      3  C   UNL     1       0.080   9.218  20.666  0.00  0.00    +0.000 C 
ATOM      4  O   UNL     1       0.981   8.120  20.721  0.00  0.00    +0.000 OA
ATOM      5  C   UNL     1       1.991   8.070  19.727  0.00  0.00    +0.000 C 
ATOM      6  O   UNL     1       1.525   8.372  18.416  0.00  0.00    +0.000 OA
ATOM      7  C   UNL     1       1.784   9.724  18.049  0.00  0.00    +0.000 C 
ENDROOT
BRANCH   5   8
ATOM      8  C   UNL     1       2.528   6.654  19.668  0.00  0.00    +0.000 A 
ATOM      9  C   UNL     1       3.528   6.310  18.745  0.00  0.00    +0.000 A 
ATOM     10  C   UNL     1       3.983   4.993  18.640  0.00  0.00    +0.000 A 
ATOM     11  C   UNL     1       3.445   3.998  19.456  0.00  0.00    +0.000 A 
ATOM     12  C   UNL     1       2.450   4.333  20.386  0.00  0.00    +0.000 A 
ATOM     13  C   UNL     1       1.997   5.654  20.501  0.00  0.00    +0.000 A 
BRANCH  12  14
ATOM     14  N   UNL     1       1.872   3.288  21.239  0.00  0.00    +0.000 N 
ATOM     15  O   UNL     1       0.870   2.689  20.817  0.00  0.00    +0.000 OA
ATOM     16  O   UNL     1       2.414   3.062  22.331  0.00  0.00    +0.000 OA
ENDBRANCH  12  14
ENDBRANCH   5   8
BRANCH   1  19
ATOM     17  O   UNL     1      -1.104  12.687  17.901  0.00  0.00    +0.000 OA
ATOM     18  C   UNL     1      -1.396  11.508  17.717  0.00  0.00    +0.000 C 
ATOM     19  N   UNL     1      -0.550  10.467  18.029  0.00  0.00    +0.000 N 
ATOM     20  H   UNL     1      -0.924   9.524  18.030  0.00  0.00    +0.000 HD
BRANCH  18  21
ATOM     21  C   UNL     1      -2.718  11.075  17.111  0.00  0.00    +0.000 C 
BRANCH  21  22
ATOM     22  C   UNL     1      -3.916  11.633  17.837  0.00  0.00    +0.000 A 
ATOM     23  C   UNL     1      -3.839  11.952  19.201  0.00  0.00    +0.000 A 
ATOM     24  C   UNL     1      -4.946  12.484  19.865  0.00  0.00    +0.000 A 
ATOM     25  C   UNL     1      -6.133  12.712  19.175  0.00  0.00    +0.000 A 
ATOM     26  C   UNL     1      -6.216  12.411  17.816  0.00  0.00    +0.000 A 
ATOM     27  C   UNL     1      -5.113  11.874  17.150  0.00  0.00    +0.000 A 
ENDBRANCH  21  22
ENDBRANCH  18  21
ENDBRANCH   1  19
TORSDOF 5
ENDMDL
