MODEL 1
REMARK VINA RESULT:      -9.2      0.000      0.000
REMARK  Name = 
REMARK  5 active torsions:
REMARK  status: ('A' for Active; 'I' for Inactive)
REMARK    1  A    between atoms: C_1  and  C_2
REMARK    2  A    between atoms: N_4  and  C_5
REMARK    3  A    between atoms: C_15  and  C_16
REMARK    4  A    between atoms: N_18  and  C_19
REMARK    5  A    between atoms: C_19  and  C_20
REMARK                            x       y       z     vdW  Elec       q    Type
REMARK                         _______ _______ _______ _____ _____    ______ ____
ROOT
ATOM      1  C   UNL     1       2.024   6.483  19.907  0.00  0.00    +0.000 A 
ATOM      2  C   UNL     1       2.925   6.906  18.960  0.00  0.00    +0.000 A 
ATOM      3  N   UNL     1       3.234   5.822  18.167  0.00  0.00    +0.000 N 
ATOM      4  C   UNL     1       2.479   4.724  18.545  0.00  0.00    +0.000 A 
ATOM      5  C   UNL     1       2.441   3.409  18.052  0.00  0.00    +0.000 A 
ATOM      6  C   UNL     1       1.576   2.495  18.658  0.00  0.00    +0.000 A 
ATOM      7  C   UNL     1       0.785   2.872  19.737  0.00  0.00    +0.000 A 
ATOM      8  C   UNL     1       0.840   4.176  20.237  0.00  0.00    +0.000 A 
ATOM      9  C   UNL     1       1.691   5.125  19.630  0.00  0.00    +0.000 A 
ENDROOT
BRANCH   1  17
ATOM     10  C   UNL     1       0.870   9.078  23.496  0.00  0.00    +0.000 C 
ATOM     11  C   UNL     1       0.943   9.465  22.056  0.00  0.00    +0.000 C 
ATOM     12  N   UNL     1       0.754  10.684  21.623  0.00  0.00    +0.000 NA
ATOM     13  N   UNL     1       0.891  10.629  20.235  0.00  0.00    +0.000 N 
ATOM     14  C   UNL     1       1.118   9.341  19.730  0.00  0.00    +0.000 C 
ATOM     15  O   UNL     1       1.170   8.938  18.582  0.00  0.00    +0.000 OA
ATOM     16  C   UNL     1       1.243   8.527  20.963  0.00  0.00    +0.000 C 
ATOM     17  C   UNL     1       1.621   7.243  21.044  0.00  0.00    +0.000 C 
BRANCH  13  18
ATOM     18  C   UNL     1       0.799  11.824  19.478  0.00  0.00    +0.000 A 
ATOM     19  C   UNL     1      -0.441  12.304  19.025  0.00  0.00    +0.000 A 
ATOM     20  C   UNL     1      -0.536  13.477  18.273  0.00  0.00    +0.000 A 
ATOM     21  C   UNL     1       0.616  14.189  17.957  0.00  0.00    +0.000 A 
ATOM     22  C   UNL     1       1.852  13.721  18.392  0.00  0.00    +0.000 A 
ATOM     23 CL   UNL     1       3.276  14.605  17.997  0.00  0.00    +0.000 Cl
ATOM     24  C   UNL     1       1.952  12.548  19.144  0.00  0.00    +0.000 A 
ENDBRANCH  13  18
ENDBRANCH   1  17
BRANCH   3  25
ATOM     25  C   UNL     1       4.279   5.827  17.147  0.00  0.00    +0.000 C 
BRANCH  25  26
ATOM     26  C   UNL     1       5.611   6.193  17.749  0.00  0.00    +0.000 A 
ATOM     27  C   UNL     1       6.365   7.246  17.213  0.00  0.00    +0.000 A 
ATOM     28  C   UNL     1       7.651   7.505  17.687  0.00  0.00    +0.000 A 
ATOM     29  C   UNL     1       8.195   6.720  18.702  0.00  0.00    +0.000 A 
ATOM     30  C   UNL     1       7.442   5.694  19.266  0.00  0.00    +0.000 A 
ATOM     31  C   UNL     1       6.154   5.437  18.798  0.00  0.00    +0.000 A 
ENDBRANCH  25  26
ENDBRANCH   3  25
TORSDOF 4
ENDMDL
MODEL 2
REMARK VINA RESULT:      -8.8      0.936      1.195
REMARK  Name = 
REMARK  5 active torsions:
REMARK  status: ('A' for Active; 'I' for Inactive)
REMARK    1  A    between atoms: C_1  and  C_2
REMARK    2  A    between atoms: N_4  and  C_5
REMARK    3  A    between atoms: C_15  and  C_16
REMARK    4  A    between atoms: N_18  and  C_19
REMARK    5  A    between atoms: C_19  and  C_20
REMARK                            x       y       z     vdW  Elec       q    Type
REMARK                         _______ _______ _______ _____ _____    ______ ____
ROOT
ATOM      1  C   UNL     1       1.800   6.620  19.951  0.00  0.00    +0.000 A 
ATOM      2  C   UNL     1       2.651   7.102  18.986  0.00  0.00    +0.000 A 
ATOM      3  N   UNL     1       3.064   6.031  18.224  0.00  0.00    +0.000 N 
ATOM      4  C   UNL     1       2.425   4.875  18.640  0.00  0.00    +0.000 A 
ATOM      5  C   UNL     1       2.517   3.549  18.186  0.00  0.00    +0.000 A 
ATOM      6  C   UNL     1       1.750   2.572  18.825  0.00  0.00    +0.000 A 
ATOM      7  C   UNL     1       0.927   2.900  19.896  0.00  0.00    +0.000 A 
ATOM      8  C   UNL     1       0.853   4.218  20.356  0.00  0.00    +0.000 A 
ATOM      9  C   UNL     1       1.604   5.228  19.717  0.00  0.00    +0.000 A 
ENDROOT
BRANCH   1  17
ATOM     10  C   UNL     1       0.437   9.173  23.496  0.00  0.00    +0.000 C 
ATOM     11  C   UNL     1       0.724   9.606  22.096  0.00  0.00    +0.000 C 
ATOM     12  N   UNL     1       0.698  10.853  21.704  0.00  0.00    +0.000 NA
ATOM     13  N   UNL     1       1.002  10.839  20.342  0.00  0.00    +0.000 N 
ATOM     14  C   UNL     1       1.176   9.555  19.805  0.00  0.00    +0.000 C 
ATOM     15  O   UNL     1       1.336   9.193  18.654  0.00  0.00    +0.000 OA
ATOM     16  C   UNL     1       1.074   8.687  21.004  0.00  0.00    +0.000 C 
ATOM     17  C   UNL     1       1.326   7.371  21.067  0.00  0.00    +0.000 C 
BRANCH  13  18
ATOM     18  C   UNL     1       1.110  12.064  19.639  0.00  0.00    +0.000 A 
ATOM     19  C   UNL     1       2.139  12.279  18.706  0.00  0.00    +0.000 A 
ATOM     20  C   UNL     1       2.254  13.488  18.016  0.00  0.00    +0.000 A 
ATOM     21  C   UNL     1       1.339  14.508  18.253  0.00  0.00    +0.000 A 
ATOM     22  C   UNL     1       0.320  14.312  19.180  0.00  0.00    +0.000 A 
ATOM     23 CL   UNL     1      -0.810  15.578  19.471  0.00  0.00    +0.000 Cl
ATOM     24  C   UNL     1       0.201  13.105  19.873  0.00  0.00    +0.000 A 
ENDBRANCH  13  18
ENDBRANCH   1  17
BRANCH   3  25
ATOM     25  C   UNL     1       4.101   6.109  17.199  0.00  0.00    +0.000 C 
BRANCH  25  26
ATOM     26  C   UNL     1       5.461   6.275  17.826  0.00  0.00    +0.000 A 
ATOM     27  C   UNL     1       6.373   7.203  17.305  0.00  0.00    +0.000 A 
ATOM     28  C   UNL     1       7.674   7.270  17.803  0.00  0.00    +0.000 A 
ATOM     29  C   UNL     1       8.077   6.415  18.827  0.00  0.00    +0.000 A 
ATOM     30  C   UNL     1       7.169   5.514  19.376  0.00  0.00    +0.000 A 
ATOM     31  C   UNL     1       5.867   5.449  18.884  0.00  0.00    +0.000 A 
ENDBRANCH  25  26
ENDBRANCH   3  25
TORSDOF 4
ENDMDL
MODEL 3
REMARK VINA RESULT:      -8.5      0.898      1.157
REMARK  Name = 
REMARK  5 active torsions:
REMARK  status: ('A' for Active; 'I' for Inactive)
REMARK    1  A    between atoms: C_1  and  C_2
REMARK    2  A    between atoms: N_4  and  C_5
REMARK    3  A    between atoms: C_15  and  C_16
REMARK    4  A    between atoms: N_18  and  C_19
REMARK    5  A    between atoms: C_19  and  C_20
REMARK                            x       y       z     vdW  Elec       q    Type
REMARK                         _______ _______ _______ _____ _____    ______ ____
ROOT
ATOM      1  C   UNL     1       1.837   6.942  19.888  0.00  0.00    +0.000 A 
ATOM      2  C   UNL     1       2.636   7.527  18.934  0.00  0.00    +0.000 A 
ATOM      3  N   UNL     1       3.062   6.531  18.082  0.00  0.00    +0.000 N 
ATOM      4  C   UNL     1       2.481   5.323  18.432  0.00  0.00    +0.000 A 
ATOM      5  C   UNL     1       2.607   4.038  17.879  0.00  0.00    +0.000 A 
ATOM      6  C   UNL     1       1.900   2.988  18.468  0.00  0.00    +0.000 A 
ATOM      7  C   UNL     1       1.103   3.204  19.586  0.00  0.00    +0.000 A 
ATOM      8  C   UNL     1       0.996   4.481  20.145  0.00  0.00    +0.000 A 
ATOM      9  C   UNL     1       1.685   5.564  19.558  0.00  0.00    +0.000 A 
ENDROOT
BRANCH   1  17
ATOM     10  C   UNL     1       0.492   9.184  23.644  0.00  0.00    +0.000 C 
ATOM     11  C   UNL     1       0.624   9.703  22.251  0.00  0.00    +0.000 C 
ATOM     12  N   UNL     1       0.440  10.956  21.925  0.00  0.00    +0.000 NA
ATOM     13  N   UNL     1       0.639  11.031  20.545  0.00  0.00    +0.000 N 
ATOM     14  C   UNL     1       0.904   9.797  19.934  0.00  0.00    +0.000 C 
ATOM     15  O   UNL     1       1.011   9.503  18.758  0.00  0.00    +0.000 OA
ATOM     16  C   UNL     1       0.984   8.874  21.092  0.00  0.00    +0.000 C 
ATOM     17  C   UNL     1       1.374   7.590  21.071  0.00  0.00    +0.000 C 
BRANCH  13  18
ATOM     18  C   UNL     1       0.566  12.290  19.898  0.00  0.00    +0.000 A 
ATOM     19  C   UNL     1      -0.643  13.002  19.828  0.00  0.00    +0.000 A 
ATOM     20  C   UNL     1      -0.721  14.240  19.185  0.00  0.00    +0.000 A 
ATOM     21  C   UNL     1       0.415  14.785  18.597  0.00  0.00    +0.000 A 
ATOM     22  C   UNL     1       1.617  14.087  18.652  0.00  0.00    +0.000 A 
ATOM     23 CL   UNL     1       3.021  14.764  17.920  0.00  0.00    +0.000 Cl
ATOM     24  C   UNL     1       1.700  12.848  19.292  0.00  0.00    +0.000 A 
ENDBRANCH  13  18
ENDBRANCH   1  17
BRANCH   3  25
ATOM     25  C   UNL     1       4.058   6.725  17.033  0.00  0.00    +0.000 C 
BRANCH  25  26
ATOM     26  C   UNL     1       5.295   5.911  17.314  0.00  0.00    +0.000 A 
ATOM     27  C   UNL     1       5.928   5.991  18.563  0.00  0.00    +0.000 A 
ATOM     28  C   UNL     1       7.139   5.338  18.783  0.00  0.00    +0.000 A 
ATOM     29  C   UNL     1       7.731   4.596  17.761  0.00  0.00    +0.000 A 
ATOM     30  C   UNL     1       7.094   4.480  16.529  0.00  0.00    +0.000 A 
ATOM     31  C   UNL     1       5.879   5.128  16.309  0.00  0.00    +0.000 A 
ENDBRANCH  25  26
ENDBRANCH   3  25
TORSDOF 4
ENDMDL
MODEL 4
REMARK VINA RESULT:      -8.5      2.866      8.027
REMARK  Name = 
REMARK  5 active torsions:
REMARK  status: ('A' for Active; 'I' for Inactive)
REMARK    1  A    between atoms: C_1  and  C_2
REMARK    2  A    between atoms: N_4  and  C_5
REMARK    3  A    between atoms: C_15  and  C_16
REMARK    4  A    between atoms: N_18  and  C_19
REMARK    5  A    between atoms: C_19  and  C_20
REMARK                            x       y       z     vdW  Elec       q    Type
REMARK                         _______ _______ _______ _____ _____    ______ ____
ROOT
ATOM      1  C   UNL     1       1.016   7.718  20.568  0.00  0.00    +0.000 A 
ATOM      2  C   UNL     1       1.168   8.291  19.328  0.00  0.00    +0.000 A 
ATOM      3  N   UNL     1       0.690   9.581  19.405  0.00  0.00    +0.000 N 
ATOM      4  C   UNL     1       0.305   9.870  20.704  0.00  0.00    +0.000 A 
ATOM      5  C   UNL     1      -0.243  11.032  21.273  0.00  0.00    +0.000 A 
ATOM      6  C   UNL     1      -0.555  11.023  22.634  0.00  0.00    +0.000 A 
ATOM      7  C   UNL     1      -0.347   9.886  23.406  0.00  0.00    +0.000 A 
ATOM      8  C   UNL     1       0.181   8.725  22.831  0.00  0.00    +0.000 A 
ATOM      9  C   UNL     1       0.523   8.713  21.461  0.00  0.00    +0.000 A 
ENDROOT
BRANCH   1  17
ATOM     10  C   UNL     1       1.586   3.231  21.262  0.00  0.00    +0.000 C 
ATOM     11  C   UNL     1       2.401   4.150  20.414  0.00  0.00    +0.000 C 
ATOM     12  N   UNL     1       3.389   3.750  19.655  0.00  0.00    +0.000 NA
ATOM     13  N   UNL     1       3.898   4.897  19.044  0.00  0.00    +0.000 N 
ATOM     14  C   UNL     1       3.276   6.088  19.447  0.00  0.00    +0.000 C 
ATOM     15  O   UNL     1       3.548   7.247  19.196  0.00  0.00    +0.000 OA
ATOM     16  C   UNL     1       2.185   5.601  20.327  0.00  0.00    +0.000 C 
ATOM     17  C   UNL     1       1.190   6.332  20.851  0.00  0.00    +0.000 C 
BRANCH  13  18
ATOM     18  C   UNL     1       4.951   4.776  18.104  0.00  0.00    +0.000 A 
ATOM     19  C   UNL     1       6.295   4.868  18.503  0.00  0.00    +0.000 A 
ATOM     20  C   UNL     1       7.337   4.756  17.579  0.00  0.00    +0.000 A 
ATOM     21  C   UNL     1       7.048   4.554  16.234  0.00  0.00    +0.000 A 
ATOM     22  C   UNL     1       5.720   4.470  15.824  0.00  0.00    +0.000 A 
ATOM     23 CL   UNL     1       5.366   4.222  14.157  0.00  0.00    +0.000 Cl
ATOM     24  C   UNL     1       4.675   4.582  16.743  0.00  0.00    +0.000 A 
ENDBRANCH  13  18
ENDBRANCH   1  17
BRANCH   3  25
ATOM     25  C   UNL     1       0.528  10.463  18.253  0.00  0.00    +0.000 C 
BRANCH  25  26
ATOM     26  C   UNL     1      -0.928  10.617  17.898  0.00  0.00    +0.000 A 
ATOM     27  C   UNL     1      -1.658  11.720  18.364  0.00  0.00    +0.000 A 
ATOM     28  C   UNL     1      -3.032  11.801  18.143  0.00  0.00    +0.000 A 
ATOM     29  C   UNL     1      -3.691  10.785  17.452  0.00  0.00    +0.000 A 
ATOM     30  C   UNL     1      -2.971   9.703  16.954  0.00  0.00    +0.000 A 
ATOM     31  C   UNL     1      -1.596   9.623  17.169  0.00  0.00    +0.000 A 
ENDBRANCH  25  26
ENDBRANCH   3  25
TORSDOF 4
ENDMDL
MODEL 5
REMARK VINA RESULT:      -8.2      1.410      1.980
REMARK  Name = 
REMARK  5 active torsions:
REMARK  status: ('A' for Active; 'I' for Inactive)
REMARK    1  A    between atoms: C_1  and  C_2
REMARK    2  A    between atoms: N_4  and  C_5
REMARK    3  A    between atoms: C_15  and  C_16
REMARK    4  A    between atoms: N_18  and  C_19
REMARK    5  A    between atoms: C_19  and  C_20
REMARK                            x       y       z     vdW  Elec       q    Type
REMARK                         _______ _______ _______ _____ _____    ______ ____
ROOT
ATOM      1  C   UNL     1       2.053   6.102  20.280  0.00  0.00    +0.000 A 
ATOM      2  C   UNL     1       3.341   6.447  19.949  0.00  0.00    +0.000 A 
ATOM      3  N   UNL     1       3.931   5.345  19.370  0.00  0.00    +0.000 N 
ATOM      4  C   UNL     1       3.009   4.317  19.254  0.00  0.00    +0.000 A 
ATOM      5  C   UNL     1       3.131   3.014  18.743  0.00  0.00    +0.000 A 
ATOM      6  C   UNL     1       2.012   2.179  18.775  0.00  0.00    +0.000 A 
ATOM      7  C   UNL     1       0.810   2.620  19.316  0.00  0.00    +0.000 A 
ATOM      8  C   UNL     1       0.698   3.911  19.840  0.00  0.00    +0.000 A 
ATOM      9  C   UNL     1       1.809   4.782  19.803  0.00  0.00    +0.000 A 
ENDROOT
BRANCH   1  17
ATOM     10  C   UNL     1      -0.589   8.782  22.885  0.00  0.00    +0.000 C 
ATOM     11  C   UNL     1       0.155   9.140  21.641  0.00  0.00    +0.000 C 
ATOM     12  N   UNL     1       0.214  10.352  21.156  0.00  0.00    +0.000 NA
ATOM     13  N   UNL     1       0.980  10.268  19.992  0.00  0.00    +0.000 N 
ATOM     14  C   UNL     1       1.391   8.967  19.667  0.00  0.00    +0.000 C 
ATOM     15  O   UNL     1       1.963   8.541  18.680  0.00  0.00    +0.000 OA
ATOM     16  C   UNL     1       0.910   8.177  20.825  0.00  0.00    +0.000 C 
ATOM     17  C   UNL     1       1.181   6.890  21.089  0.00  0.00    +0.000 C 
BRANCH  13  18
ATOM     18  C   UNL     1       1.276  11.448  19.265  0.00  0.00    +0.000 A 
ATOM     19  C   UNL     1       2.399  11.522  18.424  0.00  0.00    +0.000 A 
ATOM     20  C   UNL     1       2.697  12.685  17.711  0.00  0.00    +0.000 A 
ATOM     21  C   UNL     1       1.876  13.800  17.833  0.00  0.00    +0.000 A 
ATOM     22  C   UNL     1       0.765  13.744  18.669  0.00  0.00    +0.000 A 
ATOM     23 CL   UNL     1      -0.250  15.127  18.819  0.00  0.00    +0.000 Cl
ATOM     24  C   UNL     1       0.462  12.583  19.385  0.00  0.00    +0.000 A 
ENDBRANCH  13  18
ENDBRANCH   1  17
BRANCH   3  25
ATOM     25  C   UNL     1       5.348   5.260  19.030  0.00  0.00    +0.000 C 
BRANCH  25  26
ATOM     26  C   UNL     1       5.540   5.274  17.536  0.00  0.00    +0.000 A 
ATOM     27  C   UNL     1       5.181   6.402  16.784  0.00  0.00    +0.000 A 
ATOM     28  C   UNL     1       5.240   6.371  15.392  0.00  0.00    +0.000 A 
ATOM     29  C   UNL     1       5.662   5.216  14.734  0.00  0.00    +0.000 A 
ATOM     30  C   UNL     1       6.055   4.102  15.470  0.00  0.00    +0.000 A 
ATOM     31  C   UNL     1       6.002   4.133  16.863  0.00  0.00    +0.000 A 
ENDBRANCH  25  26
ENDBRANCH   3  25
TORSDOF 4
ENDMDL
MODEL 6
REMARK VINA RESULT:      -8.2      2.782      5.041
REMARK  Name = 
REMARK  5 active torsions:
REMARK  status: ('A' for Active; 'I' for Inactive)
REMARK    1  A    between atoms: C_1  and  C_2
REMARK    2  A    between atoms: N_4  and  C_5
REMARK    3  A    between atoms: C_15  and  C_16
REMARK    4  A    between atoms: N_18  and  C_19
REMARK    5  A    between atoms: C_19  and  C_20
REMARK                            x       y       z     vdW  Elec       q    Type
REMARK                         _______ _______ _______ _____ _____    ______ ____
ROOT
ATOM      1  C   UNL     1       4.437   4.684  17.961  0.00  0.00    +0.000 A 
ATOM      2  C   UNL     1       4.260   4.845  16.608  0.00  0.00    +0.000 A 
ATOM      3  N   UNL     1       5.348   5.538  16.126  0.00  0.00    +0.000 N 
ATOM      4  C   UNL     1       6.263   5.757  17.142  0.00  0.00    +0.000 A 
ATOM      5  C   UNL     1       7.504   6.415  17.149  0.00  0.00    +0.000 A 
ATOM      6  C   UNL     1       8.208   6.497  18.353  0.00  0.00    +0.000 A 
ATOM      7  C   UNL     1       7.685   5.957  19.522  0.00  0.00    +0.000 A 
ATOM      8  C   UNL     1       6.440   5.320  19.514  0.00  0.00    +0.000 A 
ATOM      9  C   UNL     1       5.717   5.206  18.307  0.00  0.00    +0.000 A 
ENDROOT
BRANCH   1  17
ATOM     10  C   UNL     1       1.302   3.308  20.998  0.00  0.00    +0.000 C 
ATOM     11  C   UNL     1       1.607   4.697  20.544  0.00  0.00    +0.000 C 
ATOM     12  N   UNL     1       1.040   5.763  21.045  0.00  0.00    +0.000 NA
ATOM     13  N   UNL     1       1.576   6.850  20.351  0.00  0.00    +0.000 N 
ATOM     14  C   UNL     1       2.472   6.496  19.332  0.00  0.00    +0.000 C 
ATOM     15  O   UNL     1       3.018   7.180  18.486  0.00  0.00    +0.000 OA
ATOM     16  C   UNL     1       2.581   5.026  19.493  0.00  0.00    +0.000 C 
ATOM     17  C   UNL     1       3.439   4.210  18.862  0.00  0.00    +0.000 C 
BRANCH  13  18
ATOM     18  C   UNL     1       1.195   8.165  20.715  0.00  0.00    +0.000 A 
ATOM     19  C   UNL     1       0.865   8.485  22.043  0.00  0.00    +0.000 A 
ATOM     20  C   UNL     1       0.482   9.779  22.405  0.00  0.00    +0.000 A 
ATOM     21  C   UNL     1       0.420  10.777  21.439  0.00  0.00    +0.000 A 
ATOM     22  C   UNL     1       0.737  10.472  20.119  0.00  0.00    +0.000 A 
ATOM     23 CL   UNL     1       0.656  11.710  18.924  0.00  0.00    +0.000 Cl
ATOM     24  C   UNL     1       1.119   9.180  19.751  0.00  0.00    +0.000 A 
ENDBRANCH  13  18
ENDBRANCH   1  17
BRANCH   3  25
ATOM     25  C   UNL     1       5.455   6.046  14.761  0.00  0.00    +0.000 C 
BRANCH  25  26
ATOM     26  C   UNL     1       5.904   4.958  13.820  0.00  0.00    +0.000 A 
ATOM     27  C   UNL     1       7.215   4.946  13.324  0.00  0.00    +0.000 A 
ATOM     28  C   UNL     1       7.596   4.016  12.358  0.00  0.00    +0.000 A 
ATOM     29  C   UNL     1       6.675   3.086  11.879  0.00  0.00    +0.000 A 
ATOM     30  C   UNL     1       5.380   3.065  12.389  0.00  0.00    +0.000 A 
ATOM     31  C   UNL     1       4.998   3.991  13.360  0.00  0.00    +0.000 A 
ENDBRANCH  25  26
ENDBRANCH   3  25
TORSDOF 4
ENDMDL
MODEL 7
REMARK VINA RESULT:      -8.1      1.303      1.672
REMARK  Name = 
REMARK  5 active torsions:
REMARK  status: ('A' for Active; 'I' for Inactive)
REMARK    1  A    between atoms: C_1  and  C_2
REMARK    2  A    between atoms: N_4  and  C_5
REMARK    3  A    between atoms: C_15  and  C_16
REMARK    4  A    between atoms: N_18  and  C_19
REMARK    5  A    between atoms: C_19  and  C_20
REMARK                            x       y       z     vdW  Elec       q    Type
REMARK                         _______ _______ _______ _____ _____    ______ ____
ROOT
ATOM      1  C   UNL     1       1.798   6.917  19.877  0.00  0.00    +0.000 A 
ATOM      2  C   UNL     1       2.577   7.505  18.909  0.00  0.00    +0.000 A 
ATOM      3  N   UNL     1       3.052   6.502  18.092  0.00  0.00    +0.000 N 
ATOM      4  C   UNL     1       2.522   5.282  18.478  0.00  0.00    +0.000 A 
ATOM      5  C   UNL     1       2.709   3.986  17.968  0.00  0.00    +0.000 A 
ATOM      6  C   UNL     1       2.045   2.925  18.587  0.00  0.00    +0.000 A 
ATOM      7  C   UNL     1       1.232   3.142  19.694  0.00  0.00    +0.000 A 
ATOM      8  C   UNL     1       1.065   4.431  20.210  0.00  0.00    +0.000 A 
ATOM      9  C   UNL     1       1.709   5.524  19.591  0.00  0.00    +0.000 A 
ENDROOT
BRANCH   1  17
ATOM     10  C   UNL     1       0.352   9.203  23.568  0.00  0.00    +0.000 C 
ATOM     11  C   UNL     1       0.619   9.729  22.197  0.00  0.00    +0.000 C 
ATOM     12  N   UNL     1       0.547  10.995  21.880  0.00  0.00    +0.000 NA
ATOM     13  N   UNL     1       0.849  11.073  20.520  0.00  0.00    +0.000 N 
ATOM     14  C   UNL     1       1.069   9.831  19.907  0.00  0.00    +0.000 C 
ATOM     15  O   UNL     1       1.238   9.544  18.736  0.00  0.00    +0.000 OA
ATOM     16  C   UNL     1       1.000   8.890  21.051  0.00  0.00    +0.000 C 
ATOM     17  C   UNL     1       1.300   7.582  21.035  0.00  0.00    +0.000 C 
BRANCH  13  18
ATOM     18  C   UNL     1       0.911  12.342  19.891  0.00  0.00    +0.000 A 
ATOM     19  C   UNL     1       1.953  12.663  19.005  0.00  0.00    +0.000 A 
ATOM     20  C   UNL     1       2.023  13.914  18.388  0.00  0.00    +0.000 A 
ATOM     21  C   UNL     1       1.048  14.870  18.654  0.00  0.00    +0.000 A 
ATOM     22  C   UNL     1       0.015  14.568  19.536  0.00  0.00    +0.000 A 
ATOM     23 CL   UNL     1      -1.189  15.755  19.863  0.00  0.00    +0.000 Cl
ATOM     24  C   UNL     1      -0.059  13.318  20.156  0.00  0.00    +0.000 A 
ENDBRANCH  13  18
ENDBRANCH   1  17
BRANCH   3  25
ATOM     25  C   UNL     1       4.046   6.705  17.042  0.00  0.00    +0.000 C 
BRANCH  25  26
ATOM     26  C   UNL     1       5.287   5.898  17.318  0.00  0.00    +0.000 A 
ATOM     27  C   UNL     1       5.962   6.030  18.540  0.00  0.00    +0.000 A 
ATOM     28  C   UNL     1       7.177   5.379  18.749  0.00  0.00    +0.000 A 
ATOM     29  C   UNL     1       7.731   4.589  17.743  0.00  0.00    +0.000 A 
ATOM     30  C   UNL     1       7.052   4.422  16.539  0.00  0.00    +0.000 A 
ATOM     31  C   UNL     1       5.834   5.066  16.330  0.00  0.00    +0.000 A 
ENDBRANCH  25  26
ENDBRANCH   3  25
TORSDOF 4
ENDMDL
MODEL 8
REMARK VINA RESULT:      -8.0      4.865      7.854
REMARK  Name = 
REMARK  5 active torsions:
REMARK  status: ('A' for Active; 'I' for Inactive)
REMARK    1  A    between atoms: C_1  and  C_2
REMARK    2  A    between atoms: N_4  and  C_5
REMARK    3  A    between atoms: C_15  and  C_16
REMARK    4  A    between atoms: N_18  and  C_19
REMARK    5  A    between atoms: C_19  and  C_20
REMARK                            x       y       z     vdW  Elec       q    Type
REMARK                         _______ _______ _______ _____ _____    ______ ____
ROOT
ATOM      1  C   UNL     1      -1.488  11.569  19.311  0.00  0.00    +0.000 A 
ATOM      2  C   UNL     1      -1.074  10.483  20.043  0.00  0.00    +0.000 A 
ATOM      3  N   UNL     1       0.247  10.686  20.378  0.00  0.00    +0.000 N 
ATOM      4  C   UNL     1       0.665  11.930  19.936  0.00  0.00    +0.000 A 
ATOM      5  C   UNL     1       1.907  12.580  20.028  0.00  0.00    +0.000 A 
ATOM      6  C   UNL     1       2.039  13.848  19.460  0.00  0.00    +0.000 A 
ATOM      7  C   UNL     1       0.973  14.449  18.802  0.00  0.00    +0.000 A 
ATOM      8  C   UNL     1      -0.257  13.791  18.695  0.00  0.00    +0.000 A 
ATOM      9  C   UNL     1      -0.423  12.515  19.277  0.00  0.00    +0.000 A 
ENDROOT
BRANCH   1  17
ATOM     10  C   UNL     1      -5.539  11.723  17.186  0.00  0.00    +0.000 C 
ATOM     11  C   UNL     1      -5.206  12.139  18.581  0.00  0.00    +0.000 C 
ATOM     12  N   UNL     1      -6.096  12.548  19.446  0.00  0.00    +0.000 NA
ATOM     13  N   UNL     1      -5.392  12.854  20.612  0.00  0.00    +0.000 N 
ATOM     14  C   UNL     1      -4.003  12.701  20.502  0.00  0.00    +0.000 C 
ATOM     15  O   UNL     1      -3.111  12.985  21.280  0.00  0.00    +0.000 OA
ATOM     16  C   UNL     1      -3.847  12.130  19.142  0.00  0.00    +0.000 C 
ATOM     17  C   UNL     1      -2.720  11.648  18.597  0.00  0.00    +0.000 C 
BRANCH  13  18
ATOM     18  C   UNL     1      -6.102  13.272  21.765  0.00  0.00    +0.000 A 
ATOM     19  C   UNL     1      -7.024  12.422  22.399  0.00  0.00    +0.000 A 
ATOM     20  C   UNL     1      -7.731  12.832  23.532  0.00  0.00    +0.000 A 
ATOM     21  C   UNL     1      -7.528  14.107  24.048  0.00  0.00    +0.000 A 
ATOM     22  C   UNL     1      -6.623  14.962  23.426  0.00  0.00    +0.000 A 
ATOM     23 CL   UNL     1      -6.376  16.541  24.067  0.00  0.00    +0.000 Cl
ATOM     24  C   UNL     1      -5.915  14.558  22.292  0.00  0.00    +0.000 A 
ENDBRANCH  13  18
ENDBRANCH   1  17
BRANCH   3  25
ATOM     25  C   UNL     1       1.092   9.682  21.018  0.00  0.00    +0.000 C 
BRANCH  25  26
ATOM     26  C   UNL     1       1.546   8.651  20.018  0.00  0.00    +0.000 A 
ATOM     27  C   UNL     1       1.832   7.341  20.430  0.00  0.00    +0.000 A 
ATOM     28  C   UNL     1       2.372   6.421  19.533  0.00  0.00    +0.000 A 
ATOM     29  C   UNL     1       2.628   6.795  18.215  0.00  0.00    +0.000 A 
ATOM     30  C   UNL     1       2.315   8.082  17.785  0.00  0.00    +0.000 A 
ATOM     31  C   UNL     1       1.770   9.002  18.679  0.00  0.00    +0.000 A 
ENDBRANCH  25  26
ENDBRANCH   3  25
TORSDOF 4
ENDMDL
MODEL 9
REMARK VINA RESULT:      -8.0      3.125      5.266
REMARK  Name = 
REMARK  5 active torsions:
REMARK  status: ('A' for Active; 'I' for Inactive)
REMARK    1  A    between atoms: C_1  and  C_2
REMARK    2  A    between atoms: N_4  and  C_5
REMARK    3  A    between atoms: C_15  and  C_16
REMARK    4  A    between atoms: N_18  and  C_19
REMARK    5  A    between atoms: C_19  and  C_20
REMARK                            x       y       z     vdW  Elec       q    Type
REMARK                         _______ _______ _______ _____ _____    ______ ____
ROOT
ATOM      1  C   UNL     1       4.439   4.600  17.864  0.00  0.00    +0.000 A 
ATOM      2  C   UNL     1       4.263   4.716  16.506  0.00  0.00    +0.000 A 
ATOM      3  N   UNL     1       5.340   5.414  16.005  0.00  0.00    +0.000 N 
ATOM      4  C   UNL     1       6.247   5.681  17.017  0.00  0.00    +0.000 A 
ATOM      5  C   UNL     1       7.476   6.362  17.006  0.00  0.00    +0.000 A 
ATOM      6  C   UNL     1       8.175   6.494  18.208  0.00  0.00    +0.000 A 
ATOM      7  C   UNL     1       7.659   5.980  19.392  0.00  0.00    +0.000 A 
ATOM      8  C   UNL     1       6.426   5.320  19.401  0.00  0.00    +0.000 A 
ATOM      9  C   UNL     1       5.708   5.156  18.197  0.00  0.00    +0.000 A 
ENDROOT
BRANCH   1  17
ATOM     10  C   UNL     1       1.322   3.260  20.935  0.00  0.00    +0.000 C 
ATOM     11  C   UNL     1       1.596   4.639  20.431  0.00  0.00    +0.000 C 
ATOM     12  N   UNL     1       1.001   5.709  20.890  0.00  0.00    +0.000 NA
ATOM     13  N   UNL     1       1.514   6.782  20.160  0.00  0.00    +0.000 N 
ATOM     14  C   UNL     1       2.425   6.413  19.159  0.00  0.00    +0.000 C 
ATOM     15  O   UNL     1       2.959   7.078  18.291  0.00  0.00    +0.000 OA
ATOM     16  C   UNL     1       2.567   4.953  19.373  0.00  0.00    +0.000 C 
ATOM     17  C   UNL     1       3.448   4.135  18.777  0.00  0.00    +0.000 C 
BRANCH  13  18
ATOM     18  C   UNL     1       1.100   8.100  20.474  0.00  0.00    +0.000 A 
ATOM     19  C   UNL     1       1.275   9.154  19.561  0.00  0.00    +0.000 A 
ATOM     20  C   UNL     1       0.874  10.456  19.869  0.00  0.00    +0.000 A 
ATOM     21  C   UNL     1       0.293  10.726  21.103  0.00  0.00    +0.000 A 
ATOM     22  C   UNL     1       0.122   9.693  22.020  0.00  0.00    +0.000 A 
ATOM     23 CL   UNL     1      -0.596  10.032  23.549  0.00  0.00    +0.000 Cl
ATOM     24  C   UNL     1       0.521   8.390  21.718  0.00  0.00    +0.000 A 
ENDBRANCH  13  18
ENDBRANCH   1  17
BRANCH   3  25
ATOM     25  C   UNL     1       5.440   5.882  14.626  0.00  0.00    +0.000 C 
BRANCH  25  26
ATOM     26  C   UNL     1       5.848   4.758  13.709  0.00  0.00    +0.000 A 
ATOM     27  C   UNL     1       7.173   4.652  13.262  0.00  0.00    +0.000 A 
ATOM     28  C   UNL     1       7.523   3.689  12.317  0.00  0.00    +0.000 A 
ATOM     29  C   UNL     1       6.558   2.820  11.810  0.00  0.00    +0.000 A 
ATOM     30  C   UNL     1       5.247   2.893  12.272  0.00  0.00    +0.000 A 
ATOM     31  C   UNL     1       4.895   3.851  13.222  0.00  0.00    +0.000 A 
ENDBRANCH  25  26
ENDBRANCH   3  25
TORSDOF 4
ENDMDL
