MODEL 1
REMARK VINA RESULT:      -7.9      0.000      0.000
REMARK  Name = 
REMARK  4 active torsions:
REMARK  status: ('A' for Active; 'I' for Inactive)
REMARK    1  A    between atoms: C_1  and  C_2
REMARK    2  A    between atoms: N_13  and  C_14
REMARK    3  A    between atoms: C_14  and  C_15
REMARK    4  A    between atoms: C_15  and  N_16
REMARK                            x       y       z     vdW  Elec       q    Type
REMARK                         _______ _______ _______ _____ _____    ______ ____
ROOT
ATOM      1  C   UNL     1       8.026   6.453  19.136  0.00  0.00    +0.000 C 
ATOM      2  C   UNL     1       7.560   5.525  18.048  0.00  0.00    +0.000 C 
ATOM      3  O   UNL     1       7.294   4.348  18.259  0.00  0.00    +0.000 OA
ATOM      4  N   UNL     1       7.466   6.168  16.827  0.00  0.00    +0.000 N 
ATOM      5  C   UNL     1       7.110   5.458  15.702  0.00  0.00    +0.000 A 
ATOM      6  N   UNL     1       7.802   5.542  14.597  0.00  0.00    +0.000 NA
ATOM      7  C   UNL     1       7.147   4.758  13.690  0.00  0.00    +0.000 A 
ATOM      8  C   UNL     1       7.495   4.476  12.363  0.00  0.00    +0.000 A 
ATOM      9  C   UNL     1       6.637   3.692  11.586  0.00  0.00    +0.000 A 
ATOM     10  C   UNL     1       5.445   3.209  12.123  0.00  0.00    +0.000 A 
ATOM     11  C   UNL     1       5.081   3.482  13.449  0.00  0.00    +0.000 A 
ATOM     12  C   UNL     1       5.965   4.246  14.227  0.00  0.00    +0.000 A 
ATOM     13  N   UNL     1       5.947   4.721  15.531  0.00  0.00    +0.000 N 
ATOM     14  H   UNL     1       8.169   6.872  16.643  0.00  0.00    +0.000 HD
ENDROOT
BRANCH  13  15
ATOM     15  C   UNL     1       4.764   4.832  16.376  0.00  0.00    +0.000 C 
BRANCH  15  16
ATOM     16  C   UNL     1       4.288   3.558  17.093  0.00  0.00    +0.000 C 
BRANCH  16  17
ATOM     17  N   UNL     1       2.812   3.424  17.168  0.00  0.00    +0.000 NA
ATOM     18  C   UNL     1       2.197   4.618  17.799  0.00  0.00    +0.000 C 
ATOM     19  C   UNL     1       2.383   4.675  19.327  0.00  0.00    +0.000 C 
ATOM     20  O   UNL     1       1.859   3.500  19.958  0.00  0.00    +0.000 OA
ATOM     21  C   UNL     1       2.471   2.318  19.432  0.00  0.00    +0.000 C 
ATOM     22  C   UNL     1       2.326   2.235  17.902  0.00  0.00    +0.000 C 
ENDBRANCH  16  17
ENDBRANCH  15  16
ENDBRANCH  13  15
TORSDOF 3
ENDMDL
MODEL 2
REMARK VINA RESULT:      -7.8      0.649      1.281
REMARK  Name = 
REMARK  4 active torsions:
REMARK  status: ('A' for Active; 'I' for Inactive)
REMARK    1  A    between atoms: C_1  and  C_2
REMARK    2  A    between atoms: N_13  and  C_14
REMARK    3  A    between atoms: C_14  and  C_15
REMARK    4  A    between atoms: C_15  and  N_16
REMARK                            x       y       z     vdW  Elec       q    Type
REMARK                         _______ _______ _______ _____ _____    ______ ____
ROOT
ATOM      1  C   UNL     1       8.019   6.510  18.993  0.00  0.00    +0.000 C 
ATOM      2  C   UNL     1       7.572   5.555  17.920  0.00  0.00    +0.000 C 
ATOM      3  O   UNL     1       7.330   4.376  18.151  0.00  0.00    +0.000 OA
ATOM      4  N   UNL     1       7.465   6.175  16.688  0.00  0.00    +0.000 N 
ATOM      5  C   UNL     1       7.124   5.438  15.575  0.00  0.00    +0.000 A 
ATOM      6  N   UNL     1       7.815   5.516  14.470  0.00  0.00    +0.000 NA
ATOM      7  C   UNL     1       7.176   4.704  13.577  0.00  0.00    +0.000 A 
ATOM      8  C   UNL     1       7.530   4.406  12.255  0.00  0.00    +0.000 A 
ATOM      9  C   UNL     1       6.688   3.592  11.491  0.00  0.00    +0.000 A 
ATOM     10  C   UNL     1       5.507   3.095  12.037  0.00  0.00    +0.000 A 
ATOM     11  C   UNL     1       5.137   3.383  13.357  0.00  0.00    +0.000 A 
ATOM     12  C   UNL     1       6.004   4.178  14.122  0.00  0.00    +0.000 A 
ATOM     13  N   UNL     1       5.977   4.675  15.418  0.00  0.00    +0.000 N 
ATOM     14  H   UNL     1       8.154   6.889  16.493  0.00  0.00    +0.000 HD
ENDROOT
BRANCH  13  15
ATOM     15  C   UNL     1       4.791   4.776  16.260  0.00  0.00    +0.000 C 
BRANCH  15  16
ATOM     16  C   UNL     1       4.374   3.522  17.044  0.00  0.00    +0.000 C 
BRANCH  16  17
ATOM     17  N   UNL     1       3.846   3.806  18.401  0.00  0.00    +0.000 NA
ATOM     18  C   UNL     1       3.402   2.561  19.075  0.00  0.00    +0.000 C 
ATOM     19  C   UNL     1       2.063   2.015  18.546  0.00  0.00    +0.000 C 
ATOM     20  O   UNL     1       1.022   2.993  18.656  0.00  0.00    +0.000 OA
ATOM     21  C   UNL     1       1.372   4.196  17.962  0.00  0.00    +0.000 C 
ATOM     22  C   UNL     1       2.717   4.762  18.448  0.00  0.00    +0.000 C 
ENDBRANCH  16  17
ENDBRANCH  15  16
ENDBRANCH  13  15
TORSDOF 3
ENDMDL
MODEL 3
REMARK VINA RESULT:      -7.2      2.916      6.818
REMARK  Name = 
REMARK  4 active torsions:
REMARK  status: ('A' for Active; 'I' for Inactive)
REMARK    1  A    between atoms: C_1  and  C_2
REMARK    2  A    between atoms: N_13  and  C_14
REMARK    3  A    between atoms: C_14  and  C_15
REMARK    4  A    between atoms: C_15  and  N_16
REMARK                            x       y       z     vdW  Elec       q    Type
REMARK                         _______ _______ _______ _____ _____    ______ ____
ROOT
ATOM      1  C   UNL     1       1.364  10.134  18.474  0.00  0.00    +0.000 C 
ATOM      2  C   UNL     1       1.690   8.667  18.417  0.00  0.00    +0.000 C 
ATOM      3  O   UNL     1       1.647   8.026  17.374  0.00  0.00    +0.000 OA
ATOM      4  N   UNL     1       2.046   8.169  19.657  0.00  0.00    +0.000 N 
ATOM      5  C   UNL     1       2.322   6.828  19.806  0.00  0.00    +0.000 A 
ATOM      6  N   UNL     1       1.773   6.121  20.757  0.00  0.00    +0.000 NA
ATOM      7  C   UNL     1       2.301   4.867  20.638  0.00  0.00    +0.000 A 
ATOM      8  C   UNL     1       2.016   3.722  21.393  0.00  0.00    +0.000 A 
ATOM      9  C   UNL     1       2.729   2.546  21.140  0.00  0.00    +0.000 A 
ATOM     10  C   UNL     1       3.716   2.519  20.157  0.00  0.00    +0.000 A 
ATOM     11  C   UNL     1       4.013   3.655  19.393  0.00  0.00    +0.000 A 
ATOM     12  C   UNL     1       3.272   4.822  19.637  0.00  0.00    +0.000 A 
ATOM     13  N   UNL     1       3.285   6.107  19.114  0.00  0.00    +0.000 N 
ATOM     14  H   UNL     1       1.552   8.560  20.448  0.00  0.00    +0.000 HD
ENDROOT
BRANCH  13  15
ATOM     15  C   UNL     1       4.378   6.701  18.355  0.00  0.00    +0.000 C 
BRANCH  15  16
ATOM     16  C   UNL     1       4.608   6.183  16.926  0.00  0.00    +0.000 C 
BRANCH  16  17
ATOM     17  N   UNL     1       5.944   6.514  16.372  0.00  0.00    +0.000 NA
ATOM     18  C   UNL     1       6.343   5.547  15.321  0.00  0.00    +0.000 C 
ATOM     19  C   UNL     1       6.787   4.179  15.874  0.00  0.00    +0.000 C 
ATOM     20  O   UNL     1       7.869   4.321  16.803  0.00  0.00    +0.000 OA
ATOM     21  C   UNL     1       7.512   5.195  17.879  0.00  0.00    +0.000 C 
ATOM     22  C   UNL     1       7.041   6.567  17.365  0.00  0.00    +0.000 C 
ENDBRANCH  16  17
ENDBRANCH  15  16
ENDBRANCH  13  15
TORSDOF 3
ENDMDL
MODEL 4
REMARK VINA RESULT:      -7.1      1.033      1.549
REMARK  Name = 
REMARK  4 active torsions:
REMARK  status: ('A' for Active; 'I' for Inactive)
REMARK    1  A    between atoms: C_1  and  C_2
REMARK    2  A    between atoms: N_13  and  C_14
REMARK    3  A    between atoms: C_14  and  C_15
REMARK    4  A    between atoms: C_15  and  N_16
REMARK                            x       y       z     vdW  Elec       q    Type
REMARK                         _______ _______ _______ _____ _____    ______ ____
ROOT
ATOM      1  C   UNL     1       7.996   6.039  19.407  0.00  0.00    +0.000 C 
ATOM      2  C   UNL     1       7.770   5.180  18.193  0.00  0.00    +0.000 C 
ATOM      3  O   UNL     1       7.921   3.965  18.213  0.00  0.00    +0.000 OA
ATOM      4  N   UNL     1       7.369   5.926  17.099  0.00  0.00    +0.000 N 
ATOM      5  C   UNL     1       7.172   5.311  15.883  0.00  0.00    +0.000 A 
ATOM      6  N   UNL     1       7.704   5.784  14.788  0.00  0.00    +0.000 NA
ATOM      7  C   UNL     1       7.268   4.968  13.783  0.00  0.00    +0.000 A 
ATOM      8  C   UNL     1       7.577   5.018  12.418  0.00  0.00    +0.000 A 
ATOM      9  C   UNL     1       6.961   4.115  11.547  0.00  0.00    +0.000 A 
ATOM     10  C   UNL     1       6.041   3.187  12.031  0.00  0.00    +0.000 A 
ATOM     11  C   UNL     1       5.720   3.123  13.394  0.00  0.00    +0.000 A 
ATOM     12  C   UNL     1       6.367   4.016  14.262  0.00  0.00    +0.000 A 
ATOM     13  N   UNL     1       6.304   4.261  15.626  0.00  0.00    +0.000 N 
ATOM     14  H   UNL     1       7.786   6.844  17.015  0.00  0.00    +0.000 HD
ENDROOT
BRANCH  13  15
ATOM     15  C   UNL     1       5.225   3.842  16.512  0.00  0.00    +0.000 C 
BRANCH  15  16
ATOM     16  C   UNL     1       4.282   4.935  17.041  0.00  0.00    +0.000 C 
BRANCH  16  17
ATOM     17  N   UNL     1       4.425   5.203  18.493  0.00  0.00    +0.000 NA
ATOM     18  C   UNL     1       4.564   3.941  19.261  0.00  0.00    +0.000 C 
ATOM     19  C   UNL     1       3.244   3.164  19.419  0.00  0.00    +0.000 C 
ATOM     20  O   UNL     1       2.238   3.971  20.042  0.00  0.00    +0.000 OA
ATOM     21  C   UNL     1       2.014   5.175  19.301  0.00  0.00    +0.000 C 
ATOM     22  C   UNL     1       3.316   5.971  19.102  0.00  0.00    +0.000 C 
ENDBRANCH  16  17
ENDBRANCH  15  16
ENDBRANCH  13  15
TORSDOF 3
ENDMDL
MODEL 5
REMARK VINA RESULT:      -7.1      1.597      2.070
REMARK  Name = 
REMARK  4 active torsions:
REMARK  status: ('A' for Active; 'I' for Inactive)
REMARK    1  A    between atoms: C_1  and  C_2
REMARK    2  A    between atoms: N_13  and  C_14
REMARK    3  A    between atoms: C_14  and  C_15
REMARK    4  A    between atoms: C_15  and  N_16
REMARK                            x       y       z     vdW  Elec       q    Type
REMARK                         _______ _______ _______ _____ _____    ______ ____
ROOT
ATOM      1  C   UNL     1       8.026   6.273  19.381  0.00  0.00    +0.000 C 
ATOM      2  C   UNL     1       7.769   5.364  18.210  0.00  0.00    +0.000 C 
ATOM      3  O   UNL     1       7.867   4.146  18.292  0.00  0.00    +0.000 OA
ATOM      4  N   UNL     1       7.407   6.071  17.077  0.00  0.00    +0.000 N 
ATOM      5  C   UNL     1       7.191   5.404  15.892  0.00  0.00    +0.000 A 
ATOM      6  N   UNL     1       7.749   5.797  14.778  0.00  0.00    +0.000 NA
ATOM      7  C   UNL     1       7.283   4.951  13.812  0.00  0.00    +0.000 A 
ATOM      8  C   UNL     1       7.602   4.918  12.449  0.00  0.00    +0.000 A 
ATOM      9  C   UNL     1       6.951   4.000  11.620  0.00  0.00    +0.000 A 
ATOM     10  C   UNL     1       5.990   3.138  12.143  0.00  0.00    +0.000 A 
ATOM     11  C   UNL     1       5.658   3.157  13.505  0.00  0.00    +0.000 A 
ATOM     12  C   UNL     1       6.339   4.064  14.332  0.00  0.00    +0.000 A 
ATOM     13  N   UNL     1       6.279   4.380  15.682  0.00  0.00    +0.000 N 
ATOM     14  H   UNL     1       7.864   6.964  16.950  0.00  0.00    +0.000 HD
ENDROOT
BRANCH  13  15
ATOM     15  C   UNL     1       5.178   4.054  16.579  0.00  0.00    +0.000 C 
BRANCH  15  16
ATOM     16  C   UNL     1       4.122   5.143  16.827  0.00  0.00    +0.000 C 
BRANCH  16  17
ATOM     17  N   UNL     1       4.482   6.098  17.905  0.00  0.00    +0.000 NA
ATOM     18  C   UNL     1       4.250   5.505  19.244  0.00  0.00    +0.000 C 
ATOM     19  C   UNL     1       2.764   5.439  19.643  0.00  0.00    +0.000 C 
ATOM     20  O   UNL     1       2.157   6.736  19.604  0.00  0.00    +0.000 OA
ATOM     21  C   UNL     1       2.293   7.328  18.308  0.00  0.00    +0.000 C 
ATOM     22  C   UNL     1       3.765   7.391  17.863  0.00  0.00    +0.000 C 
ENDBRANCH  16  17
ENDBRANCH  15  16
ENDBRANCH  13  15
TORSDOF 3
ENDMDL
MODEL 6
REMARK VINA RESULT:      -7.0      2.831      4.964
REMARK  Name = 
REMARK  4 active torsions:
REMARK  status: ('A' for Active; 'I' for Inactive)
REMARK    1  A    between atoms: C_1  and  C_2
REMARK    2  A    between atoms: N_13  and  C_14
REMARK    3  A    between atoms: C_14  and  C_15
REMARK    4  A    between atoms: C_15  and  N_16
REMARK                            x       y       z     vdW  Elec       q    Type
REMARK                         _______ _______ _______ _____ _____    ______ ____
ROOT
ATOM      1  C   UNL     1       1.657   2.563  21.643  0.00  0.00    +0.000 C 
ATOM      2  C   UNL     1       2.394   2.664  20.336  0.00  0.00    +0.000 C 
ATOM      3  O   UNL     1       2.186   1.895  19.405  0.00  0.00    +0.000 OA
ATOM      4  N   UNL     1       3.294   3.714  20.330  0.00  0.00    +0.000 N 
ATOM      5  C   UNL     1       4.101   3.922  19.234  0.00  0.00    +0.000 A 
ATOM      6  N   UNL     1       5.390   4.091  19.359  0.00  0.00    +0.000 NA
ATOM      7  C   UNL     1       5.858   4.316  18.096  0.00  0.00    +0.000 A 
ATOM      8  C   UNL     1       7.178   4.521  17.675  0.00  0.00    +0.000 A 
ATOM      9  C   UNL     1       7.427   4.800  16.328  0.00  0.00    +0.000 A 
ATOM     10  C   UNL     1       6.374   4.886  15.421  0.00  0.00    +0.000 A 
ATOM     11  C   UNL     1       5.047   4.684  15.825  0.00  0.00    +0.000 A 
ATOM     12  C   UNL     1       4.812   4.375  17.174  0.00  0.00    +0.000 A 
ATOM     13  N   UNL     1       3.675   4.131  17.931  0.00  0.00    +0.000 N 
ATOM     14  H   UNL     1       3.765   3.897  21.207  0.00  0.00    +0.000 HD
ENDROOT
BRANCH  13  15
ATOM     15  C   UNL     1       2.313   4.488  17.550  0.00  0.00    +0.000 C 
BRANCH  15  16
ATOM     16  C   UNL     1       1.728   5.776  18.150  0.00  0.00    +0.000 C 
BRANCH  16  17
ATOM     17  N   UNL     1       2.750   6.722  18.662  0.00  0.00    +0.000 NA
ATOM     18  C   UNL     1       2.381   7.236  20.004  0.00  0.00    +0.000 C 
ATOM     19  C   UNL     1       1.257   8.289  19.976  0.00  0.00    +0.000 C 
ATOM     20  O   UNL     1       1.607   9.399  19.139  0.00  0.00    +0.000 OA
ATOM     21  C   UNL     1       1.908   8.964  17.809  0.00  0.00    +0.000 C 
ATOM     22  C   UNL     1       3.012   7.894  17.797  0.00  0.00    +0.000 C 
ENDBRANCH  16  17
ENDBRANCH  15  16
ENDBRANCH  13  15
TORSDOF 3
ENDMDL
MODEL 7
REMARK VINA RESULT:      -6.7      2.903      6.611
REMARK  Name = 
REMARK  4 active torsions:
REMARK  status: ('A' for Active; 'I' for Inactive)
REMARK    1  A    between atoms: C_1  and  C_2
REMARK    2  A    between atoms: N_13  and  C_14
REMARK    3  A    between atoms: C_14  and  C_15
REMARK    4  A    between atoms: C_15  and  N_16
REMARK                            x       y       z     vdW  Elec       q    Type
REMARK                         _______ _______ _______ _____ _____    ______ ____
ROOT
ATOM      1  C   UNL     1       1.535  10.196  20.132  0.00  0.00    +0.000 C 
ATOM      2  C   UNL     1       1.467   8.853  19.458  0.00  0.00    +0.000 C 
ATOM      3  O   UNL     1       1.037   8.713  18.319  0.00  0.00    +0.000 OA
ATOM      4  N   UNL     1       1.953   7.843  20.267  0.00  0.00    +0.000 N 
ATOM      5  C   UNL     1       1.914   6.536  19.834  0.00  0.00    +0.000 A 
ATOM      6  N   UNL     1       1.432   5.584  20.587  0.00  0.00    +0.000 NA
ATOM      7  C   UNL     1       1.592   4.431  19.873  0.00  0.00    +0.000 A 
ATOM      8  C   UNL     1       1.207   3.128  20.215  0.00  0.00    +0.000 A 
ATOM      9  C   UNL     1       1.532   2.075  19.355  0.00  0.00    +0.000 A 
ATOM     10  C   UNL     1       2.240   2.318  18.181  0.00  0.00    +0.000 A 
ATOM     11  C   UNL     1       2.632   3.615  17.823  0.00  0.00    +0.000 A 
ATOM     12  C   UNL     1       2.276   4.668  18.680  0.00  0.00    +0.000 A 
ATOM     13  N   UNL     1       2.491   6.039  18.676  0.00  0.00    +0.000 N 
ATOM     14  H   UNL     1       1.759   7.938  21.256  0.00  0.00    +0.000 HD
ENDROOT
BRANCH  13  15
ATOM     15  C   UNL     1       3.502   6.734  17.888  0.00  0.00    +0.000 C 
BRANCH  15  16
ATOM     16  C   UNL     1       4.967   6.318  18.096  0.00  0.00    +0.000 C 
BRANCH  16  17
ATOM     17  N   UNL     1       5.846   6.608  16.936  0.00  0.00    +0.000 NA
ATOM     18  C   UNL     1       5.277   6.058  15.682  0.00  0.00    +0.000 C 
ATOM     19  C   UNL     1       5.420   4.530  15.553  0.00  0.00    +0.000 C 
ATOM     20  O   UNL     1       6.792   4.127  15.650  0.00  0.00    +0.000 OA
ATOM     21  C   UNL     1       7.374   4.575  16.879  0.00  0.00    +0.000 C 
ATOM     22  C   UNL     1       7.230   6.097  17.055  0.00  0.00    +0.000 C 
ENDBRANCH  16  17
ENDBRANCH  15  16
ENDBRANCH  13  15
TORSDOF 3
ENDMDL
MODEL 8
REMARK VINA RESULT:      -6.6      2.590      6.560
REMARK  Name = 
REMARK  4 active torsions:
REMARK  status: ('A' for Active; 'I' for Inactive)
REMARK    1  A    between atoms: C_1  and  C_2
REMARK    2  A    between atoms: N_13  and  C_14
REMARK    3  A    between atoms: C_14  and  C_15
REMARK    4  A    between atoms: C_15  and  N_16
REMARK                            x       y       z     vdW  Elec       q    Type
REMARK                         _______ _______ _______ _____ _____    ______ ____
ROOT
ATOM      1  C   UNL     1       4.512   1.483  20.567  0.00  0.00    +0.000 C 
ATOM      2  C   UNL     1       4.376   2.885  20.042  0.00  0.00    +0.000 C 
ATOM      3  O   UNL     1       5.286   3.456  19.453  0.00  0.00    +0.000 OA
ATOM      4  N   UNL     1       3.122   3.413  20.295  0.00  0.00    +0.000 N 
ATOM      5  C   UNL     1       2.838   4.712  19.936  0.00  0.00    +0.000 A 
ATOM      6  N   UNL     1       2.293   5.547  20.780  0.00  0.00    +0.000 NA
ATOM      7  C   UNL     1       2.110   6.708  20.084  0.00  0.00    +0.000 A 
ATOM      8  C   UNL     1       1.594   7.928  20.538  0.00  0.00    +0.000 A 
ATOM      9  C   UNL     1       1.433   8.979  19.629  0.00  0.00    +0.000 A 
ATOM     10  C   UNL     1       1.770   8.807  18.288  0.00  0.00    +0.000 A 
ATOM     11  C   UNL     1       2.288   7.593  17.818  0.00  0.00    +0.000 A 
ATOM     12  C   UNL     1       2.472   6.556  18.745  0.00  0.00    +0.000 A 
ATOM     13  N   UNL     1       2.930   5.248  18.661  0.00  0.00    +0.000 N 
ATOM     14  H   UNL     1       2.701   3.145  21.175  0.00  0.00    +0.000 HD
ENDROOT
BRANCH  13  15
ATOM     15  C   UNL     1       3.029   4.463  17.436  0.00  0.00    +0.000 C 
BRANCH  15  16
ATOM     16  C   UNL     1       4.393   4.429  16.729  0.00  0.00    +0.000 C 
BRANCH  16  17
ATOM     17  N   UNL     1       4.845   5.749  16.225  0.00  0.00    +0.000 NA
ATOM     18  C   UNL     1       5.390   5.640  14.850  0.00  0.00    +0.000 C 
ATOM     19  C   UNL     1       6.794   5.009  14.789  0.00  0.00    +0.000 C 
ATOM     20  O   UNL     1       7.727   5.739  15.596  0.00  0.00    +0.000 OA
ATOM     21  C   UNL     1       7.280   5.816  16.954  0.00  0.00    +0.000 C 
ATOM     22  C   UNL     1       5.869   6.421  17.055  0.00  0.00    +0.000 C 
ENDBRANCH  16  17
ENDBRANCH  15  16
ENDBRANCH  13  15
TORSDOF 3
ENDMDL
MODEL 9
REMARK VINA RESULT:      -6.5      2.958      6.670
REMARK  Name = 
REMARK  4 active torsions:
REMARK  status: ('A' for Active; 'I' for Inactive)
REMARK    1  A    between atoms: C_1  and  C_2
REMARK    2  A    between atoms: N_13  and  C_14
REMARK    3  A    between atoms: C_14  and  C_15
REMARK    4  A    between atoms: C_15  and  N_16
REMARK                            x       y       z     vdW  Elec       q    Type
REMARK                         _______ _______ _______ _____ _____    ______ ____
ROOT
ATOM      1  C   UNL     1       1.809  10.517  18.887  0.00  0.00    +0.000 C 
ATOM      2  C   UNL     1       1.588   9.052  18.628  0.00  0.00    +0.000 C 
ATOM      3  O   UNL     1       0.962   8.646  17.656  0.00  0.00    +0.000 OA
ATOM      4  N   UNL     1       2.179   8.261  19.596  0.00  0.00    +0.000 N 
ATOM      5  C   UNL     1       2.029   6.893  19.551  0.00  0.00    +0.000 A 
ATOM      6  N   UNL     1       1.658   6.214  20.604  0.00  0.00    +0.000 NA
ATOM      7  C   UNL     1       1.660   4.904  20.219  0.00  0.00    +0.000 A 
ATOM      8  C   UNL     1       1.304   3.772  20.963  0.00  0.00    +0.000 A 
ATOM      9  C   UNL     1       1.445   2.506  20.386  0.00  0.00    +0.000 A 
ATOM     10  C   UNL     1       1.944   2.375  19.092  0.00  0.00    +0.000 A 
ATOM     11  C   UNL     1       2.305   3.496  18.334  0.00  0.00    +0.000 A 
ATOM     12  C   UNL     1       2.132   4.763  18.913  0.00  0.00    +0.000 A 
ATOM     13  N   UNL     1       2.381   6.063  18.497  0.00  0.00    +0.000 N 
ATOM     14  H   UNL     1       2.162   8.630  20.538  0.00  0.00    +0.000 HD
ENDROOT
BRANCH  13  15
ATOM     15  C   UNL     1       3.259   6.446  17.398  0.00  0.00    +0.000 C 
BRANCH  15  16
ATOM     16  C   UNL     1       4.773   6.305  17.622  0.00  0.00    +0.000 C 
BRANCH  16  17
ATOM     17  N   UNL     1       5.215   4.915  17.896  0.00  0.00    +0.000 NA
ATOM     18  C   UNL     1       6.392   4.896  18.798  0.00  0.00    +0.000 C 
ATOM     19  C   UNL     1       7.708   5.298  18.107  0.00  0.00    +0.000 C 
ATOM     20  O   UNL     1       7.980   4.458  16.979  0.00  0.00    +0.000 OA
ATOM     21  C   UNL     1       6.900   4.493  16.040  0.00  0.00    +0.000 C 
ATOM     22  C   UNL     1       5.561   4.118  16.699  0.00  0.00    +0.000 C 
ENDBRANCH  16  17
ENDBRANCH  15  16
ENDBRANCH  13  15
TORSDOF 3
ENDMDL
