MODEL 1
REMARK VINA RESULT:      -7.4      0.000      0.000
REMARK  Name = 
REMARK  4 active torsions:
REMARK  status: ('A' for Active; 'I' for Inactive)
REMARK    1  A    between atoms: C_1  and  C_2
REMARK    2  A    between atoms: C_5  and  C_6
REMARK    3  A    between atoms: N_7  and  C_8
REMARK    4  A    between atoms: C_11  and  C_12
REMARK                            x       y       z     vdW  Elec       q    Type
REMARK                         _______ _______ _______ _____ _____    ______ ____
ROOT
ATOM      1  C   UNL     1       4.351   4.207  18.385  0.00  0.00    +0.000 A 
ATOM      2  C   UNL     1       3.830   3.867  17.132  0.00  0.00    +0.000 A 
ATOM      3  C   UNL     1       4.591   4.034  15.969  0.00  0.00    +0.000 A 
ATOM      4  C   UNL     1       5.876   4.582  16.026  0.00  0.00    +0.000 A 
ATOM      5  C   UNL     1       6.390   4.946  17.274  0.00  0.00    +0.000 A 
ATOM      6  C   UNL     1       5.642   4.747  18.444  0.00  0.00    +0.000 A 
ENDROOT
BRANCH   1  13
ATOM      7  C   UNL     1       4.435   1.611  20.144  0.00  0.00    +0.000 C 
ATOM      8  C   UNL     1       3.572   2.811  20.354  0.00  0.00    +0.000 A 
ATOM      9  C   UNL     1       2.695   2.993  21.406  0.00  0.00    +0.000 A 
ATOM     10  C   UNL     1       2.176   4.291  21.317  0.00  0.00    +0.000 A 
ATOM     11  C   UNL     1       2.715   4.888  20.194  0.00  0.00    +0.000 A 
ATOM     12  C   UNL     1       2.338   6.230  19.661  0.00  0.00    +0.000 C 
ATOM     13  N   UNL     1       3.591   3.980  19.583  0.00  0.00    +0.000 N 
ENDBRANCH   1  13
BRANCH   4  14
ATOM     14  C   UNL     1       6.656   4.764  14.802  0.00  0.00    +0.000 A 
ATOM     15  C   UNL     1       6.441   4.157  13.533  0.00  0.00    +0.000 A 
ATOM     16  C   UNL     1       7.438   4.642  12.718  0.00  0.00    +0.000 A 
ATOM     17  N   UNL     1       8.168   5.485  13.498  0.00  0.00    +0.000 N 
ATOM     18  N   UNL     1       7.731   5.568  14.762  0.00  0.00    +0.000 NA
ATOM     19  H   UNL     1       8.984   6.034  13.237  0.00  0.00    +0.000 HD
ENDBRANCH   4  14
TORSDOF 2
ENDMDL
MODEL 2
REMARK VINA RESULT:      -7.4      0.058      1.916
REMARK  Name = 
REMARK  4 active torsions:
REMARK  status: ('A' for Active; 'I' for Inactive)
REMARK    1  A    between atoms: C_1  and  C_2
REMARK    2  A    between atoms: C_5  and  C_6
REMARK    3  A    between atoms: N_7  and  C_8
REMARK    4  A    between atoms: C_11  and  C_12
REMARK                            x       y       z     vdW  Elec       q    Type
REMARK                         _______ _______ _______ _____ _____    ______ ____
ROOT
ATOM      1  C   UNL     1       4.345   4.172  18.386  0.00  0.00    +0.000 A 
ATOM      2  C   UNL     1       3.806   3.906  17.122  0.00  0.00    +0.000 A 
ATOM      3  C   UNL     1       4.570   4.086  15.964  0.00  0.00    +0.000 A 
ATOM      4  C   UNL     1       5.879   4.575  16.037  0.00  0.00    +0.000 A 
ATOM      5  C   UNL     1       6.411   4.864  17.296  0.00  0.00    +0.000 A 
ATOM      6  C   UNL     1       5.659   4.652  18.460  0.00  0.00    +0.000 A 
ENDROOT
BRANCH   1  13
ATOM      7  C   UNL     1       2.330   6.183  19.705  0.00  0.00    +0.000 C 
ATOM      8  C   UNL     1       2.715   4.833  20.213  0.00  0.00    +0.000 A 
ATOM      9  C   UNL     1       2.195   4.222  21.338  0.00  0.00    +0.000 A 
ATOM     10  C   UNL     1       2.710   2.922  21.402  0.00  0.00    +0.000 A 
ATOM     11  C   UNL     1       3.566   2.751  20.331  0.00  0.00    +0.000 A 
ATOM     12  C   UNL     1       4.420   1.551  20.088  0.00  0.00    +0.000 C 
ATOM     13  N   UNL     1       3.578   3.932  19.577  0.00  0.00    +0.000 N 
ENDBRANCH   1  13
BRANCH   4  14
ATOM     14  C   UNL     1       6.662   4.770  14.818  0.00  0.00    +0.000 A 
ATOM     15  C   UNL     1       6.456   4.173  13.543  0.00  0.00    +0.000 A 
ATOM     16  C   UNL     1       7.454   4.670  12.736  0.00  0.00    +0.000 A 
ATOM     17  N   UNL     1       8.176   5.511  13.526  0.00  0.00    +0.000 N 
ATOM     18  N   UNL     1       7.734   5.580  14.789  0.00  0.00    +0.000 NA
ATOM     19  H   UNL     1       8.990   6.066  13.273  0.00  0.00    +0.000 HD
ENDBRANCH   4  14
TORSDOF 2
ENDMDL
MODEL 3
REMARK VINA RESULT:      -7.4      0.112      1.138
REMARK  Name = 
REMARK  4 active torsions:
REMARK  status: ('A' for Active; 'I' for Inactive)
REMARK    1  A    between atoms: C_1  and  C_2
REMARK    2  A    between atoms: C_5  and  C_6
REMARK    3  A    between atoms: N_7  and  C_8
REMARK    4  A    between atoms: C_11  and  C_12
REMARK                            x       y       z     vdW  Elec       q    Type
REMARK                         _______ _______ _______ _____ _____    ______ ____
ROOT
ATOM      1  C   UNL     1       4.399   4.131  18.307  0.00  0.00    +0.000 A 
ATOM      2  C   UNL     1       5.707   4.624  18.363  0.00  0.00    +0.000 A 
ATOM      3  C   UNL     1       6.446   4.837  17.194  0.00  0.00    +0.000 A 
ATOM      4  C   UNL     1       5.909   4.525  15.941  0.00  0.00    +0.000 A 
ATOM      5  C   UNL     1       4.612   4.010  15.882  0.00  0.00    +0.000 A 
ATOM      6  C   UNL     1       3.857   3.828  17.050  0.00  0.00    +0.000 A 
ENDROOT
BRANCH   1  13
ATOM      7  C   UNL     1       4.429   1.616  20.180  0.00  0.00    +0.000 C 
ATOM      8  C   UNL     1       3.579   2.834  20.326  0.00  0.00    +0.000 A 
ATOM      9  C   UNL     1       2.692   3.074  21.358  0.00  0.00    +0.000 A 
ATOM     10  C   UNL     1       2.192   4.373  21.205  0.00  0.00    +0.000 A 
ATOM     11  C   UNL     1       2.752   4.913  20.063  0.00  0.00    +0.000 A 
ATOM     12  C   UNL     1       2.398   6.235  19.467  0.00  0.00    +0.000 C 
ATOM     13  N   UNL     1       3.622   3.968  19.504  0.00  0.00    +0.000 N 
ENDBRANCH   1  13
BRANCH   4  14
ATOM     14  C   UNL     1       6.696   4.741  14.727  0.00  0.00    +0.000 A 
ATOM     15  C   UNL     1       6.502   4.153  13.446  0.00  0.00    +0.000 A 
ATOM     16  C   UNL     1       7.499   4.668  12.648  0.00  0.00    +0.000 A 
ATOM     17  N   UNL     1       8.208   5.509  13.449  0.00  0.00    +0.000 N 
ATOM     18  N   UNL     1       7.759   5.562  14.711  0.00  0.00    +0.000 NA
ATOM     19  H   UNL     1       9.018   6.076  13.206  0.00  0.00    +0.000 HD
ENDBRANCH   4  14
TORSDOF 2
ENDMDL
MODEL 4
REMARK VINA RESULT:      -7.3      0.264      2.233
REMARK  Name = 
REMARK  4 active torsions:
REMARK  status: ('A' for Active; 'I' for Inactive)
REMARK    1  A    between atoms: C_1  and  C_2
REMARK    2  A    between atoms: C_5  and  C_6
REMARK    3  A    between atoms: N_7  and  C_8
REMARK    4  A    between atoms: C_11  and  C_12
REMARK                            x       y       z     vdW  Elec       q    Type
REMARK                         _______ _______ _______ _____ _____    ______ ____
ROOT
ATOM      1  C   UNL     1       4.326   3.978  18.517  0.00  0.00    +0.000 A 
ATOM      2  C   UNL     1       5.540   4.672  18.579  0.00  0.00    +0.000 A 
ATOM      3  C   UNL     1       6.277   4.936  17.419  0.00  0.00    +0.000 A 
ATOM      4  C   UNL     1       5.838   4.478  16.172  0.00  0.00    +0.000 A 
ATOM      5  C   UNL     1       4.639   3.764  16.109  0.00  0.00    +0.000 A 
ATOM      6  C   UNL     1       3.882   3.528  17.266  0.00  0.00    +0.000 A 
ENDROOT
BRANCH   1  13
ATOM      7  C   UNL     1       2.093   5.887  19.615  0.00  0.00    +0.000 C 
ATOM      8  C   UNL     1       2.579   4.621  20.239  0.00  0.00    +0.000 A 
ATOM      9  C   UNL     1       2.077   4.052  21.393  0.00  0.00    +0.000 A 
ATOM     10  C   UNL     1       2.704   2.814  21.574  0.00  0.00    +0.000 A 
ATOM     11  C   UNL     1       3.610   2.642  20.545  0.00  0.00    +0.000 A 
ATOM     12  C   UNL     1       4.576   1.511  20.422  0.00  0.00    +0.000 C 
ATOM     13  N   UNL     1       3.543   3.758  19.701  0.00  0.00    +0.000 N 
ENDBRANCH   1  13
BRANCH   4  14
ATOM     14  C   UNL     1       6.625   4.750  14.969  0.00  0.00    +0.000 A 
ATOM     15  C   UNL     1       6.448   4.199  13.669  0.00  0.00    +0.000 A 
ATOM     16  C   UNL     1       7.435   4.762  12.893  0.00  0.00    +0.000 A 
ATOM     17  N   UNL     1       8.124   5.592  13.723  0.00  0.00    +0.000 N 
ATOM     18  N   UNL     1       7.669   5.594  14.984  0.00  0.00    +0.000 NA
ATOM     19  H   UNL     1       8.921   6.184  13.501  0.00  0.00    +0.000 HD
ENDBRANCH   4  14
TORSDOF 2
ENDMDL
MODEL 5
REMARK VINA RESULT:      -6.8      0.851      2.168
REMARK  Name = 
REMARK  4 active torsions:
REMARK  status: ('A' for Active; 'I' for Inactive)
REMARK    1  A    between atoms: C_1  and  C_2
REMARK    2  A    between atoms: C_5  and  C_6
REMARK    3  A    between atoms: N_7  and  C_8
REMARK    4  A    between atoms: C_11  and  C_12
REMARK                            x       y       z     vdW  Elec       q    Type
REMARK                         _______ _______ _______ _____ _____    ______ ____
ROOT
ATOM      1  C   UNL     1       4.079   5.007  17.930  0.00  0.00    +0.000 A 
ATOM      2  C   UNL     1       4.004   3.962  17.003  0.00  0.00    +0.000 A 
ATOM      3  C   UNL     1       4.848   3.929  15.887  0.00  0.00    +0.000 A 
ATOM      4  C   UNL     1       5.761   4.961  15.649  0.00  0.00    +0.000 A 
ATOM      5  C   UNL     1       5.822   6.019  16.560  0.00  0.00    +0.000 A 
ATOM      6  C   UNL     1       5.001   6.037  17.697  0.00  0.00    +0.000 A 
ENDROOT
BRANCH   1  13
ATOM      7  C   UNL     1       2.168   7.329  18.819  0.00  0.00    +0.000 C 
ATOM      8  C   UNL     1       2.433   6.055  19.550  0.00  0.00    +0.000 A 
ATOM      9  C   UNL     1       1.827   5.666  20.729  0.00  0.00    +0.000 A 
ATOM     10  C   UNL     1       2.243   4.361  21.019  0.00  0.00    +0.000 A 
ATOM     11  C   UNL     1       3.125   3.966  20.031  0.00  0.00    +0.000 A 
ATOM     12  C   UNL     1       3.898   2.689  20.020  0.00  0.00    +0.000 C 
ATOM     13  N   UNL     1       3.253   5.009  19.105  0.00  0.00    +0.000 N 
ENDBRANCH   1  13
BRANCH   4  14
ATOM     14  C   UNL     1       6.629   4.921  14.472  0.00  0.00    +0.000 A 
ATOM     15  C   UNL     1       6.391   4.259  13.236  0.00  0.00    +0.000 A 
ATOM     16  C   UNL     1       7.500   4.515  12.461  0.00  0.00    +0.000 A 
ATOM     17  N   UNL     1       8.311   5.291  13.230  0.00  0.00    +0.000 N 
ATOM     18  N   UNL     1       7.822   5.539  14.453  0.00  0.00    +0.000 NA
ATOM     19  H   UNL     1       9.219   5.682  12.990  0.00  0.00    +0.000 HD
ENDBRANCH   4  14
TORSDOF 2
ENDMDL
MODEL 6
REMARK VINA RESULT:      -6.6      3.937      7.529
REMARK  Name = 
REMARK  4 active torsions:
REMARK  status: ('A' for Active; 'I' for Inactive)
REMARK    1  A    between atoms: C_1  and  C_2
REMARK    2  A    between atoms: C_5  and  C_6
REMARK    3  A    between atoms: N_7  and  C_8
REMARK    4  A    between atoms: C_11  and  C_12
REMARK                            x       y       z     vdW  Elec       q    Type
REMARK                         _______ _______ _______ _____ _____    ______ ____
ROOT
ATOM      1  C   UNL     1       2.665   6.894  18.431  0.00  0.00    +0.000 A 
ATOM      2  C   UNL     1       2.388   6.896  19.802  0.00  0.00    +0.000 A 
ATOM      3  C   UNL     1       1.683   7.952  20.391  0.00  0.00    +0.000 A 
ATOM      4  C   UNL     1       1.273   9.051  19.630  0.00  0.00    +0.000 A 
ATOM      5  C   UNL     1       1.570   9.064  18.265  0.00  0.00    +0.000 A 
ATOM      6  C   UNL     1       2.246   7.991  17.667  0.00  0.00    +0.000 A 
ENDROOT
BRANCH   1  13
ATOM      7  C   UNL     1       5.592   6.919  17.303  0.00  0.00    +0.000 C 
ATOM      8  C   UNL     1       4.623   5.785  17.260  0.00  0.00    +0.000 A 
ATOM      9  C   UNL     1       4.884   4.526  16.755  0.00  0.00    +0.000 A 
ATOM     10  C   UNL     1       3.773   3.715  17.015  0.00  0.00    +0.000 A 
ATOM     11  C   UNL     1       2.823   4.489  17.654  0.00  0.00    +0.000 A 
ATOM     12  C   UNL     1       1.440   4.049  18.004  0.00  0.00    +0.000 C 
ATOM     13  N   UNL     1       3.338   5.782  17.818  0.00  0.00    +0.000 N 
ENDBRANCH   1  13
BRANCH   4  14
ATOM     14  C   UNL     1       0.548  10.155  20.260  0.00  0.00    +0.000 A 
ATOM     15  C   UNL     1      -0.586  10.852  19.759  0.00  0.00    +0.000 A 
ATOM     16  C   UNL     1      -0.888  11.799  20.712  0.00  0.00    +0.000 A 
ATOM     17  N   UNL     1       0.032  11.628  21.700  0.00  0.00    +0.000 N 
ATOM     18  N   UNL     1       0.920  10.657  21.450  0.00  0.00    +0.000 NA
ATOM     19  H   UNL     1       0.120  12.144  22.572  0.00  0.00    +0.000 HD
ENDBRANCH   4  14
TORSDOF 2
ENDMDL
MODEL 7
REMARK VINA RESULT:      -6.6      3.931      7.464
REMARK  Name = 
REMARK  4 active torsions:
REMARK  status: ('A' for Active; 'I' for Inactive)
REMARK    1  A    between atoms: C_1  and  C_2
REMARK    2  A    between atoms: C_5  and  C_6
REMARK    3  A    between atoms: N_7  and  C_8
REMARK    4  A    between atoms: C_11  and  C_12
REMARK                            x       y       z     vdW  Elec       q    Type
REMARK                         _______ _______ _______ _____ _____    ______ ____
ROOT
ATOM      1  C   UNL     1       2.678   6.890  18.402  0.00  0.00    +0.000 A 
ATOM      2  C   UNL     1       2.375   6.876  19.767  0.00  0.00    +0.000 A 
ATOM      3  C   UNL     1       1.673   7.932  20.358  0.00  0.00    +0.000 A 
ATOM      4  C   UNL     1       1.292   9.049  19.606  0.00  0.00    +0.000 A 
ATOM      5  C   UNL     1       1.615   9.077  18.247  0.00  0.00    +0.000 A 
ATOM      6  C   UNL     1       2.288   8.004  17.646  0.00  0.00    +0.000 A 
ENDROOT
BRANCH   1  13
ATOM      7  C   UNL     1       1.478   4.019  18.011  0.00  0.00    +0.000 C 
ATOM      8  C   UNL     1       2.853   4.475  17.648  0.00  0.00    +0.000 A 
ATOM      9  C   UNL     1       3.814   3.704  17.023  0.00  0.00    +0.000 A 
ATOM     10  C   UNL     1       4.911   4.527  16.739  0.00  0.00    +0.000 A 
ATOM     11  C   UNL     1       4.628   5.792  17.218  0.00  0.00    +0.000 A 
ATOM     12  C   UNL     1       5.577   6.944  17.231  0.00  0.00    +0.000 C 
ATOM     13  N   UNL     1       3.347   5.778  17.785  0.00  0.00    +0.000 N 
ENDBRANCH   1  13
BRANCH   4  14
ATOM     14  C   UNL     1       0.570  10.152  20.239  0.00  0.00    +0.000 A 
ATOM     15  C   UNL     1      -0.565  10.851  19.742  0.00  0.00    +0.000 A 
ATOM     16  C   UNL     1      -0.863  11.797  20.696  0.00  0.00    +0.000 A 
ATOM     17  N   UNL     1       0.060  11.626  21.680  0.00  0.00    +0.000 N 
ATOM     18  N   UNL     1       0.947  10.654  21.427  0.00  0.00    +0.000 NA
ATOM     19  H   UNL     1       0.152  12.142  22.552  0.00  0.00    +0.000 HD
ENDBRANCH   4  14
TORSDOF 2
ENDMDL
MODEL 8
REMARK VINA RESULT:      -6.6      3.966      7.486
REMARK  Name = 
REMARK  4 active torsions:
REMARK  status: ('A' for Active; 'I' for Inactive)
REMARK    1  A    between atoms: C_1  and  C_2
REMARK    2  A    between atoms: C_5  and  C_6
REMARK    3  A    between atoms: N_7  and  C_8
REMARK    4  A    between atoms: C_11  and  C_12
REMARK                            x       y       z     vdW  Elec       q    Type
REMARK                         _______ _______ _______ _____ _____    ______ ____
ROOT
ATOM      1  C   UNL     1       2.608   6.884  18.428  0.00  0.00    +0.000 A 
ATOM      2  C   UNL     1       2.194   7.973  17.654  0.00  0.00    +0.000 A 
ATOM      3  C   UNL     1       1.559   9.073  18.242  0.00  0.00    +0.000 A 
ATOM      4  C   UNL     1       1.287   9.093  19.614  0.00  0.00    +0.000 A 
ATOM      5  C   UNL     1       1.678   7.996  20.386  0.00  0.00    +0.000 A 
ATOM      6  C   UNL     1       2.344   6.908  19.804  0.00  0.00    +0.000 A 
ENDROOT
BRANCH   1  13
ATOM      7  C   UNL     1       5.543   6.967  17.324  0.00  0.00    +0.000 C 
ATOM      8  C   UNL     1       4.600   5.810  17.283  0.00  0.00    +0.000 A 
ATOM      9  C   UNL     1       4.894   4.553  16.791  0.00  0.00    +0.000 A 
ATOM     10  C   UNL     1       3.800   3.719  17.050  0.00  0.00    +0.000 A 
ATOM     11  C   UNL     1       2.827   4.477  17.674  0.00  0.00    +0.000 A 
ATOM     12  C   UNL     1       1.452   4.009  18.016  0.00  0.00    +0.000 C 
ATOM     13  N   UNL     1       3.311   5.782  17.830  0.00  0.00    +0.000 N 
ENDBRANCH   1  13
BRANCH   4  14
ATOM     14  C   UNL     1       0.612  10.243  20.215  0.00  0.00    +0.000 A 
ATOM     15  C   UNL     1      -0.437  11.027  19.659  0.00  0.00    +0.000 A 
ATOM     16  C   UNL     1      -0.722  11.986  20.604  0.00  0.00    +0.000 A 
ATOM     17  N   UNL     1       0.126  11.741  21.640  0.00  0.00    +0.000 N 
ATOM     18  N   UNL     1       0.953  10.707  21.429  0.00  0.00    +0.000 NA
ATOM     19  H   UNL     1       0.204  12.243  22.522  0.00  0.00    +0.000 HD
ENDBRANCH   4  14
TORSDOF 2
ENDMDL
MODEL 9
REMARK VINA RESULT:      -6.6      3.958      7.429
REMARK  Name = 
REMARK  4 active torsions:
REMARK  status: ('A' for Active; 'I' for Inactive)
REMARK    1  A    between atoms: C_1  and  C_2
REMARK    2  A    between atoms: C_5  and  C_6
REMARK    3  A    between atoms: N_7  and  C_8
REMARK    4  A    between atoms: C_11  and  C_12
REMARK                            x       y       z     vdW  Elec       q    Type
REMARK                         _______ _______ _______ _____ _____    ______ ____
ROOT
ATOM      1  C   UNL     1       2.611   6.880  18.415  0.00  0.00    +0.000 A 
ATOM      2  C   UNL     1       2.183   7.967  17.645  0.00  0.00    +0.000 A 
ATOM      3  C   UNL     1       1.550   9.064  18.241  0.00  0.00    +0.000 A 
ATOM      4  C   UNL     1       1.294   9.083  19.616  0.00  0.00    +0.000 A 
ATOM      5  C   UNL     1       1.699   7.989  20.384  0.00  0.00    +0.000 A 
ATOM      6  C   UNL     1       2.364   6.904  19.794  0.00  0.00    +0.000 A 
ENDROOT
BRANCH   1  13
ATOM      7  C   UNL     1       1.469   3.990  17.990  0.00  0.00    +0.000 C 
ATOM      8  C   UNL     1       2.843   4.470  17.659  0.00  0.00    +0.000 A 
ATOM      9  C   UNL     1       3.830   3.718  17.052  0.00  0.00    +0.000 A 
ATOM     10  C   UNL     1       4.920   4.560  16.795  0.00  0.00    +0.000 A 
ATOM     11  C   UNL     1       4.605   5.818  17.272  0.00  0.00    +0.000 A 
ATOM     12  C   UNL     1       5.534   6.987  17.309  0.00  0.00    +0.000 C 
ATOM     13  N   UNL     1       3.313   5.781  17.810  0.00  0.00    +0.000 N 
ENDBRANCH   1  13
BRANCH   4  14
ATOM     14  C   UNL     1       0.620  10.230  20.224  0.00  0.00    +0.000 A 
ATOM     15  C   UNL     1      -0.396  11.047  19.655  0.00  0.00    +0.000 A 
ATOM     16  C   UNL     1      -0.694  11.988  20.615  0.00  0.00    +0.000 A 
ATOM     17  N   UNL     1       0.115  11.701  21.671  0.00  0.00    +0.000 N 
ATOM     18  N   UNL     1       0.929  10.657  21.460  0.00  0.00    +0.000 NA
ATOM     19  H   UNL     1       0.172  12.179  22.567  0.00  0.00    +0.000 HD
ENDBRANCH   4  14
TORSDOF 2
ENDMDL
