MODEL 1
REMARK VINA RESULT:      -6.1      0.000      0.000
REMARK  Name = 
REMARK  5 active torsions:
REMARK  status: ('A' for Active; 'I' for Inactive)
REMARK    1  A    between atoms: C_1  and  C_2
REMARK    2  A    between atoms: C_2  and  S_3
REMARK    3  A    between atoms: S_3  and  C_4
REMARK    4  A    between atoms: C_4  and  C_5
REMARK    5  A    between atoms: C_5  and  C_6
REMARK                            x       y       z     vdW  Elec       q    Type
REMARK                         _______ _______ _______ _____ _____    ______ ____
ROOT
ATOM      1  C   UNL     1       3.911   4.958  18.393  0.00  0.00    +0.000 A 
ATOM      2  C   UNL     1       4.652   5.033  19.556  0.00  0.00    +0.000 A 
ATOM      3  N   UNL     1       5.975   4.896  19.240  0.00  0.00    +0.000 N 
ATOM      4  C   UNL     1       6.123   4.732  17.882  0.00  0.00    +0.000 A 
ATOM      5  C   UNL     1       7.285   4.559  17.118  0.00  0.00    +0.000 A 
ATOM      6  C   UNL     1       7.132   4.419  15.737  0.00  0.00    +0.000 A 
ATOM      7  C   UNL     1       5.871   4.462  15.157  0.00  0.00    +0.000 A 
ATOM      8  F   UNL     1       5.754   4.323  13.831  0.00  0.00    +0.000 F 
ATOM      9  C   UNL     1       4.721   4.645  15.924  0.00  0.00    +0.000 A 
ATOM     10  C   UNL     1       4.845   4.775  17.321  0.00  0.00    +0.000 A 
ATOM     11  H   UNL     1       6.738   4.920  19.901  0.00  0.00    +0.000 HD
ENDROOT
BRANCH   1  12
ATOM     12  C   UNL     1       2.422   5.092  18.286  0.00  0.00    +0.000 C 
BRANCH  12  13
ATOM     13  C   UNL     1       1.730   3.828  17.769  0.00  0.00    +0.000 C 
BRANCH  13  14
ATOM     14  S   UNL     1       1.994   2.479  18.968  0.00  0.00    +0.000 S 
BRANCH  14  16
ATOM     15  C   UNL     1       2.032   3.174  21.594  0.00  0.00    +0.000 C 
ATOM     16  C   UNL     1       1.101   3.168  20.393  0.00  0.00    +0.000 C 
ENDBRANCH  14  16
ENDBRANCH  13  14
ENDBRANCH  12  13
ENDBRANCH   1  12
TORSDOF 4
ENDMDL
MODEL 2
REMARK VINA RESULT:      -6.1      2.978      5.675
REMARK  Name = 
REMARK  5 active torsions:
REMARK  status: ('A' for Active; 'I' for Inactive)
REMARK    1  A    between atoms: C_1  and  C_2
REMARK    2  A    between atoms: C_2  and  S_3
REMARK    3  A    between atoms: S_3  and  C_4
REMARK    4  A    between atoms: C_4  and  C_5
REMARK    5  A    between atoms: C_5  and  C_6
REMARK                            x       y       z     vdW  Elec       q    Type
REMARK                         _______ _______ _______ _____ _____    ______ ____
ROOT
ATOM      1  C   UNL     1       4.100   4.780  17.831  0.00  0.00    +0.000 A 
ATOM      2  C   UNL     1       4.647   5.643  18.762  0.00  0.00    +0.000 A 
ATOM      3  N   UNL     1       3.896   5.587  19.902  0.00  0.00    +0.000 N 
ATOM      4  C   UNL     1       2.858   4.696  19.744  0.00  0.00    +0.000 A 
ATOM      5  C   UNL     1       1.850   4.320  20.641  0.00  0.00    +0.000 A 
ATOM      6  C   UNL     1       0.917   3.377  20.203  0.00  0.00    +0.000 A 
ATOM      7  C   UNL     1       1.006   2.835  18.928  0.00  0.00    +0.000 A 
ATOM      8  F   UNL     1       0.097   1.935  18.533  0.00  0.00    +0.000 F 
ATOM      9  C   UNL     1       2.019   3.208  18.045  0.00  0.00    +0.000 A 
ATOM     10  C   UNL     1       2.965   4.167  18.456  0.00  0.00    +0.000 A 
ATOM     11  H   UNL     1       4.076   6.112  20.746  0.00  0.00    +0.000 HD
ENDROOT
BRANCH   1  12
ATOM     12  C   UNL     1       4.634   4.514  16.456  0.00  0.00    +0.000 C 
BRANCH  12  13
ATOM     13  C   UNL     1       5.527   5.636  15.919  0.00  0.00    +0.000 C 
BRANCH  13  14
ATOM     14  S   UNL     1       6.911   4.893  14.991  0.00  0.00    +0.000 S 
BRANCH  14  16
ATOM     15  C   UNL     1       6.447   3.731  12.580  0.00  0.00    +0.000 C 
ATOM     16  C   UNL     1       5.994   3.655  14.029  0.00  0.00    +0.000 C 
ENDBRANCH  14  16
ENDBRANCH  13  14
ENDBRANCH  12  13
ENDBRANCH   1  12
TORSDOF 4
ENDMDL
MODEL 3
REMARK VINA RESULT:      -6.1      2.931      5.407
REMARK  Name = 
REMARK  5 active torsions:
REMARK  status: ('A' for Active; 'I' for Inactive)
REMARK    1  A    between atoms: C_1  and  C_2
REMARK    2  A    between atoms: C_2  and  S_3
REMARK    3  A    between atoms: S_3  and  C_4
REMARK    4  A    between atoms: C_4  and  C_5
REMARK    5  A    between atoms: C_5  and  C_6
REMARK                            x       y       z     vdW  Elec       q    Type
REMARK                         _______ _______ _______ _____ _____    ______ ____
ROOT
ATOM      1  C   UNL     1       3.740   5.119  17.976  0.00  0.00    +0.000 A 
ATOM      2  C   UNL     1       4.108   6.036  18.942  0.00  0.00    +0.000 A 
ATOM      3  N   UNL     1       3.335   5.833  20.052  0.00  0.00    +0.000 N 
ATOM      4  C   UNL     1       2.460   4.793  19.837  0.00  0.00    +0.000 A 
ATOM      5  C   UNL     1       1.493   4.240  20.687  0.00  0.00    +0.000 A 
ATOM      6  C   UNL     1       0.739   3.172  20.195  0.00  0.00    +0.000 A 
ATOM      7  C   UNL     1       0.959   2.682  18.915  0.00  0.00    +0.000 A 
ATOM      8  F   UNL     1       0.219   1.659  18.469  0.00  0.00    +0.000 F 
ATOM      9  C   UNL     1       1.930   3.232  18.079  0.00  0.00    +0.000 A 
ATOM     10  C   UNL     1       2.695   4.319  18.544  0.00  0.00    +0.000 A 
ATOM     11  H   UNL     1       3.400   6.360  20.912  0.00  0.00    +0.000 HD
ENDROOT
BRANCH   1  12
ATOM     12  C   UNL     1       4.357   4.975  16.618  0.00  0.00    +0.000 C 
BRANCH  12  13
ATOM     13  C   UNL     1       5.579   4.052  16.596  0.00  0.00    +0.000 C 
BRANCH  13  14
ATOM     14  S   UNL     1       7.043   5.023  16.107  0.00  0.00    +0.000 S 
BRANCH  14  16
ATOM     15  C   UNL     1       7.579   7.236  17.588  0.00  0.00    +0.000 C 
ATOM     16  C   UNL     1       7.487   5.726  17.723  0.00  0.00    +0.000 C 
ENDBRANCH  14  16
ENDBRANCH  13  14
ENDBRANCH  12  13
ENDBRANCH   1  12
TORSDOF 4
ENDMDL
MODEL 4
REMARK VINA RESULT:      -6.0      3.336      5.767
REMARK  Name = 
REMARK  5 active torsions:
REMARK  status: ('A' for Active; 'I' for Inactive)
REMARK    1  A    between atoms: C_1  and  C_2
REMARK    2  A    between atoms: C_2  and  S_3
REMARK    3  A    between atoms: S_3  and  C_4
REMARK    4  A    between atoms: C_4  and  C_5
REMARK    5  A    between atoms: C_5  and  C_6
REMARK                            x       y       z     vdW  Elec       q    Type
REMARK                         _______ _______ _______ _____ _____    ______ ____
ROOT
ATOM      1  C   UNL     1       3.702   3.246  17.596  0.00  0.00    +0.000 A 
ATOM      2  C   UNL     1       3.567   1.871  17.571  0.00  0.00    +0.000 A 
ATOM      3  N   UNL     1       2.735   1.497  18.590  0.00  0.00    +0.000 N 
ATOM      4  C   UNL     1       2.314   2.605  19.289  0.00  0.00    +0.000 A 
ATOM      5  C   UNL     1       1.461   2.699  20.397  0.00  0.00    +0.000 A 
ATOM      6  C   UNL     1       1.204   3.975  20.904  0.00  0.00    +0.000 A 
ATOM      7  C   UNL     1       1.770   5.097  20.316  0.00  0.00    +0.000 A 
ATOM      8  F   UNL     1       1.508   6.307  20.824  0.00  0.00    +0.000 F 
ATOM      9  C   UNL     1       2.610   4.995  19.207  0.00  0.00    +0.000 A 
ATOM     10  C   UNL     1       2.898   3.719  18.683  0.00  0.00    +0.000 A 
ATOM     11  H   UNL     1       2.458   0.548  18.798  0.00  0.00    +0.000 HD
ENDROOT
BRANCH   1  12
ATOM     12  C   UNL     1       4.502   4.070  16.632  0.00  0.00    +0.000 C 
BRANCH  12  13
ATOM     13  C   UNL     1       5.841   4.548  17.201  0.00  0.00    +0.000 C 
BRANCH  13  14
ATOM     14  S   UNL     1       5.760   6.352  17.460  0.00  0.00    +0.000 S 
BRANCH  14  16
ATOM     15  C   UNL     1       7.838   8.093  17.629  0.00  0.00    +0.000 C 
ATOM     16  C   UNL     1       7.478   6.656  17.968  0.00  0.00    +0.000 C 
ENDBRANCH  14  16
ENDBRANCH  13  14
ENDBRANCH  12  13
ENDBRANCH   1  12
TORSDOF 4
ENDMDL
MODEL 5
REMARK VINA RESULT:      -6.0      0.977      1.060
REMARK  Name = 
REMARK  5 active torsions:
REMARK  status: ('A' for Active; 'I' for Inactive)
REMARK    1  A    between atoms: C_1  and  C_2
REMARK    2  A    between atoms: C_2  and  S_3
REMARK    3  A    between atoms: S_3  and  C_4
REMARK    4  A    between atoms: C_4  and  C_5
REMARK    5  A    between atoms: C_5  and  C_6
REMARK                            x       y       z     vdW  Elec       q    Type
REMARK                         _______ _______ _______ _____ _____    ______ ____
ROOT
ATOM      1  C   UNL     1       4.075   3.565  18.134  0.00  0.00    +0.000 A 
ATOM      2  C   UNL     1       4.784   3.707  19.312  0.00  0.00    +0.000 A 
ATOM      3  N   UNL     1       6.049   4.128  19.011  0.00  0.00    +0.000 N 
ATOM      4  C   UNL     1       6.191   4.270  17.649  0.00  0.00    +0.000 A 
ATOM      5  C   UNL     1       7.301   4.677  16.898  0.00  0.00    +0.000 A 
ATOM      6  C   UNL     1       7.154   4.732  15.510  0.00  0.00    +0.000 A 
ATOM      7  C   UNL     1       5.943   4.404  14.915  0.00  0.00    +0.000 A 
ATOM      8  F   UNL     1       5.831   4.464  13.582  0.00  0.00    +0.000 F 
ATOM      9  C   UNL     1       4.840   4.010  15.671  0.00  0.00    +0.000 A 
ATOM     10  C   UNL     1       4.965   3.932  17.072  0.00  0.00    +0.000 A 
ATOM     11  H   UNL     1       6.776   4.318  19.686  0.00  0.00    +0.000 HD
ENDROOT
BRANCH   1  12
ATOM     12  C   UNL     1       2.639   3.152  18.013  0.00  0.00    +0.000 C 
BRANCH  12  13
ATOM     13  C   UNL     1       1.654   4.315  18.161  0.00  0.00    +0.000 C 
BRANCH  13  14
ATOM     14  S   UNL     1       1.281   4.549  19.932  0.00  0.00    +0.000 S 
BRANCH  14  16
ATOM     15  C   UNL     1       2.057   2.650  21.711  0.00  0.00    +0.000 C 
ATOM     16  C   UNL     1       1.218   2.811  20.455  0.00  0.00    +0.000 C 
ENDBRANCH  14  16
ENDBRANCH  13  14
ENDBRANCH  12  13
ENDBRANCH   1  12
TORSDOF 4
ENDMDL
MODEL 6
REMARK VINA RESULT:      -5.9      2.975      5.342
REMARK  Name = 
REMARK  5 active torsions:
REMARK  status: ('A' for Active; 'I' for Inactive)
REMARK    1  A    between atoms: C_1  and  C_2
REMARK    2  A    between atoms: C_2  and  S_3
REMARK    3  A    between atoms: S_3  and  C_4
REMARK    4  A    between atoms: C_4  and  C_5
REMARK    5  A    between atoms: C_5  and  C_6
REMARK                            x       y       z     vdW  Elec       q    Type
REMARK                         _______ _______ _______ _____ _____    ______ ____
ROOT
ATOM      1  C   UNL     1       3.979   5.411  17.389  0.00  0.00    +0.000 A 
ATOM      2  C   UNL     1       3.837   6.717  17.817  0.00  0.00    +0.000 A 
ATOM      3  N   UNL     1       2.956   6.739  18.863  0.00  0.00    +0.000 N 
ATOM      4  C   UNL     1       2.512   5.465  19.136  0.00  0.00    +0.000 A 
ATOM      5  C   UNL     1       1.614   5.015  20.113  0.00  0.00    +0.000 A 
ATOM      6  C   UNL     1       1.349   3.645  20.162  0.00  0.00    +0.000 A 
ATOM      7  C   UNL     1       1.968   2.773  19.275  0.00  0.00    +0.000 A 
ATOM      8  F   UNL     1       1.693   1.465  19.342  0.00  0.00    +0.000 F 
ATOM      9  C   UNL     1       2.868   3.229  18.313  0.00  0.00    +0.000 A 
ATOM     10  C   UNL     1       3.144   4.607  18.232  0.00  0.00    +0.000 A 
ATOM     11  H   UNL     1       2.675   7.565  19.371  0.00  0.00    +0.000 HD
ENDROOT
BRANCH   1  12
ATOM     12  C   UNL     1       4.875   4.938  16.284  0.00  0.00    +0.000 C 
BRANCH  12  13
ATOM     13  C   UNL     1       6.283   5.537  16.341  0.00  0.00    +0.000 C 
BRANCH  13  14
ATOM     14  S   UNL     1       7.177   4.809  17.756  0.00  0.00    +0.000 S 
BRANCH  14  16
ATOM     15  C   UNL     1       7.552   7.494  17.592  0.00  0.00    +0.000 C 
ATOM     16  C   UNL     1       7.771   6.332  18.547  0.00  0.00    +0.000 C 
ENDBRANCH  14  16
ENDBRANCH  13  14
ENDBRANCH  12  13
ENDBRANCH   1  12
TORSDOF 4
ENDMDL
MODEL 7
REMARK VINA RESULT:      -5.9      2.219      3.227
REMARK  Name = 
REMARK  5 active torsions:
REMARK  status: ('A' for Active; 'I' for Inactive)
REMARK    1  A    between atoms: C_1  and  C_2
REMARK    2  A    between atoms: C_2  and  S_3
REMARK    3  A    between atoms: S_3  and  C_4
REMARK    4  A    between atoms: C_4  and  C_5
REMARK    5  A    between atoms: C_5  and  C_6
REMARK                            x       y       z     vdW  Elec       q    Type
REMARK                         _______ _______ _______ _____ _____    ______ ____
ROOT
ATOM      1  C   UNL     1       5.591   4.630  15.932  0.00  0.00    +0.000 A 
ATOM      2  C   UNL     1       6.599   5.466  16.373  0.00  0.00    +0.000 A 
ATOM      3  N   UNL     1       7.483   5.661  15.348  0.00  0.00    +0.000 N 
ATOM      4  C   UNL     1       7.074   4.967  14.231  0.00  0.00    +0.000 A 
ATOM      5  C   UNL     1       7.663   4.877  12.963  0.00  0.00    +0.000 A 
ATOM      6  C   UNL     1       7.015   4.090  12.008  0.00  0.00    +0.000 A 
ATOM      7  C   UNL     1       5.830   3.437  12.316  0.00  0.00    +0.000 A 
ATOM      8  F   UNL     1       5.232   2.686  11.382  0.00  0.00    +0.000 F 
ATOM      9  C   UNL     1       5.246   3.540  13.579  0.00  0.00    +0.000 A 
ATOM     10  C   UNL     1       5.885   4.316  14.565  0.00  0.00    +0.000 A 
ATOM     11  H   UNL     1       8.311   6.237  15.393  0.00  0.00    +0.000 HD
ENDROOT
BRANCH   1  12
ATOM     12  C   UNL     1       4.403   4.186  16.731  0.00  0.00    +0.000 C 
BRANCH  12  13
ATOM     13  C   UNL     1       4.719   3.932  18.208  0.00  0.00    +0.000 C 
BRANCH  13  14
ATOM     14  S   UNL     1       3.639   2.595  18.819  0.00  0.00    +0.000 S 
BRANCH  14  16
ATOM     15  C   UNL     1       0.927   2.440  18.773  0.00  0.00    +0.000 C 
ATOM     16  C   UNL     1       2.081   3.081  18.020  0.00  0.00    +0.000 C 
ENDBRANCH  14  16
ENDBRANCH  13  14
ENDBRANCH  12  13
ENDBRANCH   1  12
TORSDOF 4
ENDMDL
MODEL 8
REMARK VINA RESULT:      -5.9      2.699      5.050
REMARK  Name = 
REMARK  5 active torsions:
REMARK  status: ('A' for Active; 'I' for Inactive)
REMARK    1  A    between atoms: C_1  and  C_2
REMARK    2  A    between atoms: C_2  and  S_3
REMARK    3  A    between atoms: S_3  and  C_4
REMARK    4  A    between atoms: C_4  and  C_5
REMARK    5  A    between atoms: C_5  and  C_6
REMARK                            x       y       z     vdW  Elec       q    Type
REMARK                         _______ _______ _______ _____ _____    ______ ____
ROOT
ATOM      1  C   UNL     1       2.941   6.416  18.614  0.00  0.00    +0.000 A 
ATOM      2  C   UNL     1       2.500   7.023  19.774  0.00  0.00    +0.000 A 
ATOM      3  N   UNL     1       1.831   6.096  20.523  0.00  0.00    +0.000 N 
ATOM      4  C   UNL     1       1.823   4.880  19.878  0.00  0.00    +0.000 A 
ATOM      5  C   UNL     1       1.262   3.658  20.269  0.00  0.00    +0.000 A 
ATOM      6  C   UNL     1       1.414   2.573  19.402  0.00  0.00    +0.000 A 
ATOM      7  C   UNL     1       2.106   2.716  18.207  0.00  0.00    +0.000 A 
ATOM      8  F   UNL     1       2.234   1.660  17.394  0.00  0.00    +0.000 F 
ATOM      9  C   UNL     1       2.670   3.934  17.830  0.00  0.00    +0.000 A 
ATOM     10  C   UNL     1       2.520   5.048  18.679  0.00  0.00    +0.000 A 
ATOM     11  H   UNL     1       1.409   6.269  21.425  0.00  0.00    +0.000 HD
ENDROOT
BRANCH   1  12
ATOM     12  C   UNL     1       3.745   7.067  17.529  0.00  0.00    +0.000 C 
BRANCH  12  13
ATOM     13  C   UNL     1       5.181   6.545  17.434  0.00  0.00    +0.000 C 
BRANCH  13  14
ATOM     14  S   UNL     1       5.409   5.741  15.812  0.00  0.00    +0.000 S 
BRANCH  14  16
ATOM     15  C   UNL     1       7.141   4.733  17.646  0.00  0.00    +0.000 C 
ATOM     16  C   UNL     1       6.952   4.839  16.142  0.00  0.00    +0.000 C 
ENDBRANCH  14  16
ENDBRANCH  13  14
ENDBRANCH  12  13
ENDBRANCH   1  12
TORSDOF 4
ENDMDL
MODEL 9
REMARK VINA RESULT:      -5.9      2.278      3.174
REMARK  Name = 
REMARK  5 active torsions:
REMARK  status: ('A' for Active; 'I' for Inactive)
REMARK    1  A    between atoms: C_1  and  C_2
REMARK    2  A    between atoms: C_2  and  S_3
REMARK    3  A    between atoms: S_3  and  C_4
REMARK    4  A    between atoms: C_4  and  C_5
REMARK    5  A    between atoms: C_5  and  C_6
REMARK                            x       y       z     vdW  Elec       q    Type
REMARK                         _______ _______ _______ _____ _____    ______ ____
ROOT
ATOM      1  C   UNL     1       5.553   4.586  15.904  0.00  0.00    +0.000 A 
ATOM      2  C   UNL     1       6.522   5.460  16.357  0.00  0.00    +0.000 A 
ATOM      3  N   UNL     1       7.414   5.684  15.346  0.00  0.00    +0.000 N 
ATOM      4  C   UNL     1       7.050   4.972  14.226  0.00  0.00    +0.000 A 
ATOM      5  C   UNL     1       7.661   4.901  12.967  0.00  0.00    +0.000 A 
ATOM      6  C   UNL     1       7.059   4.087  12.005  0.00  0.00    +0.000 A 
ATOM      7  C   UNL     1       5.894   3.391  12.296  0.00  0.00    +0.000 A 
ATOM      8  F   UNL     1       5.339   2.617  11.355  0.00  0.00    +0.000 F 
ATOM      9  C   UNL     1       5.286   3.477  13.548  0.00  0.00    +0.000 A 
ATOM     10  C   UNL     1       5.880   4.279  14.543  0.00  0.00    +0.000 A 
ATOM     11  H   UNL     1       8.219   6.291  15.403  0.00  0.00    +0.000 HD
ENDROOT
BRANCH   1  12
ATOM     12  C   UNL     1       4.369   4.100  16.685  0.00  0.00    +0.000 C 
BRANCH  12  13
ATOM     13  C   UNL     1       4.083   4.928  17.940  0.00  0.00    +0.000 C 
BRANCH  13  14
ATOM     14  S   UNL     1       2.278   5.027  18.182  0.00  0.00    +0.000 S 
BRANCH  14  16
ATOM     15  C   UNL     1       1.097   4.190  20.481  0.00  0.00    +0.000 C 
ATOM     16  C   UNL     1       2.224   5.088  19.997  0.00  0.00    +0.000 C 
ENDBRANCH  14  16
ENDBRANCH  13  14
ENDBRANCH  12  13
ENDBRANCH   1  12
TORSDOF 4
ENDMDL
