MODEL 1
REMARK VINA RESULT:      -7.3      0.000      0.000
REMARK  Name = 
REMARK  5 active torsions:
REMARK  status: ('A' for Active; 'I' for Inactive)
REMARK    1  A    between atoms: C_2  and  O_3
REMARK    2  A    between atoms: C_2  and  C_4
REMARK    3  A    between atoms: C_4  and  N_5
REMARK    4  A    between atoms: N_7  and  C_8
REMARK    5  A    between atoms: C_8  and  C_9
REMARK                            x       y       z     vdW  Elec       q    Type
REMARK                         _______ _______ _______ _____ _____    ______ ____
ROOT
ATOM      1  N   UNL     1      -0.563  10.740  19.406  0.00  0.00    +0.000 N 
ATOM      2  C   UNL     1      -1.259  10.858  20.698  0.00  0.00    +0.000 C 
ATOM      3  N   UNL     1      -0.348  10.803  21.833  0.00  0.00    +0.000 NA
ATOM      4  S   UNL     1       0.397   9.283  21.910  0.00  0.00    +0.000 S 
ATOM      5  O   UNL     1       1.549   9.407  22.769  0.00  0.00    +0.000 OA
ATOM      6  O   UNL     1      -0.635   8.295  22.170  0.00  0.00    +0.000 OA
ATOM      7  C   UNL     1       0.951   9.009  20.270  0.00  0.00    +0.000 A 
ATOM      8  C   UNL     1       1.863   7.956  20.086  0.00  0.00    +0.000 A 
ATOM      9  C   UNL     1       2.339   7.697  18.815  0.00  0.00    +0.000 A 
ATOM     10 BR   UNL     1       3.451   6.202  18.501  0.00  0.00    +0.000 Br
ATOM     11  C   UNL     1       1.974   8.524  17.766  0.00  0.00    +0.000 A 
ATOM     12  C   UNL     1       1.074   9.585  17.985  0.00  0.00    +0.000 A 
ATOM     13  C   UNL     1       0.474   9.825  19.236  0.00  0.00    +0.000 A 
ENDROOT
BRANCH   1  14
ATOM     14  C   UNL     1      -0.788  11.871  18.459  0.00  0.00    +0.000 C 
BRANCH  14  16
ATOM     15  O   UNL     1      -3.208  11.762  18.214  0.00  0.00    +0.000 OA
ATOM     16  C   UNL     1      -2.105  11.745  17.684  0.00  0.00    +0.000 C 
BRANCH  16  17
ATOM     17  O   UNL     1      -1.945  11.651  16.346  0.00  0.00    +0.000 OA
ATOM     18  H   UNL     1      -2.439  12.362  15.885  0.00  0.00    +0.000 HD
ENDBRANCH  16  17
ENDBRANCH  14  16
ENDBRANCH   1  14
BRANCH   3  19
ATOM     19  C   UNL     1      -1.017  11.102  23.136  0.00  0.00    +0.000 C 
BRANCH  19  20
ATOM     20  C   UNL     1      -1.864  12.355  23.175  0.00  0.00    +0.000 A 
ATOM     21  C   UNL     1      -3.239  12.285  23.437  0.00  0.00    +0.000 A 
ATOM     22  C   UNL     1      -4.032  13.418  23.273  0.00  0.00    +0.000 A 
ATOM     23  F   UNL     1      -5.358  13.319  23.436  0.00  0.00    +0.000 F 
ATOM     24  C   UNL     1      -3.463  14.639  22.917  0.00  0.00    +0.000 A 
ATOM     25  F   UNL     1      -4.237  15.717  22.737  0.00  0.00    +0.000 F 
ATOM     26  C   UNL     1      -2.091  14.749  22.746  0.00  0.00    +0.000 A 
ATOM     27  C   UNL     1      -1.308  13.604  22.861  0.00  0.00    +0.000 A 
ATOM     28  F   UNL     1       0.014  13.710  22.662  0.00  0.00    +0.000 F 
ENDBRANCH  19  20
ENDBRANCH   3  19
TORSDOF 5
ENDMDL
MODEL 2
REMARK VINA RESULT:      -7.2      4.273      7.208
REMARK  Name = 
REMARK  5 active torsions:
REMARK  status: ('A' for Active; 'I' for Inactive)
REMARK    1  A    between atoms: C_2  and  O_3
REMARK    2  A    between atoms: C_2  and  C_4
REMARK    3  A    between atoms: C_4  and  N_5
REMARK    4  A    between atoms: N_7  and  C_8
REMARK    5  A    between atoms: C_8  and  C_9
REMARK                            x       y       z     vdW  Elec       q    Type
REMARK                         _______ _______ _______ _____ _____    ______ ____
ROOT
ATOM      1  N   UNL     1      -1.413  10.598  18.249  0.00  0.00    +0.000 N 
ATOM      2  C   UNL     1      -0.019  10.171  18.043  0.00  0.00    +0.000 C 
ATOM      3  N   UNL     1       0.658   9.847  19.291  0.00  0.00    +0.000 NA
ATOM      4  S   UNL     1       0.797  11.233  20.256  0.00  0.00    +0.000 S 
ATOM      5  O   UNL     1       1.094  10.798  21.600  0.00  0.00    +0.000 OA
ATOM      6  O   UNL     1       1.655  12.175  19.561  0.00  0.00    +0.000 OA
ATOM      7  C   UNL     1      -0.817  11.916  20.235  0.00  0.00    +0.000 A 
ATOM      8  C   UNL     1      -1.085  12.916  21.185  0.00  0.00    +0.000 A 
ATOM      9  C   UNL     1      -2.344  13.487  21.219  0.00  0.00    +0.000 A 
ATOM     10 BR   UNL     1      -2.701  14.933  22.381  0.00  0.00    +0.000 Br
ATOM     11  C   UNL     1      -3.334  13.010  20.376  0.00  0.00    +0.000 A 
ATOM     12  C   UNL     1      -3.041  11.993  19.449  0.00  0.00    +0.000 A 
ATOM     13  C   UNL     1      -1.749  11.454  19.296  0.00  0.00    +0.000 A 
ENDROOT
BRANCH   1  14
ATOM     14  C   UNL     1      -2.437   9.793  17.522  0.00  0.00    +0.000 C 
BRANCH  14  16
ATOM     15  O   UNL     1      -2.697   9.469  15.122  0.00  0.00    +0.000 OA
ATOM     16  C   UNL     1      -2.625  10.243  16.067  0.00  0.00    +0.000 C 
BRANCH  16  17
ATOM     17  O   UNL     1      -2.744  11.580  15.920  0.00  0.00    +0.000 OA
ATOM     18  H   UNL     1      -3.171  11.981  16.708  0.00  0.00    +0.000 HD
ENDBRANCH  16  17
ENDBRANCH  14  16
ENDBRANCH   1  14
BRANCH   3  19
ATOM     19  C   UNL     1       2.009   9.241  19.083  0.00  0.00    +0.000 C 
BRANCH  19  20
ATOM     20  C   UNL     1       2.100   7.742  19.265  0.00  0.00    +0.000 A 
ATOM     21  C   UNL     1       2.488   6.912  18.205  0.00  0.00    +0.000 A 
ATOM     22  C   UNL     1       2.374   5.530  18.333  0.00  0.00    +0.000 A 
ATOM     23  F   UNL     1       2.659   4.750  17.282  0.00  0.00    +0.000 F 
ATOM     24  C   UNL     1       1.942   4.959  19.528  0.00  0.00    +0.000 A 
ATOM     25  F   UNL     1       1.811   3.630  19.632  0.00  0.00    +0.000 F 
ATOM     26  C   UNL     1       1.644   5.762  20.619  0.00  0.00    +0.000 A 
ATOM     27  C   UNL     1       1.710   7.144  20.472  0.00  0.00    +0.000 A 
ATOM     28  F   UNL     1       1.389   7.915  21.522  0.00  0.00    +0.000 F 
ENDBRANCH  19  20
ENDBRANCH   3  19
TORSDOF 5
ENDMDL
MODEL 3
REMARK VINA RESULT:      -7.2      4.265      7.081
REMARK  Name = 
REMARK  5 active torsions:
REMARK  status: ('A' for Active; 'I' for Inactive)
REMARK    1  A    between atoms: C_2  and  O_3
REMARK    2  A    between atoms: C_2  and  C_4
REMARK    3  A    between atoms: C_4  and  N_5
REMARK    4  A    between atoms: N_7  and  C_8
REMARK    5  A    between atoms: C_8  and  C_9
REMARK                            x       y       z     vdW  Elec       q    Type
REMARK                         _______ _______ _______ _____ _____    ______ ____
ROOT
ATOM      1  N   UNL     1      -2.969  11.140  17.716  0.00  0.00    +0.000 N 
ATOM      2  C   UNL     1      -1.549  11.410  17.995  0.00  0.00    +0.000 C 
ATOM      3  N   UNL     1      -1.218  11.272  19.406  0.00  0.00    +0.000 NA
ATOM      4  S   UNL     1      -2.039  12.444  20.314  0.00  0.00    +0.000 S 
ATOM      5  O   UNL     1      -2.004  12.027  21.695  0.00  0.00    +0.000 OA
ATOM      6  O   UNL     1      -1.547  13.747  19.907  0.00  0.00    +0.000 OA
ATOM      7  C   UNL     1      -3.691  12.331  19.740  0.00  0.00    +0.000 A 
ATOM      8  C   UNL     1      -4.668  12.981  20.513  0.00  0.00    +0.000 A 
ATOM      9  C   UNL     1      -5.989  12.921  20.112  0.00  0.00    +0.000 A 
ATOM     10 BR   UNL     1      -7.311  13.901  21.040  0.00  0.00    +0.000 Br
ATOM     11  C   UNL     1      -6.334  12.159  19.008  0.00  0.00    +0.000 A 
ATOM     12  C   UNL     1      -5.336  11.502  18.264  0.00  0.00    +0.000 A 
ATOM     13  C   UNL     1      -3.965  11.620  18.564  0.00  0.00    +0.000 A 
ENDROOT
BRANCH   1  14
ATOM     14  C   UNL     1      -3.226  10.058  16.721  0.00  0.00    +0.000 C 
BRANCH  14  16
ATOM     15  O   UNL     1      -2.786   9.858  14.334  0.00  0.00    +0.000 OA
ATOM     16  C   UNL     1      -3.155  10.554  15.271  0.00  0.00    +0.000 C 
BRANCH  16  17
ATOM     17  O   UNL     1      -3.575  11.826  15.108  0.00  0.00    +0.000 OA
ATOM     18  H   UNL     1      -3.409  12.134  14.191  0.00  0.00    +0.000 HD
ENDBRANCH  16  17
ENDBRANCH  14  16
ENDBRANCH   1  14
BRANCH   3  19
ATOM     19  C   UNL     1       0.249  11.364  19.676  0.00  0.00    +0.000 C 
BRANCH  19  20
ATOM     20  C   UNL     1       1.024  10.068  19.584  0.00  0.00    +0.000 A 
ATOM     21  C   UNL     1       1.721   9.729  18.417  0.00  0.00    +0.000 A 
ATOM     22  C   UNL     1       2.259   8.452  18.281  0.00  0.00    +0.000 A 
ATOM     23  F   UNL     1       2.842   8.107  17.125  0.00  0.00    +0.000 F 
ATOM     24  C   UNL     1       2.171   7.528  19.320  0.00  0.00    +0.000 A 
ATOM     25  F   UNL     1       2.669   6.294  19.169  0.00  0.00    +0.000 F 
ATOM     26  C   UNL     1       1.567   7.878  20.518  0.00  0.00    +0.000 A 
ATOM     27  C   UNL     1       0.987   9.138  20.633  0.00  0.00    +0.000 A 
ATOM     28  F   UNL     1       0.376   9.458  21.783  0.00  0.00    +0.000 F 
ENDBRANCH  19  20
ENDBRANCH   3  19
TORSDOF 5
ENDMDL
MODEL 4
REMARK VINA RESULT:      -7.2      0.861      1.755
REMARK  Name = 
REMARK  5 active torsions:
REMARK  status: ('A' for Active; 'I' for Inactive)
REMARK    1  A    between atoms: C_2  and  O_3
REMARK    2  A    between atoms: C_2  and  C_4
REMARK    3  A    between atoms: C_4  and  N_5
REMARK    4  A    between atoms: N_7  and  C_8
REMARK    5  A    between atoms: C_8  and  C_9
REMARK                            x       y       z     vdW  Elec       q    Type
REMARK                         _______ _______ _______ _____ _____    ______ ____
ROOT
ATOM      1  N   UNL     1      -0.610  10.755  19.378  0.00  0.00    +0.000 N 
ATOM      2  C   UNL     1      -1.315  10.918  20.660  0.00  0.00    +0.000 C 
ATOM      3  N   UNL     1      -0.411  10.902  21.803  0.00  0.00    +0.000 NA
ATOM      4  S   UNL     1       0.331   9.385  21.937  0.00  0.00    +0.000 S 
ATOM      5  O   UNL     1       1.478   9.538  22.800  0.00  0.00    +0.000 OA
ATOM      6  O   UNL     1      -0.703   8.407  22.223  0.00  0.00    +0.000 OA
ATOM      7  C   UNL     1       0.896   9.054  20.312  0.00  0.00    +0.000 A 
ATOM      8  C   UNL     1       1.808   7.995  20.170  0.00  0.00    +0.000 A 
ATOM      9  C   UNL     1       2.293   7.691  18.912  0.00  0.00    +0.000 A 
ATOM     10 BR   UNL     1       3.406   6.186  18.657  0.00  0.00    +0.000 Br
ATOM     11  C   UNL     1       1.936   8.483  17.833  0.00  0.00    +0.000 A 
ATOM     12  C   UNL     1       1.035   9.551  18.009  0.00  0.00    +0.000 A 
ATOM     13  C   UNL     1       0.427   9.834  19.247  0.00  0.00    +0.000 A 
ENDROOT
BRANCH   1  14
ATOM     14  C   UNL     1      -0.827  11.854  18.392  0.00  0.00    +0.000 C 
BRANCH  14  16
ATOM     15  O   UNL     1      -3.251  11.755  18.178  0.00  0.00    +0.000 OA
ATOM     16  C   UNL     1      -2.155  11.720  17.635  0.00  0.00    +0.000 C 
BRANCH  16  17
ATOM     17  O   UNL     1      -2.012  11.597  16.298  0.00  0.00    +0.000 OA
ATOM     18  H   UNL     1      -1.319  10.936  16.081  0.00  0.00    +0.000 HD
ENDBRANCH  16  17
ENDBRANCH  14  16
ENDBRANCH   1  14
BRANCH   3  19
ATOM     19  C   UNL     1      -1.089  11.246  23.090  0.00  0.00    +0.000 C 
BRANCH  19  20
ATOM     20  C   UNL     1      -1.628  12.655  23.201  0.00  0.00    +0.000 A 
ATOM     21  C   UNL     1      -0.828  13.758  22.870  0.00  0.00    +0.000 A 
ATOM     22  C   UNL     1      -1.270  15.045  23.166  0.00  0.00    +0.000 A 
ATOM     23  F   UNL     1      -0.460  16.086  22.931  0.00  0.00    +0.000 F 
ATOM     24  C   UNL     1      -2.528  15.254  23.726  0.00  0.00    +0.000 A 
ATOM     25  F   UNL     1      -2.933  16.493  24.032  0.00  0.00    +0.000 F 
ATOM     26  C   UNL     1      -3.372  14.181  23.974  0.00  0.00    +0.000 A 
ATOM     27  C   UNL     1      -2.907  12.893  23.724  0.00  0.00    +0.000 A 
ATOM     28  F   UNL     1      -3.716  11.857  23.996  0.00  0.00    +0.000 F 
ENDBRANCH  19  20
ENDBRANCH   3  19
TORSDOF 5
ENDMDL
MODEL 5
REMARK VINA RESULT:      -7.1      1.179      1.319
REMARK  Name = 
REMARK  5 active torsions:
REMARK  status: ('A' for Active; 'I' for Inactive)
REMARK    1  A    between atoms: C_2  and  O_3
REMARK    2  A    between atoms: C_2  and  C_4
REMARK    3  A    between atoms: C_4  and  N_5
REMARK    4  A    between atoms: N_7  and  C_8
REMARK    5  A    between atoms: C_8  and  C_9
REMARK                            x       y       z     vdW  Elec       q    Type
REMARK                         _______ _______ _______ _____ _____    ______ ____
ROOT
ATOM      1  N   UNL     1      -0.361  10.835  19.350  0.00  0.00    +0.000 N 
ATOM      2  C   UNL     1      -1.118  10.959  20.606  0.00  0.00    +0.000 C 
ATOM      3  N   UNL     1      -0.274  10.823  21.785  0.00  0.00    +0.000 NA
ATOM      4  S   UNL     1       0.379   9.261  21.858  0.00  0.00    +0.000 S 
ATOM      5  O   UNL     1       1.488   9.296  22.780  0.00  0.00    +0.000 OA
ATOM      6  O   UNL     1      -0.719   8.328  22.034  0.00  0.00    +0.000 OA
ATOM      7  C   UNL     1       1.005   8.997  20.243  0.00  0.00    +0.000 A 
ATOM      8  C   UNL     1       1.865   7.899  20.077  0.00  0.00    +0.000 A 
ATOM      9  C   UNL     1       2.394   7.645  18.825  0.00  0.00    +0.000 A 
ATOM     10 BR   UNL     1       3.435   6.097  18.528  0.00  0.00    +0.000 Br
ATOM     11  C   UNL     1       2.133   8.520  17.783  0.00  0.00    +0.000 A 
ATOM     12  C   UNL     1       1.284   9.624  17.984  0.00  0.00    +0.000 A 
ATOM     13  C   UNL     1       0.632   9.866  19.208  0.00  0.00    +0.000 A 
ENDROOT
BRANCH   1  14
ATOM     14  C   UNL     1      -0.469  12.001  18.426  0.00  0.00    +0.000 C 
BRANCH  14  16
ATOM     15  O   UNL     1       0.999  13.586  19.550  0.00  0.00    +0.000 OA
ATOM     16  C   UNL     1      -0.111  13.331  19.102  0.00  0.00    +0.000 C 
BRANCH  16  17
ATOM     17  O   UNL     1      -1.126  14.221  19.128  0.00  0.00    +0.000 OA
ATOM     18  H   UNL     1      -1.856  13.936  18.537  0.00  0.00    +0.000 HD
ENDBRANCH  16  17
ENDBRANCH  14  16
ENDBRANCH   1  14
BRANCH   3  19
ATOM     19  C   UNL     1      -0.995  11.126  23.060  0.00  0.00    +0.000 C 
BRANCH  19  20
ATOM     20  C   UNL     1      -1.833  12.385  23.064  0.00  0.00    +0.000 A 
ATOM     21  C   UNL     1      -3.217  12.327  23.281  0.00  0.00    +0.000 A 
ATOM     22  C   UNL     1      -3.995  13.465  23.085  0.00  0.00    +0.000 A 
ATOM     23  F   UNL     1      -5.327  13.376  23.204  0.00  0.00    +0.000 F 
ATOM     24  C   UNL     1      -3.406  14.680  22.742  0.00  0.00    +0.000 A 
ATOM     25  F   UNL     1      -4.166  15.762  22.530  0.00  0.00    +0.000 F 
ATOM     26  C   UNL     1      -2.028  14.778  22.615  0.00  0.00    +0.000 A 
ATOM     27  C   UNL     1      -1.258  13.628  22.762  0.00  0.00    +0.000 A 
ATOM     28  F   UNL     1       0.071  13.724  22.606  0.00  0.00    +0.000 F 
ENDBRANCH  19  20
ENDBRANCH   3  19
TORSDOF 5
ENDMDL
MODEL 6
REMARK VINA RESULT:      -7.1      4.289      7.093
REMARK  Name = 
REMARK  5 active torsions:
REMARK  status: ('A' for Active; 'I' for Inactive)
REMARK    1  A    between atoms: C_2  and  O_3
REMARK    2  A    between atoms: C_2  and  C_4
REMARK    3  A    between atoms: C_4  and  N_5
REMARK    4  A    between atoms: N_7  and  C_8
REMARK    5  A    between atoms: C_8  and  C_9
REMARK                            x       y       z     vdW  Elec       q    Type
REMARK                         _______ _______ _______ _____ _____    ______ ____
ROOT
ATOM      1  N   UNL     1      -1.241  10.808  18.931  0.00  0.00    +0.000 N 
ATOM      2  C   UNL     1       0.140  10.315  19.068  0.00  0.00    +0.000 C 
ATOM      3  N   UNL     1       0.414   9.778  20.394  0.00  0.00    +0.000 NA
ATOM      4  S   UNL     1       0.304  11.007  21.555  0.00  0.00    +0.000 S 
ATOM      5  O   UNL     1       0.184  10.375  22.847  0.00  0.00    +0.000 OA
ATOM      6  O   UNL     1       1.355  11.972  21.282  0.00  0.00    +0.000 OA
ATOM      7  C   UNL     1      -1.212  11.800  21.178  0.00  0.00    +0.000 A 
ATOM      8  C   UNL     1      -1.717  12.679  22.152  0.00  0.00    +0.000 A 
ATOM      9  C   UNL     1      -2.914  13.328  21.912  0.00  0.00    +0.000 A 
ATOM     10 BR   UNL     1      -3.553  14.626  23.127  0.00  0.00    +0.000 Br
ATOM     11  C   UNL     1      -3.629  13.041  20.761  0.00  0.00    +0.000 A 
ATOM     12  C   UNL     1      -3.107  12.140  19.813  0.00  0.00    +0.000 A 
ATOM     13  C   UNL     1      -1.843  11.536  19.955  0.00  0.00    +0.000 A 
ENDROOT
BRANCH   1  14
ATOM     14  C   UNL     1      -2.031  10.183  17.830  0.00  0.00    +0.000 C 
BRANCH  14  16
ATOM     15  O   UNL     1      -2.843  10.811  15.622  0.00  0.00    +0.000 OA
ATOM     16  C   UNL     1      -2.189  11.105  16.614  0.00  0.00    +0.000 C 
BRANCH  16  17
ATOM     17  O   UNL     1      -1.569  12.296  16.747  0.00  0.00    +0.000 OA
ATOM     18  H   UNL     1      -0.662  12.262  16.374  0.00  0.00    +0.000 HD
ENDBRANCH  16  17
ENDBRANCH  14  16
ENDBRANCH   1  14
BRANCH   3  19
ATOM     19  C   UNL     1       1.749   9.112  20.491  0.00  0.00    +0.000 C 
BRANCH  19  20
ATOM     20  C   UNL     1       1.821   7.692  19.975  0.00  0.00    +0.000 A 
ATOM     21  C   UNL     1       1.432   6.614  20.782  0.00  0.00    +0.000 A 
ATOM     22  C   UNL     1       1.691   5.311  20.364  0.00  0.00    +0.000 A 
ATOM     23  F   UNL     1       1.400   4.291  21.183  0.00  0.00    +0.000 F 
ATOM     24  C   UNL     1       2.273   5.063  19.123  0.00  0.00    +0.000 A 
ATOM     25  F   UNL     1       2.543   3.808  18.742  0.00  0.00    +0.000 F 
ATOM     26  C   UNL     1       2.579   6.115  18.271  0.00  0.00    +0.000 A 
ATOM     27  C   UNL     1       2.365   7.417  18.712  0.00  0.00    +0.000 A 
ATOM     28  F   UNL     1       2.693   8.431  17.896  0.00  0.00    +0.000 F 
ENDBRANCH  19  20
ENDBRANCH   3  19
TORSDOF 5
ENDMDL
MODEL 7
REMARK VINA RESULT:      -7.1      1.456      2.205
REMARK  Name = 
REMARK  5 active torsions:
REMARK  status: ('A' for Active; 'I' for Inactive)
REMARK    1  A    between atoms: C_2  and  O_3
REMARK    2  A    between atoms: C_2  and  C_4
REMARK    3  A    between atoms: C_4  and  N_5
REMARK    4  A    between atoms: N_7  and  C_8
REMARK    5  A    between atoms: C_8  and  C_9
REMARK                            x       y       z     vdW  Elec       q    Type
REMARK                         _______ _______ _______ _____ _____    ______ ____
ROOT
ATOM      1  N   UNL     1      -0.329  10.810  19.293  0.00  0.00    +0.000 N 
ATOM      2  C   UNL     1      -1.101  10.977  20.535  0.00  0.00    +0.000 C 
ATOM      3  N   UNL     1      -0.273  10.868  21.728  0.00  0.00    +0.000 NA
ATOM      4  S   UNL     1       0.364   9.303  21.854  0.00  0.00    +0.000 S 
ATOM      5  O   UNL     1       1.462   9.356  22.789  0.00  0.00    +0.000 OA
ATOM      6  O   UNL     1      -0.744   8.385  22.043  0.00  0.00    +0.000 OA
ATOM      7  C   UNL     1       1.008   8.988  20.255  0.00  0.00    +0.000 A 
ATOM      8  C   UNL     1       1.860   7.878  20.132  0.00  0.00    +0.000 A 
ATOM      9  C   UNL     1       2.403   7.584  18.895  0.00  0.00    +0.000 A 
ATOM     10 BR   UNL     1       3.434   6.019  18.655  0.00  0.00    +0.000 Br
ATOM     11  C   UNL     1       2.163   8.430  17.825  0.00  0.00    +0.000 A 
ATOM     12  C   UNL     1       1.321   9.547  17.984  0.00  0.00    +0.000 A 
ATOM     13  C   UNL     1       0.656   9.830  19.192  0.00  0.00    +0.000 A 
ENDROOT
BRANCH   1  14
ATOM     14  C   UNL     1      -0.416  11.951  18.334  0.00  0.00    +0.000 C 
BRANCH  14  16
ATOM     15  O   UNL     1       1.109  13.501  19.432  0.00  0.00    +0.000 OA
ATOM     16  C   UNL     1      -0.001  13.288  18.962  0.00  0.00    +0.000 C 
BRANCH  16  17
ATOM     17  O   UNL     1      -0.963  14.234  18.917  0.00  0.00    +0.000 OA
ATOM     18  H   UNL     1      -0.618  15.065  18.526  0.00  0.00    +0.000 HD
ENDBRANCH  16  17
ENDBRANCH  14  16
ENDBRANCH   1  14
BRANCH   3  19
ATOM     19  C   UNL     1      -1.007  11.215  22.984  0.00  0.00    +0.000 C 
BRANCH  19  20
ATOM     20  C   UNL     1      -1.508  12.638  23.089  0.00  0.00    +0.000 A 
ATOM     21  C   UNL     1      -0.686  13.717  22.736  0.00  0.00    +0.000 A 
ATOM     22  C   UNL     1      -1.091  15.017  23.025  0.00  0.00    +0.000 A 
ATOM     23  F   UNL     1      -0.259  16.035  22.769  0.00  0.00    +0.000 F 
ATOM     24  C   UNL     1      -2.336  15.264  23.602  0.00  0.00    +0.000 A 
ATOM     25  F   UNL     1      -2.705  16.516  23.901  0.00  0.00    +0.000 F 
ATOM     26  C   UNL     1      -3.202  14.214  23.872  0.00  0.00    +0.000 A 
ATOM     27  C   UNL     1      -2.773  12.913  23.628  0.00  0.00    +0.000 A 
ATOM     28  F   UNL     1      -3.604  11.900  23.922  0.00  0.00    +0.000 F 
ENDBRANCH  19  20
ENDBRANCH   3  19
TORSDOF 5
ENDMDL
MODEL 8
REMARK VINA RESULT:      -7.0      4.126      6.952
REMARK  Name = 
REMARK  5 active torsions:
REMARK  status: ('A' for Active; 'I' for Inactive)
REMARK    1  A    between atoms: C_2  and  O_3
REMARK    2  A    between atoms: C_2  and  C_4
REMARK    3  A    between atoms: C_4  and  N_5
REMARK    4  A    between atoms: N_7  and  C_8
REMARK    5  A    between atoms: C_8  and  C_9
REMARK                            x       y       z     vdW  Elec       q    Type
REMARK                         _______ _______ _______ _____ _____    ______ ____
ROOT
ATOM      1  N   UNL     1      -1.973  12.013  19.087  0.00  0.00    +0.000 N 
ATOM      2  C   UNL     1      -0.548  11.727  19.325  0.00  0.00    +0.000 C 
ATOM      3  N   UNL     1      -0.338  10.825  20.449  0.00  0.00    +0.000 NA
ATOM      4  S   UNL     1      -0.851  11.558  21.888  0.00  0.00    +0.000 S 
ATOM      5  O   UNL     1      -0.999  10.518  22.877  0.00  0.00    +0.000 OA
ATOM      6  O   UNL     1      -0.002  12.711  22.128  0.00  0.00    +0.000 OA
ATOM      7  C   UNL     1      -2.440  12.182  21.493  0.00  0.00    +0.000 A 
ATOM      8  C   UNL     1      -3.239  12.590  22.574  0.00  0.00    +0.000 A 
ATOM      9  C   UNL     1      -4.505  13.085  22.323  0.00  0.00    +0.000 A 
ATOM     10 BR   UNL     1      -5.553  13.780  23.733  0.00  0.00    +0.000 Br
ATOM     11  C   UNL     1      -4.991  13.094  21.026  0.00  0.00    +0.000 A 
ATOM     12  C   UNL     1      -4.175  12.658  19.964  0.00  0.00    +0.000 A 
ATOM     13  C   UNL     1      -2.841  12.249  20.151  0.00  0.00    +0.000 A 
ENDROOT
BRANCH   1  14
ATOM     14  C   UNL     1      -2.467  11.679  17.719  0.00  0.00    +0.000 C 
BRANCH  14  16
ATOM     15  O   UNL     1      -1.453   9.613  16.921  0.00  0.00    +0.000 OA
ATOM     16  C   UNL     1      -2.419  10.174  17.421  0.00  0.00    +0.000 C 
BRANCH  16  17
ATOM     17  O   UNL     1      -3.532   9.508  17.796  0.00  0.00    +0.000 OA
ATOM     18  H   UNL     1      -3.403   8.539  17.712  0.00  0.00    +0.000 HD
ENDBRANCH  16  17
ENDBRANCH  14  16
ENDBRANCH   1  14
BRANCH   3  19
ATOM     19  C   UNL     1       1.084  10.385  20.588  0.00  0.00    +0.000 C 
BRANCH  19  20
ATOM     20  C   UNL     1       1.424   9.039  19.986  0.00  0.00    +0.000 A 
ATOM     21  C   UNL     1       1.417   7.879  20.771  0.00  0.00    +0.000 A 
ATOM     22  C   UNL     1       1.922   6.690  20.250  0.00  0.00    +0.000 A 
ATOM     23  F   UNL     1       1.998   5.609  21.038  0.00  0.00    +0.000 F 
ATOM     24  C   UNL     1       2.372   6.624  18.933  0.00  0.00    +0.000 A 
ATOM     25  F   UNL     1       2.881   5.484  18.450  0.00  0.00    +0.000 F 
ATOM     26  C   UNL     1       2.299   7.740  18.112  0.00  0.00    +0.000 A 
ATOM     27  C   UNL     1       1.841   8.939  18.651  0.00  0.00    +0.000 A 
ATOM     28  F   UNL     1       1.803  10.022  17.860  0.00  0.00    +0.000 F 
ENDBRANCH  19  20
ENDBRANCH   3  19
TORSDOF 5
ENDMDL
MODEL 9
REMARK VINA RESULT:      -7.0      4.526      7.359
REMARK  Name = 
REMARK  5 active torsions:
REMARK  status: ('A' for Active; 'I' for Inactive)
REMARK    1  A    between atoms: C_2  and  O_3
REMARK    2  A    between atoms: C_2  and  C_4
REMARK    3  A    between atoms: C_4  and  N_5
REMARK    4  A    between atoms: N_7  and  C_8
REMARK    5  A    between atoms: C_8  and  C_9
REMARK                            x       y       z     vdW  Elec       q    Type
REMARK                         _______ _______ _______ _____ _____    ______ ____
ROOT
ATOM      1  N   UNL     1       0.582  11.276  20.137  0.00  0.00    +0.000 N 
ATOM      2  C   UNL     1       1.555  10.232  20.499  0.00  0.00    +0.000 C 
ATOM      3  N   UNL     1       0.919   9.020  20.995  0.00  0.00    +0.000 NA
ATOM      4  S   UNL     1       0.109   9.341  22.449  0.00  0.00    +0.000 S 
ATOM      5  O   UNL     1      -0.812   8.254  22.682  0.00  0.00    +0.000 OA
ATOM      6  O   UNL     1       1.102   9.713  23.439  0.00  0.00    +0.000 OA
ATOM      7  C   UNL     1      -0.815  10.789  22.098  0.00  0.00    +0.000 A 
ATOM      8  C   UNL     1      -1.814  11.132  23.024  0.00  0.00    +0.000 A 
ATOM      9  C   UNL     1      -2.579  12.261  22.796  0.00  0.00    +0.000 A 
ATOM     10 BR   UNL     1      -3.832  12.839  24.087  0.00  0.00    +0.000 Br
ATOM     11  C   UNL     1      -2.401  12.982  21.627  0.00  0.00    +0.000 A 
ATOM     12  C   UNL     1      -1.405  12.602  20.708  0.00  0.00    +0.000 A 
ATOM     13  C   UNL     1      -0.527  11.527  20.943  0.00  0.00    +0.000 A 
ENDROOT
BRANCH   1  14
ATOM     14  C   UNL     1       0.666  11.760  18.728  0.00  0.00    +0.000 C 
BRANCH  14  16
ATOM     15  O   UNL     1       2.185  13.600  19.219  0.00  0.00    +0.000 OA
ATOM     16  C   UNL     1       1.876  12.672  18.483  0.00  0.00    +0.000 C 
BRANCH  16  17
ATOM     17  O   UNL     1       2.601  12.337  17.395  0.00  0.00    +0.000 OA
ATOM     18  H   UNL     1       3.297  11.685  17.626  0.00  0.00    +0.000 HD
ENDBRANCH  16  17
ENDBRANCH  14  16
ENDBRANCH   1  14
BRANCH   3  19
ATOM     19  C   UNL     1       1.881   7.893  21.194  0.00  0.00    +0.000 C 
BRANCH  19  20
ATOM     20  C   UNL     1       1.797   6.764  20.191  0.00  0.00    +0.000 A 
ATOM     21  C   UNL     1       1.257   5.522  20.550  0.00  0.00    +0.000 A 
ATOM     22  C   UNL     1       1.370   4.442  19.678  0.00  0.00    +0.000 A 
ATOM     23  F   UNL     1       0.933   3.237  20.068  0.00  0.00    +0.000 F 
ATOM     24  C   UNL     1       1.955   4.598  18.423  0.00  0.00    +0.000 A 
ATOM     25  F   UNL     1       2.082   3.547  17.603  0.00  0.00    +0.000 F 
ATOM     26  C   UNL     1       2.410   5.843  18.013  0.00  0.00    +0.000 A 
ATOM     27  C   UNL     1       2.341   6.908  18.906  0.00  0.00    +0.000 A 
ATOM     28  F   UNL     1       2.814   8.102  18.515  0.00  0.00    +0.000 F 
ENDBRANCH  19  20
ENDBRANCH   3  19
TORSDOF 5
ENDMDL
