MODEL 1
REMARK VINA RESULT:      -8.0      0.000      0.000
REMARK  Name = 
REMARK  6 active torsions:
REMARK  status: ('A' for Active; 'I' for Inactive)
REMARK    1  A    between atoms: C_1  and  C_2
REMARK    2  A    between atoms: N_4  and  C_5
REMARK    3  A    between atoms: C_10  and  C_11
REMARK    4  A    between atoms: N_18  and  C_19
REMARK    5  A    between atoms: C_21  and  C_22
REMARK    6  A    between atoms: C_26  and  C_27
REMARK                            x       y       z     vdW  Elec       q    Type
REMARK                         _______ _______ _______ _____ _____    ______ ____
ROOT
ATOM      1  C   UNL     1      -0.237   9.708  22.431  0.00  0.00    +0.000 C 
ATOM      2  C   UNL     1      -0.980  10.987  22.379  0.00  0.00    +0.000 A 
ATOM      3  N   UNL     1      -1.830  11.338  23.356  0.00  0.00    +0.000 NA
ATOM      4  N   UNL     1      -2.251  12.600  23.036  0.00  0.00    +0.000 N 
ATOM      5  C   UNL     1      -1.636  13.045  21.913  0.00  0.00    +0.000 A 
ATOM      6  C   UNL     1      -0.887  12.005  21.435  0.00  0.00    +0.000 A 
ATOM      7  C   UNL     1      -0.146  12.379  20.221  0.00  0.00    +0.000 C 
ATOM      8  N   UNL     1      -0.383  13.845  20.204  0.00  0.00    +0.000 N 
ATOM      9  C   UNL     1      -1.396  14.231  21.141  0.00  0.00    +0.000 C 
ATOM     10  O   UNL     1      -1.873  15.333  21.335  0.00  0.00    +0.000 OA
ENDROOT
BRANCH   8  11
ATOM     11  C   UNL     1       0.455  14.739  19.553  0.00  0.00    +0.000 A 
ATOM     12  C   UNL     1       1.847  14.321  19.231  0.00  0.00    +0.000 A 
ATOM     13  C   UNL     1       2.762  15.319  19.083  0.00  0.00    +0.000 A 
ATOM     14  C   UNL     1       3.664  15.653  20.252  0.00  0.00    +0.000 C 
ATOM     15  C   UNL     1       2.321  16.410  18.266  0.00  0.00    +0.000 A 
ATOM     16  N   UNL     1       2.958  17.333  17.584  0.00  0.00    +0.000 NA
ATOM     17  N   UNL     1       2.021  18.212  17.106  0.00  0.00    +0.000 NA
ATOM     18  C   UNL     1       0.832  17.823  17.525  0.00  0.00    +0.000 A 
ATOM     19  C   UNL     1      -0.450  18.388  17.056  0.00  0.00    +0.000 C 
ATOM     20  N   UNL     1       0.974  16.721  18.347  0.00  0.00    +0.000 N 
ATOM     21  C   UNL     1       0.069  15.961  19.107  0.00  0.00    +0.000 A 
ENDBRANCH   8  11
BRANCH   7  22
ATOM     22  C   UNL     1      -0.821  11.619  19.081  0.00  0.00    +0.000 A 
ATOM     23  C   UNL     1      -0.344  10.391  18.571  0.00  0.00    +0.000 A 
ATOM     24  C   UNL     1      -1.006   9.734  17.525  0.00  0.00    +0.000 A 
ATOM     25  C   UNL     1      -2.151  10.294  16.967  0.00  0.00    +0.000 A 
ATOM     26 CL   UNL     1      -2.988   9.475  15.707  0.00  0.00    +0.000 Cl
ATOM     27  C   UNL     1      -2.626  11.517  17.433  0.00  0.00    +0.000 A 
ATOM     28  C   UNL     1      -1.965  12.174  18.477  0.00  0.00    +0.000 A 
ENDBRANCH   7  22
BRANCH   4  29
ATOM     29  C   UNL     1      -3.240  13.212  23.889  0.00  0.00    +0.000 C 
ATOM     30  C   UNL     1      -4.704  13.410  23.561  0.00  0.00    +0.000 C 
ATOM     31  C   UNL     1      -4.312  12.410  24.594  0.00  0.00    +0.000 C 
ENDBRANCH   4  29
TORSDOF 3
ENDMDL
MODEL 2
REMARK VINA RESULT:      -7.6      3.213      6.387
REMARK  Name = 
REMARK  6 active torsions:
REMARK  status: ('A' for Active; 'I' for Inactive)
REMARK    1  A    between atoms: C_1  and  C_2
REMARK    2  A    between atoms: N_4  and  C_5
REMARK    3  A    between atoms: C_10  and  C_11
REMARK    4  A    between atoms: N_18  and  C_19
REMARK    5  A    between atoms: C_21  and  C_22
REMARK    6  A    between atoms: C_26  and  C_27
REMARK                            x       y       z     vdW  Elec       q    Type
REMARK                         _______ _______ _______ _____ _____    ______ ____
ROOT
ATOM      1  C   UNL     1       1.368   9.623  18.651  0.00  0.00    +0.000 C 
ATOM      2  C   UNL     1       0.023  10.217  18.482  0.00  0.00    +0.000 A 
ATOM      3  N   UNL     1      -0.865   9.696  17.622  0.00  0.00    +0.000 NA
ATOM      4  N   UNL     1      -2.012  10.422  17.799  0.00  0.00    +0.000 N 
ATOM      5  C   UNL     1      -1.857  11.340  18.785  0.00  0.00    +0.000 A 
ATOM      6  C   UNL     1      -0.547  11.281  19.175  0.00  0.00    +0.000 A 
ATOM      7  C   UNL     1      -0.260  12.222  20.268  0.00  0.00    +0.000 C 
ATOM      8  N   UNL     1      -1.638  12.656  20.615  0.00  0.00    +0.000 N 
ATOM      9  C   UNL     1      -2.592  12.235  19.632  0.00  0.00    +0.000 C 
ATOM     10  O   UNL     1      -3.783  12.474  19.575  0.00  0.00    +0.000 OA
ENDROOT
BRANCH   8  11
ATOM     11  C   UNL     1      -1.979  13.172  21.857  0.00  0.00    +0.000 A 
ATOM     12  C   UNL     1      -2.662  12.288  22.842  0.00  0.00    +0.000 A 
ATOM     13  C   UNL     1      -3.419  12.907  23.790  0.00  0.00    +0.000 A 
ATOM     14  C   UNL     1      -4.915  12.993  23.580  0.00  0.00    +0.000 C 
ATOM     15  C   UNL     1      -2.783  14.028  24.417  0.00  0.00    +0.000 A 
ATOM     16  N   UNL     1      -2.967  14.635  25.565  0.00  0.00    +0.000 NA
ATOM     17  N   UNL     1      -2.163  15.746  25.577  0.00  0.00    +0.000 NA
ATOM     18  C   UNL     1      -1.521  15.809  24.426  0.00  0.00    +0.000 A 
ATOM     19  C   UNL     1      -0.414  16.742  24.132  0.00  0.00    +0.000 C 
ATOM     20  N   UNL     1      -1.947  14.780  23.608  0.00  0.00    +0.000 N 
ATOM     21  C   UNL     1      -1.659  14.420  22.280  0.00  0.00    +0.000 A 
ENDBRANCH   8  11
BRANCH   7  22
ATOM     22  C   UNL     1       0.607  13.316  19.647  0.00  0.00    +0.000 A 
ATOM     23  C   UNL     1       0.088  14.523  19.129  0.00  0.00    +0.000 A 
ATOM     24  C   UNL     1       0.930  15.496  18.573  0.00  0.00    +0.000 A 
ATOM     25  C   UNL     1       2.303  15.276  18.521  0.00  0.00    +0.000 A 
ATOM     26 CL   UNL     1       3.346  16.481  17.872  0.00  0.00    +0.000 Cl
ATOM     27  C   UNL     1       2.837  14.083  18.998  0.00  0.00    +0.000 A 
ATOM     28  C   UNL     1       1.996  13.112  19.553  0.00  0.00    +0.000 A 
ENDBRANCH   7  22
BRANCH   4  29
ATOM     29  C   UNL     1      -3.133  10.122  16.943  0.00  0.00    +0.000 C 
ATOM     30  C   UNL     1      -3.765  11.058  15.935  0.00  0.00    +0.000 C 
ATOM     31  C   UNL     1      -2.978   9.885  15.456  0.00  0.00    +0.000 C 
ENDBRANCH   4  29
TORSDOF 3
ENDMDL
MODEL 3
REMARK VINA RESULT:      -7.6      0.414      1.042
REMARK  Name = 
REMARK  6 active torsions:
REMARK  status: ('A' for Active; 'I' for Inactive)
REMARK    1  A    between atoms: C_1  and  C_2
REMARK    2  A    between atoms: N_4  and  C_5
REMARK    3  A    between atoms: C_10  and  C_11
REMARK    4  A    between atoms: N_18  and  C_19
REMARK    5  A    between atoms: C_21  and  C_22
REMARK    6  A    between atoms: C_26  and  C_27
REMARK                            x       y       z     vdW  Elec       q    Type
REMARK                         _______ _______ _______ _____ _____    ______ ____
ROOT
ATOM      1  C   UNL     1       0.075   9.634  22.225  0.00  0.00    +0.000 C 
ATOM      2  C   UNL     1      -0.675  10.908  22.293  0.00  0.00    +0.000 A 
ATOM      3  N   UNL     1      -1.440  11.209  23.353  0.00  0.00    +0.000 NA
ATOM      4  N   UNL     1      -1.892  12.480  23.125  0.00  0.00    +0.000 N 
ATOM      5  C   UNL     1      -1.378  12.978  21.974  0.00  0.00    +0.000 A 
ATOM      6  C   UNL     1      -0.668  11.966  21.389  0.00  0.00    +0.000 A 
ATOM      7  C   UNL     1      -0.035  12.397  20.134  0.00  0.00    +0.000 C 
ATOM      8  N   UNL     1      -0.278  13.861  20.201  0.00  0.00    +0.000 N 
ATOM      9  C   UNL     1      -1.210  14.198  21.237  0.00  0.00    +0.000 C 
ATOM     10  O   UNL     1      -1.673  15.287  21.519  0.00  0.00    +0.000 OA
ENDROOT
BRANCH   8  11
ATOM     11  C   UNL     1       0.496  14.789  19.520  0.00  0.00    +0.000 A 
ATOM     12  C   UNL     1       1.880  14.416  19.117  0.00  0.00    +0.000 A 
ATOM     13  C   UNL     1       2.757  15.443  18.937  0.00  0.00    +0.000 A 
ATOM     14  C   UNL     1       3.711  15.787  20.060  0.00  0.00    +0.000 C 
ATOM     15  C   UNL     1       2.241  16.533  18.162  0.00  0.00    +0.000 A 
ATOM     16  N   UNL     1       2.813  17.484  17.462  0.00  0.00    +0.000 NA
ATOM     17  N   UNL     1       1.827  18.342  17.050  0.00  0.00    +0.000 NA
ATOM     18  C   UNL     1       0.674  17.912  17.526  0.00  0.00    +0.000 A 
ATOM     19  C   UNL     1      -0.647  18.446  17.136  0.00  0.00    +0.000 C 
ATOM     20  N   UNL     1       0.892  16.803  18.321  0.00  0.00    +0.000 N 
ATOM     21  C   UNL     1       0.052  16.005  19.116  0.00  0.00    +0.000 A 
ENDBRANCH   8  11
BRANCH   7  22
ATOM     22  C   UNL     1      -0.802  11.681  19.023  0.00  0.00    +0.000 A 
ATOM     23  C   UNL     1      -2.008  12.166  18.471  0.00  0.00    +0.000 A 
ATOM     24  C   UNL     1      -2.669  11.469  17.450  0.00  0.00    +0.000 A 
ATOM     25  C   UNL     1      -2.140  10.277  16.968  0.00  0.00    +0.000 A 
ATOM     26 CL   UNL     1      -2.928   9.436  15.691  0.00  0.00    +0.000 Cl
ATOM     27  C   UNL     1      -0.968   9.763  17.515  0.00  0.00    +0.000 A 
ATOM     28  C   UNL     1      -0.308  10.458  18.535  0.00  0.00    +0.000 A 
ENDBRANCH   7  22
BRANCH   4  29
ATOM     29  C   UNL     1      -2.807  13.047  24.085  0.00  0.00    +0.000 C 
ATOM     30  C   UNL     1      -2.851  14.493  24.533  0.00  0.00    +0.000 C 
ATOM     31  C   UNL     1      -3.948  13.955  23.678  0.00  0.00    +0.000 C 
ENDBRANCH   4  29
TORSDOF 3
ENDMDL
MODEL 4
REMARK VINA RESULT:      -7.5      0.809      1.873
REMARK  Name = 
REMARK  6 active torsions:
REMARK  status: ('A' for Active; 'I' for Inactive)
REMARK    1  A    between atoms: C_1  and  C_2
REMARK    2  A    between atoms: N_4  and  C_5
REMARK    3  A    between atoms: C_10  and  C_11
REMARK    4  A    between atoms: N_18  and  C_19
REMARK    5  A    between atoms: C_21  and  C_22
REMARK    6  A    between atoms: C_26  and  C_27
REMARK                            x       y       z     vdW  Elec       q    Type
REMARK                         _______ _______ _______ _____ _____    ______ ____
ROOT
ATOM      1  C   UNL     1      -0.373   9.967  22.647  0.00  0.00    +0.000 C 
ATOM      2  C   UNL     1      -1.216  11.182  22.577  0.00  0.00    +0.000 A 
ATOM      3  N   UNL     1      -2.108  11.466  23.538  0.00  0.00    +0.000 NA
ATOM      4  N   UNL     1      -2.624  12.688  23.206  0.00  0.00    +0.000 N 
ATOM      5  C   UNL     1      -2.028  13.179  22.091  0.00  0.00    +0.000 A 
ATOM      6  C   UNL     1      -1.189  12.201  21.630  0.00  0.00    +0.000 A 
ATOM      7  C   UNL     1      -0.460  12.629  20.427  0.00  0.00    +0.000 C 
ATOM      8  N   UNL     1      -0.813  14.072  20.400  0.00  0.00    +0.000 N 
ATOM      9  C   UNL     1      -1.870  14.378  21.318  0.00  0.00    +0.000 C 
ATOM     10  O   UNL     1      -2.438  15.438  21.500  0.00  0.00    +0.000 OA
ENDROOT
BRANCH   8  11
ATOM     11  C   UNL     1      -0.039  15.029  19.759  0.00  0.00    +0.000 A 
ATOM     12  C   UNL     1      -0.327  16.469  20.002  0.00  0.00    +0.000 A 
ATOM     13  C   UNL     1       0.059  17.338  19.026  0.00  0.00    +0.000 A 
ATOM     14  C   UNL     1      -0.976  17.813  18.028  0.00  0.00    +0.000 C 
ATOM     15  C   UNL     1       1.388  17.125  18.536  0.00  0.00    +0.000 A 
ATOM     16  N   UNL     1       2.252  17.900  17.923  0.00  0.00    +0.000 NA
ATOM     17  N   UNL     1       3.318  17.120  17.557  0.00  0.00    +0.000 NA
ATOM     18  C   UNL     1       3.076  15.879  17.933  0.00  0.00    +0.000 A 
ATOM     19  C   UNL     1       4.066  14.784  17.902  0.00  0.00    +0.000 C 
ATOM     20  N   UNL     1       1.812  15.807  18.488  0.00  0.00    +0.000 N 
ATOM     21  C   UNL     1       1.031  14.746  18.975  0.00  0.00    +0.000 A 
ENDBRANCH   8  11
BRANCH   7  22
ATOM     22  C   UNL     1      -1.052  11.814  19.279  0.00  0.00    +0.000 A 
ATOM     23  C   UNL     1      -0.403  10.706  18.693  0.00  0.00    +0.000 A 
ATOM     24  C   UNL     1      -0.995   9.990  17.643  0.00  0.00    +0.000 A 
ATOM     25  C   UNL     1      -2.241  10.373  17.158  0.00  0.00    +0.000 A 
ATOM     26 CL   UNL     1      -2.988   9.478  15.894  0.00  0.00    +0.000 Cl
ATOM     27  C   UNL     1      -2.890  11.480  17.699  0.00  0.00    +0.000 A 
ATOM     28  C   UNL     1      -2.299  12.195  18.747  0.00  0.00    +0.000 A 
ENDBRANCH   7  22
BRANCH   4  29
ATOM     29  C   UNL     1      -3.673  13.222  24.039  0.00  0.00    +0.000 C 
ATOM     30  C   UNL     1      -5.144  13.291  23.690  0.00  0.00    +0.000 C 
ATOM     31  C   UNL     1      -4.682  12.337  24.738  0.00  0.00    +0.000 C 
ENDBRANCH   4  29
TORSDOF 3
ENDMDL
MODEL 5
REMARK VINA RESULT:      -7.2      1.362      1.816
REMARK  Name = 
REMARK  6 active torsions:
REMARK  status: ('A' for Active; 'I' for Inactive)
REMARK    1  A    between atoms: C_1  and  C_2
REMARK    2  A    between atoms: N_4  and  C_5
REMARK    3  A    between atoms: C_10  and  C_11
REMARK    4  A    between atoms: N_18  and  C_19
REMARK    5  A    between atoms: C_21  and  C_22
REMARK    6  A    between atoms: C_26  and  C_27
REMARK                            x       y       z     vdW  Elec       q    Type
REMARK                         _______ _______ _______ _____ _____    ______ ____
ROOT
ATOM      1  C   UNL     1      -0.549   9.607  22.921  0.00  0.00    +0.000 C 
ATOM      2  C   UNL     1      -1.203  10.932  22.827  0.00  0.00    +0.000 A 
ATOM      3  N   UNL     1      -2.160  11.298  23.692  0.00  0.00    +0.000 NA
ATOM      4  N   UNL     1      -2.458  12.595  23.376  0.00  0.00    +0.000 N 
ATOM      5  C   UNL     1      -1.667  13.043  22.370  0.00  0.00    +0.000 A 
ATOM      6  C   UNL     1      -0.919  11.977  21.952  0.00  0.00    +0.000 A 
ATOM      7  C   UNL     1       0.005  12.348  20.871  0.00  0.00    +0.000 C 
ATOM      8  N   UNL     1      -0.142  13.826  20.890  0.00  0.00    +0.000 N 
ATOM      9  C   UNL     1      -1.253  14.240  21.695  0.00  0.00    +0.000 C 
ATOM     10  O   UNL     1      -1.689  15.362  21.872  0.00  0.00    +0.000 OA
ENDROOT
BRANCH   8  11
ATOM     11  C   UNL     1       0.829  14.689  20.402  0.00  0.00    +0.000 A 
ATOM     12  C   UNL     1       0.997  14.827  18.929  0.00  0.00    +0.000 A 
ATOM     13  C   UNL     1       2.221  15.239  18.494  0.00  0.00    +0.000 A 
ATOM     14  C   UNL     1       3.205  14.198  18.008  0.00  0.00    +0.000 C 
ATOM     15  C   UNL     1       2.757  16.359  19.209  0.00  0.00    +0.000 A 
ATOM     16  N   UNL     1       3.656  17.267  18.909  0.00  0.00    +0.000 NA
ATOM     17  N   UNL     1       3.878  18.015  20.035  0.00  0.00    +0.000 NA
ATOM     18  C   UNL     1       3.128  17.536  21.010  0.00  0.00    +0.000 A 
ATOM     19  C   UNL     1       2.932  18.192  22.318  0.00  0.00    +0.000 C 
ATOM     20  N   UNL     1       2.453  16.417  20.559  0.00  0.00    +0.000 N 
ATOM     21  C   UNL     1       1.597  15.492  21.180  0.00  0.00    +0.000 A 
ENDBRANCH   8  11
BRANCH   7  22
ATOM     22  C   UNL     1      -0.546  11.676  19.615  0.00  0.00    +0.000 A 
ATOM     23  C   UNL     1      -0.020  10.482  19.074  0.00  0.00    +0.000 A 
ATOM     24  C   UNL     1      -0.568   9.907  17.919  0.00  0.00    +0.000 A 
ATOM     25  C   UNL     1      -1.645  10.516  17.283  0.00  0.00    +0.000 A 
ATOM     26 CL   UNL     1      -2.344   9.796  15.886  0.00  0.00    +0.000 Cl
ATOM     27  C   UNL     1      -2.164  11.708  17.780  0.00  0.00    +0.000 A 
ATOM     28  C   UNL     1      -1.617  12.284  18.932  0.00  0.00    +0.000 A 
ENDBRANCH   7  22
BRANCH   4  29
ATOM     29  C   UNL     1      -3.520  13.237  24.112  0.00  0.00    +0.000 C 
ATOM     30  C   UNL     1      -4.953  13.402  23.653  0.00  0.00    +0.000 C 
ATOM     31  C   UNL     1      -4.642  12.457  24.763  0.00  0.00    +0.000 C 
ENDBRANCH   4  29
TORSDOF 3
ENDMDL
MODEL 6
REMARK VINA RESULT:      -7.2      0.799      2.076
REMARK  Name = 
REMARK  6 active torsions:
REMARK  status: ('A' for Active; 'I' for Inactive)
REMARK    1  A    between atoms: C_1  and  C_2
REMARK    2  A    between atoms: N_4  and  C_5
REMARK    3  A    between atoms: C_10  and  C_11
REMARK    4  A    between atoms: N_18  and  C_19
REMARK    5  A    between atoms: C_21  and  C_22
REMARK    6  A    between atoms: C_26  and  C_27
REMARK                            x       y       z     vdW  Elec       q    Type
REMARK                         _______ _______ _______ _____ _____    ______ ____
ROOT
ATOM      1  C   UNL     1      -0.016   9.482  22.129  0.00  0.00    +0.000 C 
ATOM      2  C   UNL     1      -0.822  10.718  22.254  0.00  0.00    +0.000 A 
ATOM      3  N   UNL     1      -1.607  10.932  23.320  0.00  0.00    +0.000 NA
ATOM      4  N   UNL     1      -2.112  12.193  23.153  0.00  0.00    +0.000 N 
ATOM      5  C   UNL     1      -1.611  12.770  22.033  0.00  0.00    +0.000 A 
ATOM      6  C   UNL     1      -0.853  11.820  21.405  0.00  0.00    +0.000 A 
ATOM      7  C   UNL     1      -0.230  12.341  20.179  0.00  0.00    +0.000 C 
ATOM      8  N   UNL     1      -0.537  13.788  20.318  0.00  0.00    +0.000 N 
ATOM      9  C   UNL     1      -1.490  14.032  21.360  0.00  0.00    +0.000 C 
ATOM     10  O   UNL     1      -2.002  15.084  21.692  0.00  0.00    +0.000 OA
ENDROOT
BRANCH   8  11
ATOM     11  C   UNL     1       0.202  14.782  19.692  0.00  0.00    +0.000 A 
ATOM     12  C   UNL     1      -0.182  16.205  19.900  0.00  0.00    +0.000 A 
ATOM     13  C   UNL     1       0.189  17.083  18.926  0.00  0.00    +0.000 A 
ATOM     14  C   UNL     1      -0.832  17.479  17.882  0.00  0.00    +0.000 C 
ATOM     15  C   UNL     1       1.548  16.945  18.492  0.00  0.00    +0.000 A 
ATOM     16  N   UNL     1       2.386  17.764  17.901  0.00  0.00    +0.000 NA
ATOM     17  N   UNL     1       3.512  17.046  17.590  0.00  0.00    +0.000 NA
ATOM     18  C   UNL     1       3.331  15.797  17.976  0.00  0.00    +0.000 A 
ATOM     19  C   UNL     1       4.387  14.764  18.002  0.00  0.00    +0.000 C 
ATOM     20  N   UNL     1       2.052  15.655  18.482  0.00  0.00    +0.000 N 
ATOM     21  C   UNL     1       1.318  14.555  18.955  0.00  0.00    +0.000 A 
ENDBRANCH   8  11
BRANCH   7  22
ATOM     22  C   UNL     1      -0.957  11.651  19.027  0.00  0.00    +0.000 A 
ATOM     23  C   UNL     1      -2.159  12.132  18.463  0.00  0.00    +0.000 A 
ATOM     24  C   UNL     1      -2.782  11.460  17.402  0.00  0.00    +0.000 A 
ATOM     25  C   UNL     1      -2.219  10.294  16.892  0.00  0.00    +0.000 A 
ATOM     26 CL   UNL     1      -2.961   9.485  15.569  0.00  0.00    +0.000 Cl
ATOM     27  C   UNL     1      -1.051   9.783  17.450  0.00  0.00    +0.000 A 
ATOM     28  C   UNL     1      -0.428  10.454  18.508  0.00  0.00    +0.000 A 
ENDBRANCH   7  22
BRANCH   4  29
ATOM     29  C   UNL     1      -3.058  12.671  24.130  0.00  0.00    +0.000 C 
ATOM     30  C   UNL     1      -3.741  14.022  24.128  0.00  0.00    +0.000 C 
ATOM     31  C   UNL     1      -4.537  12.796  23.834  0.00  0.00    +0.000 C 
ENDBRANCH   4  29
TORSDOF 3
ENDMDL
MODEL 7
REMARK VINA RESULT:      -7.0      3.700      7.243
REMARK  Name = 
REMARK  6 active torsions:
REMARK  status: ('A' for Active; 'I' for Inactive)
REMARK    1  A    between atoms: C_1  and  C_2
REMARK    2  A    between atoms: N_4  and  C_5
REMARK    3  A    between atoms: C_10  and  C_11
REMARK    4  A    between atoms: N_18  and  C_19
REMARK    5  A    between atoms: C_21  and  C_22
REMARK    6  A    between atoms: C_26  and  C_27
REMARK                            x       y       z     vdW  Elec       q    Type
REMARK                         _______ _______ _______ _____ _____    ______ ____
ROOT
ATOM      1  C   UNL     1       0.333  10.096  19.798  0.00  0.00    +0.000 C 
ATOM      2  C   UNL     1      -0.895  10.528  19.093  0.00  0.00    +0.000 A 
ATOM      3  N   UNL     1      -1.345   9.870  18.014  0.00  0.00    +0.000 NA
ATOM      4  N   UNL     1      -2.531  10.470  17.691  0.00  0.00    +0.000 N 
ATOM      5  C   UNL     1      -2.838  11.446  18.581  0.00  0.00    +0.000 A 
ATOM      6  C   UNL     1      -1.772  11.553  19.432  0.00  0.00    +0.000 A 
ATOM      7  C   UNL     1      -2.000  12.572  20.468  0.00  0.00    +0.000 C 
ATOM      8  N   UNL     1      -3.438  12.865  20.242  0.00  0.00    +0.000 N 
ATOM      9  C   UNL     1      -3.912  12.294  19.016  0.00  0.00    +0.000 C 
ATOM     10  O   UNL     1      -5.010  12.395  18.503  0.00  0.00    +0.000 OA
ENDROOT
BRANCH   8  11
ATOM     11  C   UNL     1      -4.265  13.398  21.221  0.00  0.00    +0.000 A 
ATOM     12  C   UNL     1      -4.291  14.874  21.418  0.00  0.00    +0.000 A 
ATOM     13  C   UNL     1      -4.672  15.315  22.649  0.00  0.00    +0.000 A 
ATOM     14  C   UNL     1      -3.599  15.702  23.643  0.00  0.00    +0.000 C 
ATOM     15  C   UNL     1      -5.845  14.678  23.169  0.00  0.00    +0.000 A 
ATOM     16  N   UNL     1      -6.729  15.029  24.073  0.00  0.00    +0.000 NA
ATOM     17  N   UNL     1      -7.562  13.958  24.273  0.00  0.00    +0.000 NA
ATOM     18  C   UNL     1      -7.156  12.965  23.505  0.00  0.00    +0.000 A 
ATOM     19  C   UNL     1      -7.909  11.714  23.282  0.00  0.00    +0.000 C 
ATOM     20  N   UNL     1      -6.004  13.341  22.840  0.00  0.00    +0.000 N 
ATOM     21  C   UNL     1      -5.127  12.669  21.973  0.00  0.00    +0.000 A 
ENDBRANCH   8  11
BRANCH   7  22
ATOM     22  C   UNL     1      -1.060  13.725  20.120  0.00  0.00    +0.000 A 
ATOM     23  C   UNL     1      -0.559  13.958  18.820  0.00  0.00    +0.000 A 
ATOM     24  C   UNL     1       0.298  15.035  18.556  0.00  0.00    +0.000 A 
ATOM     25  C   UNL     1       0.674  15.892  19.585  0.00  0.00    +0.000 A 
ATOM     26 CL   UNL     1       1.697  17.235  19.260  0.00  0.00    +0.000 Cl
ATOM     27  C   UNL     1       0.217  15.668  20.881  0.00  0.00    +0.000 A 
ATOM     28  C   UNL     1      -0.639  14.592  21.145  0.00  0.00    +0.000 A 
ENDBRANCH   7  22
BRANCH   4  29
ATOM     29  C   UNL     1      -3.218  10.007  16.511  0.00  0.00    +0.000 C 
ATOM     30  C   UNL     1      -3.519  10.823  15.272  0.00  0.00    +0.000 C 
ATOM     31  C   UNL     1      -2.498   9.739  15.207  0.00  0.00    +0.000 C 
ENDBRANCH   4  29
TORSDOF 3
ENDMDL
MODEL 8
REMARK VINA RESULT:      -7.0      3.132      6.302
REMARK  Name = 
REMARK  6 active torsions:
REMARK  status: ('A' for Active; 'I' for Inactive)
REMARK    1  A    between atoms: C_1  and  C_2
REMARK    2  A    between atoms: N_4  and  C_5
REMARK    3  A    between atoms: C_10  and  C_11
REMARK    4  A    between atoms: N_18  and  C_19
REMARK    5  A    between atoms: C_21  and  C_22
REMARK    6  A    between atoms: C_26  and  C_27
REMARK                            x       y       z     vdW  Elec       q    Type
REMARK                         _______ _______ _______ _____ _____    ______ ____
ROOT
ATOM      1  C   UNL     1       3.123  13.236  17.817  0.00  0.00    +0.000 C 
ATOM      2  C   UNL     1       2.268  13.405  19.013  0.00  0.00    +0.000 A 
ATOM      3  N   UNL     1       2.550  14.327  19.946  0.00  0.00    +0.000 NA
ATOM      4  N   UNL     1       1.513  14.273  20.836  0.00  0.00    +0.000 N 
ATOM      5  C   UNL     1       0.579  13.373  20.438  0.00  0.00    +0.000 A 
ATOM      6  C   UNL     1       1.079  12.753  19.326  0.00  0.00    +0.000 A 
ATOM      7  C   UNL     1       0.136  11.764  18.782  0.00  0.00    +0.000 C 
ATOM      8  N   UNL     1      -1.071  12.073  19.591  0.00  0.00    +0.000 N 
ATOM      9  C   UNL     1      -0.768  12.946  20.687  0.00  0.00    +0.000 C 
ATOM     10  O   UNL     1      -1.504  13.341  21.571  0.00  0.00    +0.000 OA
ENDROOT
BRANCH   8  11
ATOM     11  C   UNL     1      -2.359  11.764  19.177  0.00  0.00    +0.000 A 
ATOM     12  C   UNL     1      -2.562  10.621  18.244  0.00  0.00    +0.000 A 
ATOM     13  C   UNL     1      -3.687  10.657  17.476  0.00  0.00    +0.000 A 
ATOM     14  C   UNL     1      -3.576  11.154  16.052  0.00  0.00    +0.000 C 
ATOM     15  C   UNL     1      -4.882  10.990  18.193  0.00  0.00    +0.000 A 
ATOM     16  N   UNL     1      -6.155  10.778  17.960  0.00  0.00    +0.000 NA
ATOM     17  N   UNL     1      -6.868  11.451  18.918  0.00  0.00    +0.000 NA
ATOM     18  C   UNL     1      -6.017  12.082  19.705  0.00  0.00    +0.000 A 
ATOM     19  C   UNL     1      -6.381  12.748  20.972  0.00  0.00    +0.000 C 
ATOM     20  N   UNL     1      -4.732  11.893  19.233  0.00  0.00    +0.000 N 
ATOM     21  C   UNL     1      -3.476  12.385  19.630  0.00  0.00    +0.000 A 
ENDBRANCH   8  11
BRANCH   7  22
ATOM     22  C   UNL     1       0.759  10.401  19.077  0.00  0.00    +0.000 A 
ATOM     23  C   UNL     1       0.666   9.755  20.329  0.00  0.00    +0.000 A 
ATOM     24  C   UNL     1       1.254   8.501  20.544  0.00  0.00    +0.000 A 
ATOM     25  C   UNL     1       1.950   7.875  19.515  0.00  0.00    +0.000 A 
ATOM     26 CL   UNL     1       2.645   6.321  19.762  0.00  0.00    +0.000 Cl
ATOM     27  C   UNL     1       2.082   8.504  18.280  0.00  0.00    +0.000 A 
ATOM     28  C   UNL     1       1.494   9.756  18.065  0.00  0.00    +0.000 A 
ENDBRANCH   7  22
BRANCH   4  29
ATOM     29  C   UNL     1       1.583  15.121  22.000  0.00  0.00    +0.000 C 
ATOM     30  C   UNL     1       1.283  16.604  22.045  0.00  0.00    +0.000 C 
ATOM     31  C   UNL     1       0.347  15.645  22.698  0.00  0.00    +0.000 C 
ENDBRANCH   4  29
TORSDOF 3
ENDMDL
MODEL 9
REMARK VINA RESULT:      -7.0      2.717      5.160
REMARK  Name = 
REMARK  6 active torsions:
REMARK  status: ('A' for Active; 'I' for Inactive)
REMARK    1  A    between atoms: C_1  and  C_2
REMARK    2  A    between atoms: N_4  and  C_5
REMARK    3  A    between atoms: C_10  and  C_11
REMARK    4  A    between atoms: N_18  and  C_19
REMARK    5  A    between atoms: C_21  and  C_22
REMARK    6  A    between atoms: C_26  and  C_27
REMARK                            x       y       z     vdW  Elec       q    Type
REMARK                         _______ _______ _______ _____ _____    ______ ____
ROOT
ATOM      1  C   UNL     1      -3.683  10.999  17.527  0.00  0.00    +0.000 C 
ATOM      2  C   UNL     1      -2.272  10.878  17.958  0.00  0.00    +0.000 A 
ATOM      3  N   UNL     1      -1.525   9.821  17.606  0.00  0.00    +0.000 NA
ATOM      4  N   UNL     1      -0.271  10.087  18.083  0.00  0.00    +0.000 N 
ATOM      5  C   UNL     1      -0.226  11.307  18.674  0.00  0.00    +0.000 A 
ATOM      6  C   UNL     1      -1.506  11.791  18.677  0.00  0.00    +0.000 A 
ATOM      7  C   UNL     1      -1.582  13.132  19.275  0.00  0.00    +0.000 C 
ATOM      8  N   UNL     1      -0.136  13.453  19.395  0.00  0.00    +0.000 N 
ATOM      9  C   UNL     1       0.685  12.301  19.166  0.00  0.00    +0.000 C 
ATOM     10  O   UNL     1       1.895  12.200  19.248  0.00  0.00    +0.000 OA
ENDROOT
BRANCH   8  11
ATOM     11  C   UNL     1       0.347  14.752  19.462  0.00  0.00    +0.000 A 
ATOM     12  C   UNL     1      -0.621  15.882  19.492  0.00  0.00    +0.000 A 
ATOM     13  C   UNL     1      -0.164  17.085  19.047  0.00  0.00    +0.000 A 
ATOM     14  C   UNL     1      -0.484  17.503  17.628  0.00  0.00    +0.000 C 
ATOM     15  C   UNL     1       1.120  17.458  19.564  0.00  0.00    +0.000 A 
ATOM     16  N   UNL     1       1.727  18.612  19.706  0.00  0.00    +0.000 NA
ATOM     17  N   UNL     1       3.007  18.355  20.123  0.00  0.00    +0.000 NA
ATOM     18  C   UNL     1       3.165  17.047  20.206  0.00  0.00    +0.000 A 
ATOM     19  C   UNL     1       4.334  16.379  20.813  0.00  0.00    +0.000 C 
ATOM     20  N   UNL     1       2.012  16.419  19.773  0.00  0.00    +0.000 N 
ATOM     21  C   UNL     1       1.659  15.073  19.584  0.00  0.00    +0.000 A 
ENDBRANCH   8  11
BRANCH   7  22
ATOM     22  C   UNL     1      -2.297  12.943  20.611  0.00  0.00    +0.000 A 
ATOM     23  C   UNL     1      -3.696  13.058  20.770  0.00  0.00    +0.000 A 
ATOM     24  C   UNL     1      -4.302  12.870  22.021  0.00  0.00    +0.000 A 
ATOM     25  C   UNL     1      -3.521  12.571  23.132  0.00  0.00    +0.000 A 
ATOM     26 CL   UNL     1      -4.261  12.305  24.662  0.00  0.00    +0.000 Cl
ATOM     27  C   UNL     1      -2.137  12.480  23.008  0.00  0.00    +0.000 A 
ATOM     28  C   UNL     1      -1.532  12.668  21.760  0.00  0.00    +0.000 A 
ENDBRANCH   7  22
BRANCH   4  29
ATOM     29  C   UNL     1       0.742   9.076  17.907  0.00  0.00    +0.000 C 
ATOM     30  C   UNL     1       2.228   9.316  17.750  0.00  0.00    +0.000 C 
ATOM     31  C   UNL     1       1.713   8.701  19.006  0.00  0.00    +0.000 C 
ENDBRANCH   4  29
TORSDOF 3
ENDMDL
