MODEL 1
REMARK VINA RESULT:      -6.8      0.000      0.000
REMARK  Name = 
REMARK  8 active torsions:
REMARK  status: ('A' for Active; 'I' for Inactive)
REMARK    1  A    between atoms: C_1  and  N_2
REMARK    2  A    between atoms: N_15  and  C_16
REMARK    3  A    between atoms: N_23  and  C_24
REMARK    4  A    between atoms: C_24  and  C_25
REMARK    5  A    between atoms: C_25  and  C_26
REMARK    6  A    between atoms: C_26  and  N_27
REMARK    7  A    between atoms: N_27  and  C_28
REMARK    8  A    between atoms: N_27  and  C_29
REMARK                            x       y       z     vdW  Elec       q    Type
REMARK                         _______ _______ _______ _____ _____    ______ ____
ROOT
ATOM      1  C   UNL     1      -2.714   9.985  15.992  0.00  0.00    +0.000 C 
ATOM      2  N   UNL     1      -3.726  11.002  15.718  0.00  0.00    +0.000 N 
ATOM      3  C   UNL     1      -4.659  11.245  16.726  0.00  0.00    +0.000 A 
ATOM      4  N   UNL     1      -4.879  10.275  17.616  0.00  0.00    +0.000 NA
ATOM      5  C   UNL     1      -5.553  10.622  18.725  0.00  0.00    +0.000 A 
ATOM      6  C   UNL     1      -5.989  11.901  18.989  0.00  0.00    +0.000 A 
ATOM      7  C   UNL     1      -5.955  12.785  17.926  0.00  0.00    +0.000 A 
ATOM      8  N   UNL     1      -5.264  12.463  16.790  0.00  0.00    +0.000 NA
ATOM      9  N   UNL     1      -6.723  13.954  18.020  0.00  0.00    +0.000 N 
ATOM     10  C   UNL     1      -7.415  14.506  16.858  0.00  0.00    +0.000 C 
ATOM     11  C   UNL     1      -7.905  15.872  17.337  0.00  0.00    +0.000 C 
ATOM     12  C   UNL     1      -6.910  16.286  18.421  0.00  0.00    +0.000 C 
ATOM     13  C   UNL     1      -6.219  14.994  18.933  0.00  0.00    +0.000 C 
ATOM     14  C   UNL     1      -6.467  14.643  20.438  0.00  0.00    +0.000 C 
ATOM     15  N   UNL     1      -5.766  13.417  20.889  0.00  0.00    +0.000 N 
ATOM     16  C   UNL     1      -6.325  12.214  20.402  0.00  0.00    +0.000 C 
ATOM     17  O   UNL     1      -6.823  11.335  21.097  0.00  0.00    +0.000 OA
ATOM     18  H   UNL     1      -3.377  11.893  15.394  0.00  0.00    +0.000 HD
ENDROOT
BRANCH  15  19
ATOM     19  C   UNL     1      -5.044  13.389  22.168  0.00  0.00    +0.000 A 
ATOM     20  C   UNL     1      -5.659  13.089  23.396  0.00  0.00    +0.000 A 
ATOM     21  C   UNL     1      -4.928  12.605  24.512  0.00  0.00    +0.000 A 
ATOM     22  C   UNL     1      -3.616  12.175  24.349  0.00  0.00    +0.000 A 
ATOM     23  C   UNL     1      -3.012  12.432  23.137  0.00  0.00    +0.000 A 
ATOM     24  C   UNL     1      -1.670  11.912  22.751  0.00  0.00    +0.000 A 
ATOM     25  O   UNL     1      -1.097  11.025  23.398  0.00  0.00    +0.000 OA
ATOM     26  N   UNL     1      -1.137  12.519  21.622  0.00  0.00    +0.000 N 
ATOM     27  C   UNL     1      -1.555  13.820  21.427  0.00  0.00    +0.000 A 
ATOM     28  N   UNL     1      -2.804  14.154  21.471  0.00  0.00    +0.000 NA
ATOM     29  C   UNL     1      -3.643  13.245  22.156  0.00  0.00    +0.000 A 
BRANCH  26  30
ATOM     30  C   UNL     1      -1.321  11.797  20.355  0.00  0.00    +0.000 C 
BRANCH  30  31
ATOM     31  C   UNL     1      -0.760  12.521  19.138  0.00  0.00    +0.000 C 
BRANCH  31  32
ATOM     32  C   UNL     1       0.756  12.287  18.963  0.00  0.00    +0.000 C 
BRANCH  32  33
ATOM     33  N   UNL     1       1.680  13.406  19.225  0.00  0.00    +0.000 NA
ATOM     34  C   UNL     1       1.154  14.764  19.076  0.00  0.00    +0.000 C 
ATOM     35  C   UNL     1       2.215  13.277  20.586  0.00  0.00    +0.000 C 
ENDBRANCH  32  33
ENDBRANCH  31  32
ENDBRANCH  30  31
ENDBRANCH  26  30
ENDBRANCH  15  19
TORSDOF 5
ENDMDL
MODEL 2
REMARK VINA RESULT:      -6.3      2.055      4.969
REMARK  Name = 
REMARK  8 active torsions:
REMARK  status: ('A' for Active; 'I' for Inactive)
REMARK    1  A    between atoms: C_1  and  N_2
REMARK    2  A    between atoms: N_15  and  C_16
REMARK    3  A    between atoms: N_23  and  C_24
REMARK    4  A    between atoms: C_24  and  C_25
REMARK    5  A    between atoms: C_25  and  C_26
REMARK    6  A    between atoms: C_26  and  N_27
REMARK    7  A    between atoms: N_27  and  C_28
REMARK    8  A    between atoms: N_27  and  C_29
REMARK                            x       y       z     vdW  Elec       q    Type
REMARK                         _______ _______ _______ _____ _____    ______ ____
ROOT
ATOM      1  C   UNL     1      -7.300  12.588  18.414  0.00  0.00    +0.000 C 
ATOM      2  N   UNL     1      -6.968  13.835  19.098  0.00  0.00    +0.000 N 
ATOM      3  C   UNL     1      -6.298  13.723  20.316  0.00  0.00    +0.000 A 
ATOM      4  N   UNL     1      -6.423  12.578  20.990  0.00  0.00    +0.000 NA
ATOM      5  C   UNL     1      -5.558  12.381  22.000  0.00  0.00    +0.000 A 
ATOM      6  C   UNL     1      -4.562  13.268  22.341  0.00  0.00    +0.000 A 
ATOM      7  C   UNL     1      -4.653  14.528  21.778  0.00  0.00    +0.000 A 
ATOM      8  N   UNL     1      -5.515  14.752  20.738  0.00  0.00    +0.000 NA
ATOM      9  N   UNL     1      -3.916  15.564  22.366  0.00  0.00    +0.000 N 
ATOM     10  C   UNL     1      -4.453  16.919  22.466  0.00  0.00    +0.000 C 
ATOM     11  C   UNL     1      -3.260  17.754  22.931  0.00  0.00    +0.000 C 
ATOM     12  C   UNL     1      -2.034  17.010  22.403  0.00  0.00    +0.000 C 
ATOM     13  C   UNL     1      -2.461  15.542  22.140  0.00  0.00    +0.000 C 
ATOM     14  C   UNL     1      -1.736  14.458  23.007  0.00  0.00    +0.000 C 
ATOM     15  N   UNL     1      -2.156  13.069  22.701  0.00  0.00    +0.000 N 
ATOM     16  C   UNL     1      -3.448  12.736  23.167  0.00  0.00    +0.000 C 
ATOM     17  O   UNL     1      -3.696  11.877  24.006  0.00  0.00    +0.000 OA
ATOM     18  H   UNL     1      -6.490  14.528  18.540  0.00  0.00    +0.000 HD
ENDROOT
BRANCH  15  19
ATOM     19  C   UNL     1      -1.163  11.996  22.555  0.00  0.00    +0.000 A 
ATOM     20  C   UNL     1      -1.232  10.780  23.257  0.00  0.00    +0.000 A 
ATOM     21  C   UNL     1      -0.591   9.601  22.794  0.00  0.00    +0.000 A 
ATOM     22  C   UNL     1      -0.081   9.549  21.503  0.00  0.00    +0.000 A 
ATOM     23  C   UNL     1      -0.040  10.729  20.791  0.00  0.00    +0.000 A 
ATOM     24  C   UNL     1       0.338  10.818  19.352  0.00  0.00    +0.000 A 
ATOM     25  O   UNL     1       0.422   9.815  18.630  0.00  0.00    +0.000 OA
ATOM     26  N   UNL     1       0.589  12.112  18.917  0.00  0.00    +0.000 N 
ATOM     27  C   UNL     1       1.057  12.960  19.901  0.00  0.00    +0.000 A 
ATOM     28  N   UNL     1       0.477  13.063  21.053  0.00  0.00    +0.000 NA
ATOM     29  C   UNL     1      -0.352  11.972  21.405  0.00  0.00    +0.000 A 
BRANCH  26  30
ATOM     30  C   UNL     1      -0.524  12.790  18.238  0.00  0.00    +0.000 C 
BRANCH  30  31
ATOM     31  C   UNL     1      -1.802  11.965  18.157  0.00  0.00    +0.000 C 
BRANCH  31  32
ATOM     32  C   UNL     1      -2.098  11.483  16.721  0.00  0.00    +0.000 C 
BRANCH  32  33
ATOM     33  N   UNL     1      -3.237  10.573  16.500  0.00  0.00    +0.000 NA
ATOM     34  C   UNL     1      -4.580  11.157  16.501  0.00  0.00    +0.000 C 
ATOM     35  C   UNL     1      -3.052   9.874  15.222  0.00  0.00    +0.000 C 
ENDBRANCH  32  33
ENDBRANCH  31  32
ENDBRANCH  30  31
ENDBRANCH  26  30
ENDBRANCH  15  19
TORSDOF 5
ENDMDL
MODEL 3
REMARK VINA RESULT:      -6.3      2.168      6.481
REMARK  Name = 
REMARK  8 active torsions:
REMARK  status: ('A' for Active; 'I' for Inactive)
REMARK    1  A    between atoms: C_1  and  N_2
REMARK    2  A    between atoms: N_15  and  C_16
REMARK    3  A    between atoms: N_23  and  C_24
REMARK    4  A    between atoms: C_24  and  C_25
REMARK    5  A    between atoms: C_25  and  C_26
REMARK    6  A    between atoms: C_26  and  N_27
REMARK    7  A    between atoms: N_27  and  C_28
REMARK    8  A    between atoms: N_27  and  C_29
REMARK                            x       y       z     vdW  Elec       q    Type
REMARK                         _______ _______ _______ _____ _____    ______ ____
ROOT
ATOM      1  C   UNL     1      -2.881  11.025  15.993  0.00  0.00    +0.000 C 
ATOM      2  N   UNL     1      -1.908  10.355  16.851  0.00  0.00    +0.000 N 
ATOM      3  C   UNL     1      -1.389  11.099  17.910  0.00  0.00    +0.000 A 
ATOM      4  N   UNL     1      -1.416  12.429  17.807  0.00  0.00    +0.000 NA
ATOM      5  C   UNL     1      -1.182  13.122  18.934  0.00  0.00    +0.000 A 
ATOM      6  C   UNL     1      -0.948  12.538  20.159  0.00  0.00    +0.000 A 
ATOM      7  C   UNL     1      -0.681  11.182  20.142  0.00  0.00    +0.000 A 
ATOM      8  N   UNL     1      -0.925  10.449  19.013  0.00  0.00    +0.000 NA
ATOM      9  N   UNL     1      -0.072  10.620  21.272  0.00  0.00    +0.000 N 
ATOM     10  C   UNL     1       0.933   9.566  21.152  0.00  0.00    +0.000 C 
ATOM     11  C   UNL     1       1.139   9.087  22.588  0.00  0.00    +0.000 C 
ATOM     12  C   UNL     1      -0.189   9.372  23.289  0.00  0.00    +0.000 C 
ATOM     13  C   UNL     1      -0.923  10.463  22.464  0.00  0.00    +0.000 C 
ATOM     14  C   UNL     1      -1.175  11.819  23.204  0.00  0.00    +0.000 C 
ATOM     15  N   UNL     1      -1.902  12.821  22.387  0.00  0.00    +0.000 N 
ATOM     16  C   UNL     1      -1.132  13.400  21.355  0.00  0.00    +0.000 C 
ATOM     17  O   UNL     1      -0.839  14.588  21.275  0.00  0.00    +0.000 OA
ATOM     18  H   UNL     1      -2.187   9.453  17.210  0.00  0.00    +0.000 HD
ENDROOT
BRANCH  15  19
ATOM     19  C   UNL     1      -3.010  13.598  22.959  0.00  0.00    +0.000 A 
ATOM     20  C   UNL     1      -2.823  14.663  23.857  0.00  0.00    +0.000 A 
ATOM     21  C   UNL     1      -3.793  15.685  24.032  0.00  0.00    +0.000 A 
ATOM     22  C   UNL     1      -4.851  15.799  23.139  0.00  0.00    +0.000 A 
ATOM     23  C   UNL     1      -5.025  14.776  22.231  0.00  0.00    +0.000 A 
ATOM     24  C   UNL     1      -6.015  14.814  21.117  0.00  0.00    +0.000 A 
ATOM     25  O   UNL     1      -6.595  15.858  20.788  0.00  0.00    +0.000 OA
ATOM     26  N   UNL     1      -6.222  13.584  20.508  0.00  0.00    +0.000 N 
ATOM     27  C   UNL     1      -6.023  12.500  21.339  0.00  0.00    +0.000 A 
ATOM     28  N   UNL     1      -4.961  12.378  22.068  0.00  0.00    +0.000 NA
ATOM     29  C   UNL     1      -4.259  13.582  22.308  0.00  0.00    +0.000 A 
BRANCH  26  30
ATOM     30  C   UNL     1      -5.464  13.343  19.272  0.00  0.00    +0.000 C 
BRANCH  30  31
ATOM     31  C   UNL     1      -6.296  13.446  18.000  0.00  0.00    +0.000 C 
BRANCH  31  32
ATOM     32  C   UNL     1      -7.612  14.221  18.222  0.00  0.00    +0.000 C 
BRANCH  32  33
ATOM     33  N   UNL     1      -7.916  15.366  17.344  0.00  0.00    +0.000 NA
ATOM     34  C   UNL     1      -7.053  16.544  17.446  0.00  0.00    +0.000 C 
ATOM     35  C   UNL     1      -7.899  14.916  15.946  0.00  0.00    +0.000 C 
ENDBRANCH  32  33
ENDBRANCH  31  32
ENDBRANCH  30  31
ENDBRANCH  26  30
ENDBRANCH  15  19
TORSDOF 5
ENDMDL
MODEL 4
REMARK VINA RESULT:      -6.2      2.598      6.521
REMARK  Name = 
REMARK  8 active torsions:
REMARK  status: ('A' for Active; 'I' for Inactive)
REMARK    1  A    between atoms: C_1  and  N_2
REMARK    2  A    between atoms: N_15  and  C_16
REMARK    3  A    between atoms: N_23  and  C_24
REMARK    4  A    between atoms: C_24  and  C_25
REMARK    5  A    between atoms: C_25  and  C_26
REMARK    6  A    between atoms: C_26  and  N_27
REMARK    7  A    between atoms: N_27  and  C_28
REMARK    8  A    between atoms: N_27  and  C_29
REMARK                            x       y       z     vdW  Elec       q    Type
REMARK                         _______ _______ _______ _____ _____    ______ ____
ROOT
ATOM      1  C   UNL     1      -3.883  10.613  16.148  0.00  0.00    +0.000 C 
ATOM      2  N   UNL     1      -2.942   9.882  16.993  0.00  0.00    +0.000 N 
ATOM      3  C   UNL     1      -2.041  10.646  17.734  0.00  0.00    +0.000 A 
ATOM      4  N   UNL     1      -1.763  11.877  17.297  0.00  0.00    +0.000 NA
ATOM      5  C   UNL     1      -1.129  12.689  18.159  0.00  0.00    +0.000 A 
ATOM      6  C   UNL     1      -0.788  12.329  19.443  0.00  0.00    +0.000 A 
ATOM      7  C   UNL     1      -0.871  10.980  19.737  0.00  0.00    +0.000 A 
ATOM      8  N   UNL     1      -1.525  10.133  18.884  0.00  0.00    +0.000 NA
ATOM      9  N   UNL     1      -0.190  10.513  20.868  0.00  0.00    +0.000 N 
ATOM     10  C   UNL     1       0.476   9.212  20.873  0.00  0.00    +0.000 C 
ATOM     11  C   UNL     1       0.862   9.002  22.337  0.00  0.00    +0.000 C 
ATOM     12  C   UNL     1      -0.173   9.797  23.132  0.00  0.00    +0.000 C 
ATOM     13  C   UNL     1      -0.777  10.858  22.174  0.00  0.00    +0.000 C 
ATOM     14  C   UNL     1      -0.523  12.352  22.569  0.00  0.00    +0.000 C 
ATOM     15  N   UNL     1      -1.141  13.329  21.641  0.00  0.00    +0.000 N 
ATOM     16  C   UNL     1      -0.493  13.435  20.390  0.00  0.00    +0.000 C 
ATOM     17  O   UNL     1       0.058  14.444  19.964  0.00  0.00    +0.000 OA
ATOM     18  H   UNL     1      -3.350   9.194  17.610  0.00  0.00    +0.000 HD
ENDROOT
BRANCH  15  19
ATOM     19  C   UNL     1      -1.875  14.494  22.153  0.00  0.00    +0.000 A 
ATOM     20  C   UNL     1      -1.498  15.823  21.887  0.00  0.00    +0.000 A 
ATOM     21  C   UNL     1      -2.419  16.900  21.960  0.00  0.00    +0.000 A 
ATOM     22  C   UNL     1      -3.781  16.645  22.054  0.00  0.00    +0.000 A 
ATOM     23  C   UNL     1      -4.166  15.340  22.281  0.00  0.00    +0.000 A 
ATOM     24  C   UNL     1      -5.582  14.877  22.262  0.00  0.00    +0.000 A 
ATOM     25  O   UNL     1      -6.499  15.581  21.817  0.00  0.00    +0.000 OA
ATOM     26  N   UNL     1      -5.764  13.607  22.792  0.00  0.00    +0.000 N 
ATOM     27  C   UNL     1      -4.842  13.258  23.758  0.00  0.00    +0.000 A 
ATOM     28  N   UNL     1      -3.569  13.405  23.578  0.00  0.00    +0.000 NA
ATOM     29  C   UNL     1      -3.210  14.329  22.569  0.00  0.00    +0.000 A 
BRANCH  26  30
ATOM     30  C   UNL     1      -5.827  12.507  21.819  0.00  0.00    +0.000 C 
BRANCH  30  31
ATOM     31  C   UNL     1      -7.085  12.504  20.960  0.00  0.00    +0.000 C 
BRANCH  31  32
ATOM     32  C   UNL     1      -7.835  11.156  21.024  0.00  0.00    +0.000 C 
BRANCH  32  33
ATOM     33  N   UNL     1      -7.699  10.216  19.895  0.00  0.00    +0.000 NA
ATOM     34  C   UNL     1      -6.673  10.508  18.893  0.00  0.00    +0.000 C 
ATOM     35  C   UNL     1      -7.444   8.869  20.422  0.00  0.00    +0.000 C 
ENDBRANCH  32  33
ENDBRANCH  31  32
ENDBRANCH  30  31
ENDBRANCH  26  30
ENDBRANCH  15  19
TORSDOF 5
ENDMDL
MODEL 5
REMARK VINA RESULT:      -6.1      2.258      6.417
REMARK  Name = 
REMARK  8 active torsions:
REMARK  status: ('A' for Active; 'I' for Inactive)
REMARK    1  A    between atoms: C_1  and  N_2
REMARK    2  A    between atoms: N_15  and  C_16
REMARK    3  A    between atoms: N_23  and  C_24
REMARK    4  A    between atoms: C_24  and  C_25
REMARK    5  A    between atoms: C_25  and  C_26
REMARK    6  A    between atoms: C_26  and  N_27
REMARK    7  A    between atoms: N_27  and  C_28
REMARK    8  A    between atoms: N_27  and  C_29
REMARK                            x       y       z     vdW  Elec       q    Type
REMARK                         _______ _______ _______ _____ _____    ______ ____
ROOT
ATOM      1  C   UNL     1      -3.085  10.909  15.853  0.00  0.00    +0.000 C 
ATOM      2  N   UNL     1      -2.283  10.182  16.833  0.00  0.00    +0.000 N 
ATOM      3  C   UNL     1      -1.539  10.951  17.728  0.00  0.00    +0.000 A 
ATOM      4  N   UNL     1      -1.223  12.195  17.365  0.00  0.00    +0.000 NA
ATOM      5  C   UNL     1      -0.764  13.004  18.334  0.00  0.00    +0.000 A 
ATOM      6  C   UNL     1      -0.636  12.626  19.652  0.00  0.00    +0.000 A 
ATOM      7  C   UNL     1      -0.734  11.270  19.906  0.00  0.00    +0.000 A 
ATOM      8  N   UNL     1      -1.212  10.426  18.941  0.00  0.00    +0.000 NA
ATOM      9  N   UNL     1      -0.242  10.794  21.129  0.00  0.00    +0.000 N 
ATOM     10  C   UNL     1       0.446   9.509  21.225  0.00  0.00    +0.000 C 
ATOM     11  C   UNL     1       0.585   9.278  22.730  0.00  0.00    +0.000 C 
ATOM     12  C   UNL     1      -0.589  10.034  23.351  0.00  0.00    +0.000 C 
ATOM     13  C   UNL     1      -1.049  11.101  22.322  0.00  0.00    +0.000 C 
ATOM     14  C   UNL     1      -0.904  12.591  22.778  0.00  0.00    +0.000 C 
ATOM     15  N   UNL     1      -1.381  13.573  21.774  0.00  0.00    +0.000 N 
ATOM     16  C   UNL     1      -0.533  13.719  20.654  0.00  0.00    +0.000 C 
ATOM     17  O   UNL     1       0.056  14.748  20.343  0.00  0.00    +0.000 OA
ATOM     18  H   UNL     1      -2.771   9.472  17.361  0.00  0.00    +0.000 HD
ENDROOT
BRANCH  15  19
ATOM     19  C   UNL     1      -2.220  14.711  22.174  0.00  0.00    +0.000 A 
ATOM     20  C   UNL     1      -1.898  16.048  21.881  0.00  0.00    +0.000 A 
ATOM     21  C   UNL     1      -2.881  17.070  21.832  0.00  0.00    +0.000 A 
ATOM     22  C   UNL     1      -4.231  16.737  21.826  0.00  0.00    +0.000 A 
ATOM     23  C   UNL     1      -4.558  15.422  22.077  0.00  0.00    +0.000 A 
ATOM     24  C   UNL     1      -5.939  14.874  21.963  0.00  0.00    +0.000 A 
ATOM     25  O   UNL     1      -6.854  15.504  21.414  0.00  0.00    +0.000 OA
ATOM     26  N   UNL     1      -6.093  13.617  22.530  0.00  0.00    +0.000 N 
ATOM     27  C   UNL     1      -5.237  13.362  23.583  0.00  0.00    +0.000 A 
ATOM     28  N   UNL     1      -3.964  13.578  23.502  0.00  0.00    +0.000 NA
ATOM     29  C   UNL     1      -3.574  14.481  22.486  0.00  0.00    +0.000 A 
BRANCH  26  30
ATOM     30  C   UNL     1      -6.011  12.478  21.605  0.00  0.00    +0.000 C 
BRANCH  30  31
ATOM     31  C   UNL     1      -7.333  11.752  21.389  0.00  0.00    +0.000 C 
BRANCH  31  32
ATOM     32  C   UNL     1      -7.644  11.532  19.893  0.00  0.00    +0.000 C 
BRANCH  32  33
ATOM     33  N   UNL     1      -6.697  12.053  18.889  0.00  0.00    +0.000 NA
ATOM     34  C   UNL     1      -5.943  11.077  18.101  0.00  0.00    +0.000 C 
ATOM     35  C   UNL     1      -7.422  12.922  17.954  0.00  0.00    +0.000 C 
ENDBRANCH  32  33
ENDBRANCH  31  32
ENDBRANCH  30  31
ENDBRANCH  26  30
ENDBRANCH  15  19
TORSDOF 5
ENDMDL
MODEL 6
REMARK VINA RESULT:      -6.1      7.942     12.078
REMARK  Name = 
REMARK  8 active torsions:
REMARK  status: ('A' for Active; 'I' for Inactive)
REMARK    1  A    between atoms: C_1  and  N_2
REMARK    2  A    between atoms: N_15  and  C_16
REMARK    3  A    between atoms: N_23  and  C_24
REMARK    4  A    between atoms: C_24  and  C_25
REMARK    5  A    between atoms: C_25  and  C_26
REMARK    6  A    between atoms: C_26  and  N_27
REMARK    7  A    between atoms: N_27  and  C_28
REMARK    8  A    between atoms: N_27  and  C_29
REMARK                            x       y       z     vdW  Elec       q    Type
REMARK                         _______ _______ _______ _____ _____    ______ ____
ROOT
ATOM      1  C   UNL     1       8.247   9.950  18.483  0.00  0.00    +0.000 C 
ATOM      2  N   UNL     1       8.332   9.078  17.315  0.00  0.00    +0.000 N 
ATOM      3  C   UNL     1       8.004   7.737  17.508  0.00  0.00    +0.000 A 
ATOM      4  N   UNL     1       8.105   7.244  18.745  0.00  0.00    +0.000 NA
ATOM      5  C   UNL     1       7.522   6.054  18.964  0.00  0.00    +0.000 A 
ATOM      6  C   UNL     1       6.822   5.354  18.007  0.00  0.00    +0.000 A 
ATOM      7  C   UNL     1       6.975   5.790  16.704  0.00  0.00    +0.000 A 
ATOM      8  N   UNL     1       7.552   7.005  16.453  0.00  0.00    +0.000 NA
ATOM      9  N   UNL     1       6.614   4.914  15.672  0.00  0.00    +0.000 N 
ATOM     10  C   UNL     1       7.383   4.838  14.433  0.00  0.00    +0.000 C 
ATOM     11  C   UNL     1       6.522   3.968  13.517  0.00  0.00    +0.000 C 
ATOM     12  C   UNL     1       5.089   4.192  14.001  0.00  0.00    +0.000 C 
ATOM     13  C   UNL     1       5.170   4.713  15.461  0.00  0.00    +0.000 C 
ATOM     14  C   UNL     1       4.528   3.788  16.548  0.00  0.00    +0.000 C 
ATOM     15  N   UNL     1       4.604   4.339  17.923  0.00  0.00    +0.000 N 
ATOM     16  C   UNL     1       5.896   4.300  18.495  0.00  0.00    +0.000 C 
ATOM     17  O   UNL     1       6.207   3.658  19.492  0.00  0.00    +0.000 OA
ATOM     18  H   UNL     1       7.849   9.402  16.489  0.00  0.00    +0.000 HD
ENDROOT
BRANCH  15  19
ATOM     19  C   UNL     1       3.438   4.300  18.816  0.00  0.00    +0.000 A 
ATOM     20  C   UNL     1       3.334   3.425  19.912  0.00  0.00    +0.000 A 
ATOM     21  C   UNL     1       2.482   3.692  21.016  0.00  0.00    +0.000 A 
ATOM     22  C   UNL     1       1.909   4.949  21.163  0.00  0.00    +0.000 A 
ATOM     23  C   UNL     1       2.033   5.828  20.108  0.00  0.00    +0.000 A 
ATOM     24  C   UNL     1       1.607   7.256  20.162  0.00  0.00    +0.000 A 
ATOM     25  O   UNL     1       1.319   7.816  21.228  0.00  0.00    +0.000 OA
ATOM     26  N   UNL     1       1.557   7.873  18.920  0.00  0.00    +0.000 N 
ATOM     27  C   UNL     1       1.287   7.017  17.872  0.00  0.00    +0.000 A 
ATOM     28  N   UNL     1       1.931   5.907  17.707  0.00  0.00    +0.000 NA
ATOM     29  C   UNL     1       2.580   5.415  18.863  0.00  0.00    +0.000 A 
BRANCH  26  30
ATOM     30  C   UNL     1       2.734   8.672  18.551  0.00  0.00    +0.000 C 
BRANCH  30  31
ATOM     31  C   UNL     1       2.403  10.040  17.969  0.00  0.00    +0.000 C 
BRANCH  31  32
ATOM     32  C   UNL     1       1.035  10.567  18.454  0.00  0.00    +0.000 C 
BRANCH  32  33
ATOM     33  N   UNL     1       1.004  11.748  19.338  0.00  0.00    +0.000 NA
ATOM     34  C   UNL     1      -0.088  12.704  19.149  0.00  0.00    +0.000 C 
ATOM     35  C   UNL     1       0.972  11.299  20.735  0.00  0.00    +0.000 C 
ENDBRANCH  32  33
ENDBRANCH  31  32
ENDBRANCH  30  31
ENDBRANCH  26  30
ENDBRANCH  15  19
TORSDOF 5
ENDMDL
MODEL 7
REMARK VINA RESULT:      -6.1      2.885      6.914
REMARK  Name = 
REMARK  8 active torsions:
REMARK  status: ('A' for Active; 'I' for Inactive)
REMARK    1  A    between atoms: C_1  and  N_2
REMARK    2  A    between atoms: N_15  and  C_16
REMARK    3  A    between atoms: N_23  and  C_24
REMARK    4  A    between atoms: C_24  and  C_25
REMARK    5  A    between atoms: C_25  and  C_26
REMARK    6  A    between atoms: C_26  and  N_27
REMARK    7  A    between atoms: N_27  and  C_28
REMARK    8  A    between atoms: N_27  and  C_29
REMARK                            x       y       z     vdW  Elec       q    Type
REMARK                         _______ _______ _______ _____ _____    ______ ____
ROOT
ATOM      1  C   UNL     1       0.527   9.905  18.365  0.00  0.00    +0.000 C 
ATOM      2  N   UNL     1       1.504  10.989  18.318  0.00  0.00    +0.000 N 
ATOM      3  C   UNL     1       1.072  12.242  18.750  0.00  0.00    +0.000 A 
ATOM      4  N   UNL     1      -0.239  12.493  18.715  0.00  0.00    +0.000 NA
ATOM      5  C   UNL     1      -0.658  13.575  19.391  0.00  0.00    +0.000 A 
ATOM      6  C   UNL     1       0.174  14.397  20.118  0.00  0.00    +0.000 A 
ATOM      7  C   UNL     1       1.529  14.231  19.901  0.00  0.00    +0.000 A 
ATOM      8  N   UNL     1       1.985  13.130  19.229  0.00  0.00    +0.000 NA
ATOM      9  N   UNL     1       2.388  15.263  20.303  0.00  0.00    +0.000 N 
ATOM     10  C   UNL     1       3.561  15.629  19.512  0.00  0.00    +0.000 C 
ATOM     11  C   UNL     1       4.326  16.597  20.414  0.00  0.00    +0.000 C 
ATOM     12  C   UNL     1       3.948  16.186  21.837  0.00  0.00    +0.000 C 
ATOM     13  C   UNL     1       2.612  15.400  21.752  0.00  0.00    +0.000 C 
ATOM     14  C   UNL     1       1.393  16.053  22.487  0.00  0.00    +0.000 C 
ATOM     15  N   UNL     1       0.146  15.254  22.403  0.00  0.00    +0.000 N 
ATOM     16  C   UNL     1      -0.470  15.271  21.132  0.00  0.00    +0.000 C 
ATOM     17  O   UNL     1      -1.583  15.729  20.893  0.00  0.00    +0.000 OA
ATOM     18  H   UNL     1       2.394  10.797  18.755  0.00  0.00    +0.000 HD
ENDROOT
BRANCH  15  19
ATOM     19  C   UNL     1      -0.693  15.040  23.589  0.00  0.00    +0.000 A 
ATOM     20  C   UNL     1      -0.832  15.989  24.618  0.00  0.00    +0.000 A 
ATOM     21  C   UNL     1      -1.955  16.006  25.485  0.00  0.00    +0.000 A 
ATOM     22  C   UNL     1      -3.075  15.239  25.187  0.00  0.00    +0.000 A 
ATOM     23  C   UNL     1      -2.963  14.329  24.157  0.00  0.00    +0.000 A 
ATOM     24  C   UNL     1      -4.106  13.539  23.619  0.00  0.00    +0.000 A 
ATOM     25  O   UNL     1      -5.282  13.807  23.901  0.00  0.00    +0.000 OA
ATOM     26  N   UNL     1      -3.724  12.490  22.794  0.00  0.00    +0.000 N 
ATOM     27  C   UNL     1      -2.480  11.965  23.084  0.00  0.00    +0.000 A 
ATOM     28  N   UNL     1      -1.436  12.714  23.237  0.00  0.00    +0.000 NA
ATOM     29  C   UNL     1      -1.711  14.069  23.536  0.00  0.00    +0.000 A 
BRANCH  26  30
ATOM     30  C   UNL     1      -3.768  12.758  21.350  0.00  0.00    +0.000 C 
BRANCH  30  31
ATOM     31  C   UNL     1      -5.107  13.291  20.855  0.00  0.00    +0.000 C 
BRANCH  31  32
ATOM     32  C   UNL     1      -6.026  12.168  20.329  0.00  0.00    +0.000 C 
BRANCH  32  33
ATOM     33  N   UNL     1      -6.846  11.413  21.295  0.00  0.00    +0.000 NA
ATOM     34  C   UNL     1      -7.823  12.165  22.085  0.00  0.00    +0.000 C 
ATOM     35  C   UNL     1      -7.565  10.349  20.584  0.00  0.00    +0.000 C 
ENDBRANCH  32  33
ENDBRANCH  31  32
ENDBRANCH  30  31
ENDBRANCH  26  30
ENDBRANCH  15  19
TORSDOF 5
ENDMDL
MODEL 8
REMARK VINA RESULT:      -6.0      2.495      4.962
REMARK  Name = 
REMARK  8 active torsions:
REMARK  status: ('A' for Active; 'I' for Inactive)
REMARK    1  A    between atoms: C_1  and  N_2
REMARK    2  A    between atoms: N_15  and  C_16
REMARK    3  A    between atoms: N_23  and  C_24
REMARK    4  A    between atoms: C_24  and  C_25
REMARK    5  A    between atoms: C_25  and  C_26
REMARK    6  A    between atoms: C_26  and  N_27
REMARK    7  A    between atoms: N_27  and  C_28
REMARK    8  A    between atoms: N_27  and  C_29
REMARK                            x       y       z     vdW  Elec       q    Type
REMARK                         _______ _______ _______ _____ _____    ______ ____
ROOT
ATOM      1  C   UNL     1      -6.483  13.579  17.939  0.00  0.00    +0.000 C 
ATOM      2  N   UNL     1      -6.235  14.678  18.868  0.00  0.00    +0.000 N 
ATOM      3  C   UNL     1      -5.734  14.337  20.124  0.00  0.00    +0.000 A 
ATOM      4  N   UNL     1      -5.958  13.097  20.566  0.00  0.00    +0.000 NA
ATOM      5  C   UNL     1      -5.237  12.702  21.629  0.00  0.00    +0.000 A 
ATOM      6  C   UNL     1      -4.288  13.485  22.246  0.00  0.00    +0.000 A 
ATOM      7  C   UNL     1      -4.292  14.825  21.905  0.00  0.00    +0.000 A 
ATOM      8  N   UNL     1      -5.005  15.252  20.818  0.00  0.00    +0.000 NA
ATOM      9  N   UNL     1      -3.631  15.720  22.757  0.00  0.00    +0.000 N 
ATOM     10  C   UNL     1      -4.165  17.054  23.022  0.00  0.00    +0.000 C 
ATOM     11  C   UNL     1      -3.038  17.759  23.776  0.00  0.00    +0.000 C 
ATOM     12  C   UNL     1      -1.758  17.078  23.291  0.00  0.00    +0.000 C 
ATOM     13  C   UNL     1      -2.159  15.691  22.721  0.00  0.00    +0.000 C 
ATOM     14  C   UNL     1      -1.566  14.451  23.471  0.00  0.00    +0.000 C 
ATOM     15  N   UNL     1      -1.954  13.150  22.876  0.00  0.00    +0.000 N 
ATOM     16  C   UNL     1      -3.299  12.783  23.104  0.00  0.00    +0.000 C 
ATOM     17  O   UNL     1      -3.664  11.800  23.741  0.00  0.00    +0.000 OA
ATOM     18  H   UNL     1      -5.681  15.441  18.507  0.00  0.00    +0.000 HD
ENDROOT
BRANCH  15  19
ATOM     19  C   UNL     1      -0.960  12.087  22.675  0.00  0.00    +0.000 A 
ATOM     20  C   UNL     1      -1.162  10.755  23.075  0.00  0.00    +0.000 A 
ATOM     21  C   UNL     1      -0.458   9.672  22.486  0.00  0.00    +0.000 A 
ATOM     22  C   UNL     1       0.273   9.870  21.321  0.00  0.00    +0.000 A 
ATOM     23  C   UNL     1       0.449  11.170  20.898  0.00  0.00    +0.000 A 
ATOM     24  C   UNL     1       1.077  11.543  19.599  0.00  0.00    +0.000 A 
ATOM     25  O   UNL     1       1.280  10.712  18.704  0.00  0.00    +0.000 OA
ATOM     26  N   UNL     1       1.412  12.887  19.503  0.00  0.00    +0.000 N 
ATOM     27  C   UNL     1       1.705  13.486  20.712  0.00  0.00    +0.000 A 
ATOM     28  N   UNL     1       0.930  13.370  21.742  0.00  0.00    +0.000 NA
ATOM     29  C   UNL     1       0.043  12.269  21.703  0.00  0.00    +0.000 A 
BRANCH  26  30
ATOM     30  C   UNL     1       0.443  13.743  18.805  0.00  0.00    +0.000 C 
BRANCH  30  31
ATOM     31  C   UNL     1       0.686  15.236  18.986  0.00  0.00    +0.000 C 
BRANCH  31  32
ATOM     32  C   UNL     1      -0.311  16.094  18.178  0.00  0.00    +0.000 C 
BRANCH  32  33
ATOM     33  N   UNL     1      -0.562  17.482  18.609  0.00  0.00    +0.000 NA
ATOM     34  C   UNL     1      -0.783  18.484  17.565  0.00  0.00    +0.000 C 
ATOM     35  C   UNL     1      -1.725  17.503  19.505  0.00  0.00    +0.000 C 
ENDBRANCH  32  33
ENDBRANCH  31  32
ENDBRANCH  30  31
ENDBRANCH  26  30
ENDBRANCH  15  19
TORSDOF 5
ENDMDL
MODEL 9
REMARK VINA RESULT:      -6.0      9.960     13.503
REMARK  Name = 
REMARK  8 active torsions:
REMARK  status: ('A' for Active; 'I' for Inactive)
REMARK    1  A    between atoms: C_1  and  N_2
REMARK    2  A    between atoms: N_15  and  C_16
REMARK    3  A    between atoms: N_23  and  C_24
REMARK    4  A    between atoms: C_24  and  C_25
REMARK    5  A    between atoms: C_25  and  C_26
REMARK    6  A    between atoms: C_26  and  N_27
REMARK    7  A    between atoms: N_27  and  C_28
REMARK    8  A    between atoms: N_27  and  C_29
REMARK                            x       y       z     vdW  Elec       q    Type
REMARK                         _______ _______ _______ _____ _____    ______ ____
ROOT
ATOM      1  C   UNL     1       7.779  16.860  24.715  0.00  0.00    +0.000 C 
ATOM      2  N   UNL     1       6.639  16.822  23.804  0.00  0.00    +0.000 N 
ATOM      3  C   UNL     1       6.906  17.059  22.456  0.00  0.00    +0.000 A 
ATOM      4  N   UNL     1       8.010  17.746  22.152  0.00  0.00    +0.000 NA
ATOM      5  C   UNL     1       8.397  17.718  20.867  0.00  0.00    +0.000 A 
ATOM      6  C   UNL     1       7.743  17.012  19.883  0.00  0.00    +0.000 A 
ATOM      7  C   UNL     1       6.484  16.542  20.209  0.00  0.00    +0.000 A 
ATOM      8  N   UNL     1       6.069  16.545  21.513  0.00  0.00    +0.000 NA
ATOM      9  N   UNL     1       5.633  16.164  19.162  0.00  0.00    +0.000 N 
ATOM     10  C   UNL     1       4.197  16.430  19.213  0.00  0.00    +0.000 C 
ATOM     11  C   UNL     1       3.636  15.654  18.022  0.00  0.00    +0.000 C 
ATOM     12  C   UNL     1       4.612  14.495  17.817  0.00  0.00    +0.000 C 
ATOM     13  C   UNL     1       5.955  14.898  18.482  0.00  0.00    +0.000 C 
ATOM     14  C   UNL     1       7.179  15.031  17.515  0.00  0.00    +0.000 C 
ATOM     15  N   UNL     1       8.445  15.390  18.199  0.00  0.00    +0.000 N 
ATOM     16  C   UNL     1       8.508  16.731  18.641  0.00  0.00    +0.000 C 
ATOM     17  O   UNL     1       9.309  17.569  18.241  0.00  0.00    +0.000 OA
ATOM     18  H   UNL     1       6.053  16.002  23.867  0.00  0.00    +0.000 HD
ENDROOT
BRANCH  15  19
ATOM     19  C   UNL     1       9.699  14.697  17.875  0.00  0.00    +0.000 A 
ATOM     20  C   UNL     1      10.871  15.366  17.481  0.00  0.00    +0.000 A 
ATOM     21  C   UNL     1      12.159  14.787  17.627  0.00  0.00    +0.000 A 
ATOM     22  C   UNL     1      12.322  13.640  18.395  0.00  0.00    +0.000 A 
ATOM     23  C   UNL     1      11.180  12.994  18.817  0.00  0.00    +0.000 A 
ATOM     24  C   UNL     1      11.178  11.842  19.763  0.00  0.00    +0.000 A 
ATOM     25  O   UNL     1      12.182  11.527  20.417  0.00  0.00    +0.000 OA
ATOM     26  N   UNL     1       9.966  11.170  19.827  0.00  0.00    +0.000 N 
ATOM     27  C   UNL     1       9.226  11.224  18.663  0.00  0.00    +0.000 A 
ATOM     28  N   UNL     1       8.999  12.337  18.043  0.00  0.00    +0.000 NA
ATOM     29  C   UNL     1       9.895  13.387  18.352  0.00  0.00    +0.000 A 
BRANCH  26  30
ATOM     30  C   UNL     1       9.078  11.547  20.936  0.00  0.00    +0.000 C 
BRANCH  30  31
ATOM     31  C   UNL     1       9.636  12.641  21.838  0.00  0.00    +0.000 C 
BRANCH  31  32
ATOM     32  C   UNL     1       8.752  12.883  23.080  0.00  0.00    +0.000 C 
BRANCH  32  33
ATOM     33  N   UNL     1       7.435  12.225  23.151  0.00  0.00    +0.000 NA
ATOM     34  C   UNL     1       7.101  11.512  24.386  0.00  0.00    +0.000 C 
ATOM     35  C   UNL     1       6.386  13.225  22.912  0.00  0.00    +0.000 C 
ENDBRANCH  32  33
ENDBRANCH  31  32
ENDBRANCH  30  31
ENDBRANCH  26  30
ENDBRANCH  15  19
TORSDOF 5
ENDMDL
