MODEL 1
REMARK VINA RESULT:      -9.1      0.000      0.000
REMARK  Name = 
REMARK  7 active torsions:
REMARK  status: ('A' for Active; 'I' for Inactive)
REMARK    1  A    between atoms: C_1  and  C_2
REMARK    2  A    between atoms: C_3  and  C_4
REMARK    3  A    between atoms: C_6  and  C_7
REMARK    4  A    between atoms: C_13  and  O_14
REMARK    5  A    between atoms: O_14  and  C_15
REMARK    6  A    between atoms: C_15  and  C_16
REMARK    7  A    between atoms: C_18  and  C_19
REMARK                            x       y       z     vdW  Elec       q    Type
REMARK                         _______ _______ _______ _____ _____    ______ ____
ROOT
ATOM      1  C   UNL     1       2.952   7.701  17.867  0.00  0.00    +0.000 A 
ATOM      2  N   UNL     1       4.065   7.763  17.156  0.00  0.00    +0.000 NA
ATOM      3  C   UNL     1       4.575   6.484  17.107  0.00  0.00    +0.000 A 
ATOM      4  C   UNL     1       3.722   5.633  17.787  0.00  0.00    +0.000 A 
ATOM      5  O   UNL     1       2.690   6.407  18.263  0.00  0.00    +0.000 OA
ENDROOT
BRANCH   3   6
ATOM      6  C   UNL     1       5.881   6.240  16.405  0.00  0.00    +0.000 C 
ATOM      7  O   UNL     1       6.781   7.363  16.575  0.00  0.00    +0.000 OA
ATOM      8  C   UNL     1       7.440   7.516  17.748  0.00  0.00    +0.000 C 
ATOM      9  O   UNL     1       7.894   8.595  18.108  0.00  0.00    +0.000 OA
ATOM     10  C   UNL     1       7.676   6.299  18.544  0.00  0.00    +0.000 C 
ATOM     11  C   UNL     1       7.329   5.087  18.097  0.00  0.00    +0.000 C 
ATOM     12  C   UNL     1       6.572   4.911  16.815  0.00  0.00    +0.000 C 
BRANCH  12  13
ATOM     13  O   UNL     1       7.554   4.524  15.828  0.00  0.00    +0.000 OA
BRANCH  13  14
ATOM     14  C   UNL     1       7.218   4.737  14.529  0.00  0.00    +0.000 C 
ATOM     15  C   UNL     1       6.059   3.874  14.134  0.00  0.00    +0.000 C 
ATOM     16  O   UNL     1       7.741   5.553  13.783  0.00  0.00    +0.000 OA
ENDBRANCH  13  14
ENDBRANCH  12  13
ENDBRANCH   3   6
BRANCH   4  17
ATOM     17  C   UNL     1       3.674   4.218  18.152  0.00  0.00    +0.000 A 
ATOM     18  C   UNL     1       4.247   3.744  19.339  0.00  0.00    +0.000 A 
ATOM     19  C   UNL     1       4.109   2.408  19.727  0.00  0.00    +0.000 A 
ATOM     20  C   UNL     1       3.403   1.515  18.929  0.00  0.00    +0.000 A 
ATOM     21  C   UNL     1       2.863   1.950  17.723  0.00  0.00    +0.000 A 
ATOM     22  C   UNL     1       3.005   3.287  17.336  0.00  0.00    +0.000 A 
ENDBRANCH   4  17
BRANCH   1  25
ATOM     23  C   UNL     1       1.638   7.931  20.583  0.00  0.00    +0.000 C 
ATOM     24  C   UNL     1       1.523   8.896  19.441  0.00  0.00    +0.000 C 
ATOM     25  C   UNL     1       2.116   8.793  18.238  0.00  0.00    +0.000 C 
ENDBRANCH   1  25
TORSDOF 5
ENDMDL
MODEL 2
REMARK VINA RESULT:      -8.9      1.996      3.409
REMARK  Name = 
REMARK  7 active torsions:
REMARK  status: ('A' for Active; 'I' for Inactive)
REMARK    1  A    between atoms: C_1  and  C_2
REMARK    2  A    between atoms: C_3  and  C_4
REMARK    3  A    between atoms: C_6  and  C_7
REMARK    4  A    between atoms: C_13  and  O_14
REMARK    5  A    between atoms: O_14  and  C_15
REMARK    6  A    between atoms: C_15  and  C_16
REMARK    7  A    between atoms: C_18  and  C_19
REMARK                            x       y       z     vdW  Elec       q    Type
REMARK                         _______ _______ _______ _____ _____    ______ ____
ROOT
ATOM      1  C   UNL     1       2.182   8.130  18.000  0.00  0.00    +0.000 A 
ATOM      2  N   UNL     1       3.442   7.836  17.731  0.00  0.00    +0.000 NA
ATOM      3  C   UNL     1       3.675   6.581  18.249  0.00  0.00    +0.000 A 
ATOM      4  C   UNL     1       2.507   6.105  18.818  0.00  0.00    +0.000 A 
ATOM      5  O   UNL     1       1.559   7.088  18.654  0.00  0.00    +0.000 OA
ENDROOT
BRANCH   3   6
ATOM      6  C   UNL     1       5.052   5.987  18.146  0.00  0.00    +0.000 C 
ATOM      7  O   UNL     1       5.004   4.542  18.251  0.00  0.00    +0.000 OA
ATOM      8  C   UNL     1       4.607   3.810  17.182  0.00  0.00    +0.000 C 
ATOM      9  O   UNL     1       4.179   2.668  17.294  0.00  0.00    +0.000 OA
ATOM     10  C   UNL     1       4.801   4.413  15.852  0.00  0.00    +0.000 C 
ATOM     11  C   UNL     1       5.412   5.593  15.696  0.00  0.00    +0.000 C 
ATOM     12  C   UNL     1       5.827   6.423  16.873  0.00  0.00    +0.000 C 
BRANCH  12  13
ATOM     13  O   UNL     1       7.244   6.193  17.038  0.00  0.00    +0.000 OA
BRANCH  13  14
ATOM     14  C   UNL     1       7.844   6.847  18.068  0.00  0.00    +0.000 C 
ATOM     15  C   UNL     1       7.946   8.312  17.776  0.00  0.00    +0.000 C 
ATOM     16  O   UNL     1       8.209   6.337  19.118  0.00  0.00    +0.000 OA
ENDBRANCH  13  14
ENDBRANCH  12  13
ENDBRANCH   3   6
BRANCH   4  17
ATOM     17  C   UNL     1       2.070   4.919  19.553  0.00  0.00    +0.000 A 
ATOM     18  C   UNL     1       1.340   3.897  18.932  0.00  0.00    +0.000 A 
ATOM     19  C   UNL     1       1.014   2.722  19.617  0.00  0.00    +0.000 A 
ATOM     20  C   UNL     1       1.402   2.550  20.940  0.00  0.00    +0.000 A 
ATOM     21  C   UNL     1       2.087   3.569  21.593  0.00  0.00    +0.000 A 
ATOM     22  C   UNL     1       2.411   4.744  20.907  0.00  0.00    +0.000 A 
ENDBRANCH   4  17
BRANCH   1  25
ATOM     23  C   UNL     1       0.845   9.822  20.124  0.00  0.00    +0.000 C 
ATOM     24  C   UNL     1       0.910  10.106  18.652  0.00  0.00    +0.000 C 
ATOM     25  C   UNL     1       1.512   9.355  17.714  0.00  0.00    +0.000 C 
ENDBRANCH   1  25
TORSDOF 5
ENDMDL
MODEL 3
REMARK VINA RESULT:      -8.7      1.450      4.238
REMARK  Name = 
REMARK  7 active torsions:
REMARK  status: ('A' for Active; 'I' for Inactive)
REMARK    1  A    between atoms: C_1  and  C_2
REMARK    2  A    between atoms: C_3  and  C_4
REMARK    3  A    between atoms: C_6  and  C_7
REMARK    4  A    between atoms: C_13  and  O_14
REMARK    5  A    between atoms: O_14  and  C_15
REMARK    6  A    between atoms: C_15  and  C_16
REMARK    7  A    between atoms: C_18  and  C_19
REMARK                            x       y       z     vdW  Elec       q    Type
REMARK                         _______ _______ _______ _____ _____    ______ ____
ROOT
ATOM      1  C   UNL     1       3.315   4.079  19.373  0.00  0.00    +0.000 A 
ATOM      2  N   UNL     1       4.224   4.293  18.438  0.00  0.00    +0.000 NA
ATOM      3  C   UNL     1       4.101   5.612  18.061  0.00  0.00    +0.000 A 
ATOM      4  C   UNL     1       3.106   6.206  18.817  0.00  0.00    +0.000 A 
ATOM      5  O   UNL     1       2.613   5.232  19.654  0.00  0.00    +0.000 OA
ENDROOT
BRANCH   3   6
ATOM      6  C   UNL     1       4.976   6.148  16.962  0.00  0.00    +0.000 C 
ATOM      7  O   UNL     1       6.100   6.884  17.504  0.00  0.00    +0.000 OA
ATOM      8  C   UNL     1       7.156   6.205  18.014  0.00  0.00    +0.000 C 
ATOM      9  O   UNL     1       7.936   6.711  18.811  0.00  0.00    +0.000 OA
ATOM     10  C   UNL     1       7.388   4.846  17.496  0.00  0.00    +0.000 C 
ATOM     11  C   UNL     1       6.644   4.331  16.511  0.00  0.00    +0.000 C 
ATOM     12  C   UNL     1       5.456   5.061  15.961  0.00  0.00    +0.000 C 
BRANCH  12  13
ATOM     13  O   UNL     1       5.903   5.670  14.729  0.00  0.00    +0.000 OA
BRANCH  13  14
ATOM     14  C   UNL     1       6.849   4.989  14.030  0.00  0.00    +0.000 C 
ATOM     15  C   UNL     1       6.249   3.795  13.353  0.00  0.00    +0.000 C 
ATOM     16  O   UNL     1       8.021   5.318  13.913  0.00  0.00    +0.000 OA
ENDBRANCH  13  14
ENDBRANCH  12  13
ENDBRANCH   3   6
BRANCH   4  17
ATOM     17  C   UNL     1       2.450   7.510  18.906  0.00  0.00    +0.000 A 
ATOM     18  C   UNL     1       2.392   8.379  17.809  0.00  0.00    +0.000 A 
ATOM     19  C   UNL     1       1.677   9.580  17.874  0.00  0.00    +0.000 A 
ATOM     20  C   UNL     1       1.015   9.939  19.042  0.00  0.00    +0.000 A 
ATOM     21  C   UNL     1       1.096   9.116  20.159  0.00  0.00    +0.000 A 
ATOM     22  C   UNL     1       1.813   7.917  20.092  0.00  0.00    +0.000 A 
ENDBRANCH   4  17
BRANCH   1  25
ATOM     23  C   UNL     1       0.869   2.415  18.736  0.00  0.00    +0.000 C 
ATOM     24  C   UNL     1       1.937   2.101  19.741  0.00  0.00    +0.000 C 
ATOM     25  C   UNL     1       3.027   2.840  20.015  0.00  0.00    +0.000 C 
ENDBRANCH   1  25
TORSDOF 5
ENDMDL
MODEL 4
REMARK VINA RESULT:      -8.6      0.593      1.193
REMARK  Name = 
REMARK  7 active torsions:
REMARK  status: ('A' for Active; 'I' for Inactive)
REMARK    1  A    between atoms: C_1  and  C_2
REMARK    2  A    between atoms: C_3  and  C_4
REMARK    3  A    between atoms: C_6  and  C_7
REMARK    4  A    between atoms: C_13  and  O_14
REMARK    5  A    between atoms: O_14  and  C_15
REMARK    6  A    between atoms: C_15  and  C_16
REMARK    7  A    between atoms: C_18  and  C_19
REMARK                            x       y       z     vdW  Elec       q    Type
REMARK                         _______ _______ _______ _____ _____    ______ ____
ROOT
ATOM      1  C   UNL     1       2.885   7.716  17.894  0.00  0.00    +0.000 A 
ATOM      2  N   UNL     1       3.972   7.756  17.143  0.00  0.00    +0.000 NA
ATOM      3  C   UNL     1       4.463   6.470  17.087  0.00  0.00    +0.000 A 
ATOM      4  C   UNL     1       3.624   5.637  17.805  0.00  0.00    +0.000 A 
ATOM      5  O   UNL     1       2.620   6.428  18.311  0.00  0.00    +0.000 OA
ENDROOT
BRANCH   3   6
ATOM      6  C   UNL     1       5.739   6.203  16.340  0.00  0.00    +0.000 C 
ATOM      7  O   UNL     1       6.674   7.300  16.499  0.00  0.00    +0.000 OA
ATOM      8  C   UNL     1       7.373   7.416  17.653  0.00  0.00    +0.000 C 
ATOM      9  O   UNL     1       7.867   8.476  18.014  0.00  0.00    +0.000 OA
ATOM     10  C   UNL     1       7.601   6.180  18.422  0.00  0.00    +0.000 C 
ATOM     11  C   UNL     1       7.207   4.985  17.968  0.00  0.00    +0.000 C 
ATOM     12  C   UNL     1       6.407   4.850  16.708  0.00  0.00    +0.000 C 
BRANCH  12  13
ATOM     13  O   UNL     1       7.347   4.453  15.685  0.00  0.00    +0.000 OA
BRANCH  13  14
ATOM     14  C   UNL     1       6.855   4.352  14.422  0.00  0.00    +0.000 C 
ATOM     15  C   UNL     1       7.666   5.178  13.471  0.00  0.00    +0.000 C 
ATOM     16  O   UNL     1       5.915   3.650  14.078  0.00  0.00    +0.000 OA
ENDBRANCH  13  14
ENDBRANCH  12  13
ENDBRANCH   3   6
BRANCH   4  17
ATOM     17  C   UNL     1       3.571   4.225  18.183  0.00  0.00    +0.000 A 
ATOM     18  C   UNL     1       2.968   3.266  17.358  0.00  0.00    +0.000 A 
ATOM     19  C   UNL     1       3.011   1.905  17.680  0.00  0.00    +0.000 A 
ATOM     20  C   UNL     1       3.648   1.478  18.840  0.00  0.00    +0.000 A 
ATOM     21  C   UNL     1       4.213   2.415  19.698  0.00  0.00    +0.000 A 
ATOM     22  C   UNL     1       4.167   3.775  19.375  0.00  0.00    +0.000 A 
ENDBRANCH   4  17
BRANCH   1  25
ATOM     23  C   UNL     1       1.593   7.938  20.622  0.00  0.00    +0.000 C 
ATOM     24  C   UNL     1       1.494   8.922  19.494  0.00  0.00    +0.000 C 
ATOM     25  C   UNL     1       2.077   8.822  18.286  0.00  0.00    +0.000 C 
ENDBRANCH   1  25
TORSDOF 5
ENDMDL
MODEL 5
REMARK VINA RESULT:      -8.6      1.925      3.224
REMARK  Name = 
REMARK  7 active torsions:
REMARK  status: ('A' for Active; 'I' for Inactive)
REMARK    1  A    between atoms: C_1  and  C_2
REMARK    2  A    between atoms: C_3  and  C_4
REMARK    3  A    between atoms: C_6  and  C_7
REMARK    4  A    between atoms: C_13  and  O_14
REMARK    5  A    between atoms: O_14  and  C_15
REMARK    6  A    between atoms: C_15  and  C_16
REMARK    7  A    between atoms: C_18  and  C_19
REMARK                            x       y       z     vdW  Elec       q    Type
REMARK                         _______ _______ _______ _____ _____    ______ ____
ROOT
ATOM      1  C   UNL     1       2.182   8.130  17.998  0.00  0.00    +0.000 A 
ATOM      2  N   UNL     1       3.448   7.867  17.725  0.00  0.00    +0.000 NA
ATOM      3  C   UNL     1       3.709   6.611  18.226  0.00  0.00    +0.000 A 
ATOM      4  C   UNL     1       2.553   6.102  18.789  0.00  0.00    +0.000 A 
ATOM      5  O   UNL     1       1.583   7.065  18.638  0.00  0.00    +0.000 OA
ENDROOT
BRANCH   3   6
ATOM      6  C   UNL     1       5.099   6.050  18.115  0.00  0.00    +0.000 C 
ATOM      7  O   UNL     1       5.081   4.601  18.177  0.00  0.00    +0.000 OA
ATOM      8  C   UNL     1       4.707   3.894  17.084  0.00  0.00    +0.000 C 
ATOM      9  O   UNL     1       4.303   2.740  17.159  0.00  0.00    +0.000 OA
ATOM     10  C   UNL     1       4.897   4.539  15.774  0.00  0.00    +0.000 C 
ATOM     11  C   UNL     1       5.483   5.736  15.657  0.00  0.00    +0.000 C 
ATOM     12  C   UNL     1       5.873   6.540  16.861  0.00  0.00    +0.000 C 
BRANCH  12  13
ATOM     13  O   UNL     1       7.293   6.335  17.029  0.00  0.00    +0.000 OA
BRANCH  13  14
ATOM     14  C   UNL     1       7.863   6.929  18.110  0.00  0.00    +0.000 C 
ATOM     15  C   UNL     1       8.126   5.924  19.189  0.00  0.00    +0.000 C 
ATOM     16  O   UNL     1       8.175   8.108  18.192  0.00  0.00    +0.000 OA
ENDBRANCH  13  14
ENDBRANCH  12  13
ENDBRANCH   3   6
BRANCH   4  17
ATOM     17  C   UNL     1       2.143   4.896  19.509  0.00  0.00    +0.000 A 
ATOM     18  C   UNL     1       2.468   4.700  20.857  0.00  0.00    +0.000 A 
ATOM     19  C   UNL     1       1.986   3.592  21.563  0.00  0.00    +0.000 A 
ATOM     20  C   UNL     1       1.178   2.654  20.931  0.00  0.00    +0.000 A 
ATOM     21  C   UNL     1       0.880   2.803  19.581  0.00  0.00    +0.000 A 
ATOM     22  C   UNL     1       1.365   3.910  18.877  0.00  0.00    +0.000 A 
ENDBRANCH   4  17
BRANCH   1  25
ATOM     23  C   UNL     1       0.833   9.778  20.147  0.00  0.00    +0.000 C 
ATOM     24  C   UNL     1       0.876  10.074  18.678  0.00  0.00    +0.000 C 
ATOM     25  C   UNL     1       1.484   9.342  17.727  0.00  0.00    +0.000 C 
ENDBRANCH   1  25
TORSDOF 5
ENDMDL
MODEL 6
REMARK VINA RESULT:      -8.4      1.571      4.140
REMARK  Name = 
REMARK  7 active torsions:
REMARK  status: ('A' for Active; 'I' for Inactive)
REMARK    1  A    between atoms: C_1  and  C_2
REMARK    2  A    between atoms: C_3  and  C_4
REMARK    3  A    between atoms: C_6  and  C_7
REMARK    4  A    between atoms: C_13  and  O_14
REMARK    5  A    between atoms: O_14  and  C_15
REMARK    6  A    between atoms: C_15  and  C_16
REMARK    7  A    between atoms: C_18  and  C_19
REMARK                            x       y       z     vdW  Elec       q    Type
REMARK                         _______ _______ _______ _____ _____    ______ ____
ROOT
ATOM      1  C   UNL     1       2.986   3.587  18.153  0.00  0.00    +0.000 A 
ATOM      2  N   UNL     1       4.040   3.883  17.412  0.00  0.00    +0.000 NA
ATOM      3  C   UNL     1       4.123   5.257  17.373  0.00  0.00    +0.000 A 
ATOM      4  C   UNL     1       3.103   5.792  18.139  0.00  0.00    +0.000 A 
ATOM      5  O   UNL     1       2.387   4.730  18.638  0.00  0.00    +0.000 OA
ENDROOT
BRANCH   3   6
ATOM      6  C   UNL     1       5.203   5.905  16.552  0.00  0.00    +0.000 C 
ATOM      7  O   UNL     1       6.130   6.634  17.395  0.00  0.00    +0.000 OA
ATOM      8  C   UNL     1       7.069   5.954  18.094  0.00  0.00    +0.000 C 
ATOM      9  O   UNL     1       7.614   6.423  19.086  0.00  0.00    +0.000 OA
ATOM     10  C   UNL     1       7.486   4.648  17.555  0.00  0.00    +0.000 C 
ATOM     11  C   UNL     1       7.021   4.186  16.389  0.00  0.00    +0.000 C 
ATOM     12  C   UNL     1       5.960   4.917  15.623  0.00  0.00    +0.000 C 
BRANCH  12  13
ATOM     13  O   UNL     1       6.651   5.634  14.576  0.00  0.00    +0.000 OA
BRANCH  13  14
ATOM     14  C   UNL     1       6.987   4.913  13.474  0.00  0.00    +0.000 C 
ATOM     15  C   UNL     1       8.162   5.529  12.778  0.00  0.00    +0.000 C 
ATOM     16  O   UNL     1       6.452   3.875  13.112  0.00  0.00    +0.000 OA
ENDBRANCH  13  14
ENDBRANCH  12  13
ENDBRANCH   3   6
BRANCH   4  17
ATOM     17  C   UNL     1       2.594   7.119  18.484  0.00  0.00    +0.000 A 
ATOM     18  C   UNL     1       2.539   8.153  17.540  0.00  0.00    +0.000 A 
ATOM     19  C   UNL     1       1.958   9.387  17.852  0.00  0.00    +0.000 A 
ATOM     20  C   UNL     1       1.431   9.614  19.118  0.00  0.00    +0.000 A 
ATOM     21  C   UNL     1       1.515   8.620  20.086  0.00  0.00    +0.000 A 
ATOM     22  C   UNL     1       2.098   7.388  19.772  0.00  0.00    +0.000 A 
ENDBRANCH   4  17
BRANCH   1  25
ATOM     23  C   UNL     1       1.265   2.952  20.560  0.00  0.00    +0.000 C 
ATOM     24  C   UNL     1       1.711   1.997  19.492  0.00  0.00    +0.000 C 
ATOM     25  C   UNL     1       2.469   2.287  18.420  0.00  0.00    +0.000 C 
ENDBRANCH   1  25
TORSDOF 5
ENDMDL
MODEL 7
REMARK VINA RESULT:      -8.2      1.491      4.081
REMARK  Name = 
REMARK  7 active torsions:
REMARK  status: ('A' for Active; 'I' for Inactive)
REMARK    1  A    between atoms: C_1  and  C_2
REMARK    2  A    between atoms: C_3  and  C_4
REMARK    3  A    between atoms: C_6  and  C_7
REMARK    4  A    between atoms: C_13  and  O_14
REMARK    5  A    between atoms: O_14  and  C_15
REMARK    6  A    between atoms: C_15  and  C_16
REMARK    7  A    between atoms: C_18  and  C_19
REMARK                            x       y       z     vdW  Elec       q    Type
REMARK                         _______ _______ _______ _____ _____    ______ ____
ROOT
ATOM      1  C   UNL     1       3.056   3.822  18.870  0.00  0.00    +0.000 A 
ATOM      2  N   UNL     1       4.063   4.101  18.059  0.00  0.00    +0.000 NA
ATOM      3  C   UNL     1       4.025   5.459  17.833  0.00  0.00    +0.000 A 
ATOM      4  C   UNL     1       2.979   6.006  18.555  0.00  0.00    +0.000 A 
ATOM      5  O   UNL     1       2.370   4.967  19.217  0.00  0.00    +0.000 OA
ENDROOT
BRANCH   3   6
ATOM      6  C   UNL     1       5.024   6.076  16.895  0.00  0.00    +0.000 C 
ATOM      7  O   UNL     1       6.081   6.745  17.629  0.00  0.00    +0.000 OA
ATOM      8  C   UNL     1       7.066   6.009  18.196  0.00  0.00    +0.000 C 
ATOM      9  O   UNL     1       7.749   6.431  19.120  0.00  0.00    +0.000 OA
ATOM     10  C   UNL     1       7.353   4.697  17.588  0.00  0.00    +0.000 C 
ATOM     11  C   UNL     1       6.727   4.282  16.481  0.00  0.00    +0.000 C 
ATOM     12  C   UNL     1       5.614   5.076  15.865  0.00  0.00    +0.000 C 
BRANCH  12  13
ATOM     13  O   UNL     1       6.205   5.784  14.752  0.00  0.00    +0.000 OA
BRANCH  13  14
ATOM     14  C   UNL     1       6.992   5.051  13.921  0.00  0.00    +0.000 C 
ATOM     15  C   UNL     1       6.226   3.897  13.349  0.00  0.00    +0.000 C 
ATOM     16  O   UNL     1       8.150   5.309  13.626  0.00  0.00    +0.000 OA
ENDBRANCH  13  14
ENDBRANCH  12  13
ENDBRANCH   3   6
BRANCH   4  17
ATOM     17  C   UNL     1       2.364   7.321  18.736  0.00  0.00    +0.000 A 
ATOM     18  C   UNL     1       1.811   7.711  19.962  0.00  0.00    +0.000 A 
ATOM     19  C   UNL     1       1.316   9.005  20.154  0.00  0.00    +0.000 A 
ATOM     20  C   UNL     1       1.355   9.932  19.119  0.00  0.00    +0.000 A 
ATOM     21  C   UNL     1       1.858   9.555  17.878  0.00  0.00    +0.000 A 
ATOM     22  C   UNL     1       2.350   8.260  17.688  0.00  0.00    +0.000 A 
ENDBRANCH   4  17
BRANCH   1  25
ATOM     23  C   UNL     1       2.063   3.294  21.679  0.00  0.00    +0.000 C 
ATOM     24  C   UNL     1       2.227   2.290  20.577  0.00  0.00    +0.000 C 
ATOM     25  C   UNL     1       2.661   2.532  19.327  0.00  0.00    +0.000 C 
ENDBRANCH   1  25
TORSDOF 5
ENDMDL
MODEL 8
REMARK VINA RESULT:      -8.1      1.373      4.234
REMARK  Name = 
REMARK  7 active torsions:
REMARK  status: ('A' for Active; 'I' for Inactive)
REMARK    1  A    between atoms: C_1  and  C_2
REMARK    2  A    between atoms: C_3  and  C_4
REMARK    3  A    between atoms: C_6  and  C_7
REMARK    4  A    between atoms: C_13  and  O_14
REMARK    5  A    between atoms: O_14  and  C_15
REMARK    6  A    between atoms: C_15  and  C_16
REMARK    7  A    between atoms: C_18  and  C_19
REMARK                            x       y       z     vdW  Elec       q    Type
REMARK                         _______ _______ _______ _____ _____    ______ ____
ROOT
ATOM      1  C   UNL     1       3.057   3.596  18.117  0.00  0.00    +0.000 A 
ATOM      2  N   UNL     1       4.067   3.930  17.333  0.00  0.00    +0.000 NA
ATOM      3  C   UNL     1       4.106   5.307  17.302  0.00  0.00    +0.000 A 
ATOM      4  C   UNL     1       3.105   5.804  18.116  0.00  0.00    +0.000 A 
ATOM      5  O   UNL     1       2.444   4.716  18.638  0.00  0.00    +0.000 OA
ENDROOT
BRANCH   3   6
ATOM      6  C   UNL     1       5.128   5.994  16.440  0.00  0.00    +0.000 C 
ATOM      7  O   UNL     1       6.074   6.738  17.248  0.00  0.00    +0.000 OA
ATOM      8  C   UNL     1       7.063   6.076  17.894  0.00  0.00    +0.000 C 
ATOM      9  O   UNL     1       7.641   6.548  18.865  0.00  0.00    +0.000 OA
ATOM     10  C   UNL     1       7.490   4.788  17.319  0.00  0.00    +0.000 C 
ATOM     11  C   UNL     1       6.983   4.328  16.170  0.00  0.00    +0.000 C 
ATOM     12  C   UNL     1       5.867   5.038  15.464  0.00  0.00    +0.000 C 
BRANCH  12  13
ATOM     13  O   UNL     1       6.489   5.786  14.396  0.00  0.00    +0.000 OA
BRANCH  13  14
ATOM     14  C   UNL     1       7.119   5.056  13.437  0.00  0.00    +0.000 C 
ATOM     15  C   UNL     1       6.311   3.849  13.075  0.00  0.00    +0.000 C 
ATOM     16  O   UNL     1       8.173   5.354  12.895  0.00  0.00    +0.000 OA
ENDBRANCH  13  14
ENDBRANCH  12  13
ENDBRANCH   3   6
BRANCH   4  17
ATOM     17  C   UNL     1       2.571   7.112  18.495  0.00  0.00    +0.000 A 
ATOM     18  C   UNL     1       2.466   8.158  17.569  0.00  0.00    +0.000 A 
ATOM     19  C   UNL     1       1.861   9.372  17.914  0.00  0.00    +0.000 A 
ATOM     20  C   UNL     1       1.360   9.566  19.196  0.00  0.00    +0.000 A 
ATOM     21  C   UNL     1       1.494   8.560  20.146  0.00  0.00    +0.000 A 
ATOM     22  C   UNL     1       2.100   7.348  19.799  0.00  0.00    +0.000 A 
ENDBRANCH   4  17
BRANCH   1  25
ATOM     23  C   UNL     1       4.413   1.745  20.090  0.00  0.00    +0.000 C 
ATOM     24  C   UNL     1       3.196   1.449  19.265  0.00  0.00    +0.000 C 
ATOM     25  C   UNL     1       2.593   2.279  18.395  0.00  0.00    +0.000 C 
ENDBRANCH   1  25
TORSDOF 5
ENDMDL
MODEL 9
REMARK VINA RESULT:      -7.6      1.739      2.046
REMARK  Name = 
REMARK  7 active torsions:
REMARK  status: ('A' for Active; 'I' for Inactive)
REMARK    1  A    between atoms: C_1  and  C_2
REMARK    2  A    between atoms: C_3  and  C_4
REMARK    3  A    between atoms: C_6  and  C_7
REMARK    4  A    between atoms: C_13  and  O_14
REMARK    5  A    between atoms: O_14  and  C_15
REMARK    6  A    between atoms: C_15  and  C_16
REMARK    7  A    between atoms: C_18  and  C_19
REMARK                            x       y       z     vdW  Elec       q    Type
REMARK                         _______ _______ _______ _____ _____    ______ ____
ROOT
ATOM      1  C   UNL     1       2.651   8.191  17.764  0.00  0.00    +0.000 A 
ATOM      2  N   UNL     1       3.770   7.748  17.219  0.00  0.00    +0.000 NA
ATOM      3  C   UNL     1       3.837   6.400  17.491  0.00  0.00    +0.000 A 
ATOM      4  C   UNL     1       2.707   6.027  18.197  0.00  0.00    +0.000 A 
ATOM      5  O   UNL     1       1.952   7.164  18.364  0.00  0.00    +0.000 OA
ENDROOT
BRANCH   3   6
ATOM      6  C   UNL     1       5.038   5.617  17.040  0.00  0.00    +0.000 C 
ATOM      7  O   UNL     1       6.156   5.814  17.942  0.00  0.00    +0.000 OA
ATOM      8  C   UNL     1       6.176   5.162  19.129  0.00  0.00    +0.000 C 
ATOM      9  O   UNL     1       6.848   5.549  20.076  0.00  0.00    +0.000 OA
ATOM     10  C   UNL     1       5.422   3.899  19.209  0.00  0.00    +0.000 C 
ATOM     11  C   UNL     1       4.810   3.376  18.141  0.00  0.00    +0.000 C 
ATOM     12  C   UNL     1       4.756   4.104  16.832  0.00  0.00    +0.000 C 
BRANCH  12  13
ATOM     13  O   UNL     1       5.780   3.506  16.006  0.00  0.00    +0.000 OA
BRANCH  13  14
ATOM     14  C   UNL     1       6.267   4.277  14.998  0.00  0.00    +0.000 C 
ATOM     15  C   UNL     1       5.355   4.234  13.811  0.00  0.00    +0.000 C 
ATOM     16  O   UNL     1       7.279   4.961  15.051  0.00  0.00    +0.000 OA
ENDBRANCH  13  14
ENDBRANCH  12  13
ENDBRANCH   3   6
BRANCH   4  17
ATOM     17  C   UNL     1       2.173   4.815  18.819  0.00  0.00    +0.000 A 
ATOM     18  C   UNL     1       2.222   4.618  20.204  0.00  0.00    +0.000 A 
ATOM     19  C   UNL     1       1.620   3.503  20.799  0.00  0.00    +0.000 A 
ATOM     20  C   UNL     1       0.967   2.559  20.016  0.00  0.00    +0.000 A 
ATOM     21  C   UNL     1       0.944   2.708  18.634  0.00  0.00    +0.000 A 
ATOM     22  C   UNL     1       1.548   3.822  18.042  0.00  0.00    +0.000 A 
ENDBRANCH   4  17
BRANCH   1  25
ATOM     23  C   UNL     1       0.967   9.316  20.013  0.00  0.00    +0.000 C 
ATOM     24  C   UNL     1       1.437  10.043  18.788  0.00  0.00    +0.000 C 
ATOM     25  C   UNL     1       2.192   9.540  17.795  0.00  0.00    +0.000 C 
ENDBRANCH   1  25
TORSDOF 5
ENDMDL
