MODEL 1
REMARK VINA RESULT:      -9.5      0.000      0.000
REMARK  Name = 
REMARK  4 active torsions:
REMARK  status: ('A' for Active; 'I' for Inactive)
REMARK    1  A    between atoms: S_2  and  N_4
REMARK    2  A    between atoms: S_2  and  C_21
REMARK    3  A    between atoms: N_4  and  C_5
REMARK    4  A    between atoms: C_8  and  C_9
REMARK                            x       y       z     vdW  Elec       q    Type
REMARK                         _______ _______ _______ _____ _____    ______ ____
ROOT
ATOM      1  C   UNL     1       4.494   5.470  17.578  0.00  0.00    +0.000 A 
ATOM      2  C   UNL     1       4.141   6.708  17.050  0.00  0.00    +0.000 A 
ATOM      3  C   UNL     1       3.262   7.540  17.753  0.00  0.00    +0.000 A 
ATOM      4  C   UNL     1       2.733   7.148  18.993  0.00  0.00    +0.000 A 
ATOM      5  C   UNL     1       3.083   5.886  19.496  0.00  0.00    +0.000 A 
ATOM      6  C   UNL     1       3.948   5.046  18.785  0.00  0.00    +0.000 A 
ENDROOT
BRANCH   4   7
ATOM      7  C   UNL     1       1.839   8.045  19.733  0.00  0.00    +0.000 A 
ATOM      8  C   UNL     1       1.176   9.188  19.320  0.00  0.00    +0.000 A 
ATOM      9  C   UNL     1       0.482   9.743  20.429  0.00  0.00    +0.000 A 
ATOM     10  C   UNL     1      -0.335  10.875  20.604  0.00  0.00    +0.000 A 
ATOM     11  C   UNL     1      -0.816  11.161  21.880  0.00  0.00    +0.000 A 
ATOM     12  F   UNL     1      -1.583  12.246  22.060  0.00  0.00    +0.000 F 
ATOM     13  C   UNL     1      -0.514  10.356  22.971  0.00  0.00    +0.000 A 
ATOM     14  C   UNL     1       0.272   9.210  22.814  0.00  0.00    +0.000 A 
ATOM     15  C   UNL     1       0.751   8.928  21.527  0.00  0.00    +0.000 A 
ATOM     16  N   UNL     1       1.533   7.887  21.071  0.00  0.00    +0.000 N 
ATOM     17  H   UNL     1       1.871   7.138  21.655  0.00  0.00    +0.000 HD
ENDBRANCH   4   7
BRANCH   1  18
ATOM     18  N   UNL     1       5.382   4.630  16.869  0.00  0.00    +0.000 N 
ATOM     19  H   UNL     1       5.205   3.631  16.799  0.00  0.00    +0.000 HD
BRANCH  18  21
ATOM     20  O   UNL     1       6.856   6.618  16.530  0.00  0.00    +0.000 OA
ATOM     21  S   UNL     1       6.885   5.177  16.377  0.00  0.00    +0.000 S 
ATOM     22  O   UNL     1       7.917   4.378  16.998  0.00  0.00    +0.000 OA
BRANCH  21  23
ATOM     23  C   UNL     1       6.906   4.839  14.629  0.00  0.00    +0.000 A 
ATOM     24  C   UNL     1       7.804   5.527  13.799  0.00  0.00    +0.000 A 
ATOM     25  C   UNL     1       7.868   5.218  12.438  0.00  0.00    +0.000 A 
ATOM     26  C   UNL     1       7.042   4.225  11.914  0.00  0.00    +0.000 A 
ATOM     27  C   UNL     1       6.162   3.543  12.752  0.00  0.00    +0.000 A 
ATOM     28  F   UNL     1       5.376   2.589  12.240  0.00  0.00    +0.000 F 
ATOM     29  C   UNL     1       6.087   3.833  14.110  0.00  0.00    +0.000 A 
ENDBRANCH  21  23
ENDBRANCH  18  21
ENDBRANCH   1  18
TORSDOF 4
ENDMDL
MODEL 2
REMARK VINA RESULT:      -9.4      0.672      1.196
REMARK  Name = 
REMARK  4 active torsions:
REMARK  status: ('A' for Active; 'I' for Inactive)
REMARK    1  A    between atoms: S_2  and  N_4
REMARK    2  A    between atoms: S_2  and  C_21
REMARK    3  A    between atoms: N_4  and  C_5
REMARK    4  A    between atoms: C_8  and  C_9
REMARK                            x       y       z     vdW  Elec       q    Type
REMARK                         _______ _______ _______ _____ _____    ______ ____
ROOT
ATOM      1  C   UNL     1       4.405   5.522  17.540  0.00  0.00    +0.000 A 
ATOM      2  C   UNL     1       3.971   6.738  17.023  0.00  0.00    +0.000 A 
ATOM      3  C   UNL     1       3.136   7.561  17.787  0.00  0.00    +0.000 A 
ATOM      4  C   UNL     1       2.733   7.182  19.077  0.00  0.00    +0.000 A 
ATOM      5  C   UNL     1       3.162   5.941  19.570  0.00  0.00    +0.000 A 
ATOM      6  C   UNL     1       3.982   5.109  18.800  0.00  0.00    +0.000 A 
ENDROOT
BRANCH   4   7
ATOM      7  C   UNL     1       1.884   8.071  19.878  0.00  0.00    +0.000 A 
ATOM      8  C   UNL     1       1.370   7.908  21.154  0.00  0.00    +0.000 A 
ATOM      9  C   UNL     1       0.547   9.024  21.464  0.00  0.00    +0.000 A 
ATOM     10  C   UNL     1      -0.220   9.392  22.584  0.00  0.00    +0.000 A 
ATOM     11  C   UNL     1      -0.976  10.560  22.523  0.00  0.00    +0.000 A 
ATOM     12  F   UNL     1      -1.721  10.912  23.581  0.00  0.00    +0.000 F 
ATOM     13  C   UNL     1      -0.984  11.365  21.390  0.00  0.00    +0.000 A 
ATOM     14  C   UNL     1      -0.207  11.034  20.276  0.00  0.00    +0.000 A 
ATOM     15  C   UNL     1       0.552   9.857  20.346  0.00  0.00    +0.000 A 
ATOM     16  N   UNL     1       1.401   9.283  19.424  0.00  0.00    +0.000 N 
ATOM     17  H   UNL     1       1.602   9.680  18.518  0.00  0.00    +0.000 HD
ENDBRANCH   4   7
BRANCH   1  18
ATOM     18  N   UNL     1       5.249   4.690  16.770  0.00  0.00    +0.000 N 
ATOM     19  H   UNL     1       5.013   3.713  16.615  0.00  0.00    +0.000 HD
BRANCH  18  21
ATOM     20  O   UNL     1       6.805   6.625  16.489  0.00  0.00    +0.000 OA
ATOM     21  S   UNL     1       6.787   5.184  16.334  0.00  0.00    +0.000 S 
ATOM     22  O   UNL     1       7.767   4.347  16.992  0.00  0.00    +0.000 OA
BRANCH  21  23
ATOM     23  C   UNL     1       6.862   4.846  14.588  0.00  0.00    +0.000 A 
ATOM     24  C   UNL     1       7.792   5.526  13.787  0.00  0.00    +0.000 A 
ATOM     25  C   UNL     1       7.896   5.217  12.429  0.00  0.00    +0.000 A 
ATOM     26  C   UNL     1       7.079   4.232  11.878  0.00  0.00    +0.000 A 
ATOM     27  C   UNL     1       6.166   3.558  12.687  0.00  0.00    +0.000 A 
ATOM     28  F   UNL     1       5.388   2.611  12.149  0.00  0.00    +0.000 F 
ATOM     29  C   UNL     1       6.051   3.848  14.042  0.00  0.00    +0.000 A 
ENDBRANCH  21  23
ENDBRANCH  18  21
ENDBRANCH   1  18
TORSDOF 4
ENDMDL
MODEL 3
REMARK VINA RESULT:      -9.3      5.740      7.773
REMARK  Name = 
REMARK  4 active torsions:
REMARK  status: ('A' for Active; 'I' for Inactive)
REMARK    1  A    between atoms: S_2  and  N_4
REMARK    2  A    between atoms: S_2  and  C_21
REMARK    3  A    between atoms: N_4  and  C_5
REMARK    4  A    between atoms: C_8  and  C_9
REMARK                            x       y       z     vdW  Elec       q    Type
REMARK                         _______ _______ _______ _____ _____    ______ ____
ROOT
ATOM      1  C   UNL     1       6.853   5.335  17.859  0.00  0.00    +0.000 A 
ATOM      2  C   UNL     1       7.646   5.600  18.970  0.00  0.00    +0.000 A 
ATOM      3  C   UNL     1       8.212   6.870  19.135  0.00  0.00    +0.000 A 
ATOM      4  C   UNL     1       7.985   7.888  18.196  0.00  0.00    +0.000 A 
ATOM      5  C   UNL     1       7.202   7.593  17.071  0.00  0.00    +0.000 A 
ATOM      6  C   UNL     1       6.651   6.319  16.896  0.00  0.00    +0.000 A 
ENDROOT
BRANCH   4   7
ATOM      7  C   UNL     1       8.558   9.223  18.400  0.00  0.00    +0.000 A 
ATOM      8  C   UNL     1       8.560  10.333  17.571  0.00  0.00    +0.000 A 
ATOM      9  C   UNL     1       9.306  11.370  18.193  0.00  0.00    +0.000 A 
ATOM     10  C   UNL     1       9.644  12.686  17.827  0.00  0.00    +0.000 A 
ATOM     11  C   UNL     1      10.465  13.426  18.675  0.00  0.00    +0.000 A 
ATOM     12  F   UNL     1      10.804  14.676  18.328  0.00  0.00    +0.000 F 
ATOM     13  C   UNL     1      10.949  12.897  19.865  0.00  0.00    +0.000 A 
ATOM     14  C   UNL     1      10.603  11.602  20.263  0.00  0.00    +0.000 A 
ATOM     15  C   UNL     1       9.774  10.865  19.405  0.00  0.00    +0.000 A 
ATOM     16  N   UNL     1       9.271   9.586  19.526  0.00  0.00    +0.000 N 
ATOM     17  H   UNL     1       9.446   8.985  20.317  0.00  0.00    +0.000 HD
ENDBRANCH   4   7
BRANCH   1  18
ATOM     18  N   UNL     1       6.281   4.053  17.691  0.00  0.00    +0.000 N 
ATOM     19  H   UNL     1       6.865   3.220  17.698  0.00  0.00    +0.000 HD
BRANCH  18  21
ATOM     20  O   UNL     1       4.614   4.489  15.882  0.00  0.00    +0.000 OA
ATOM     21  S   UNL     1       4.695   3.873  17.191  0.00  0.00    +0.000 S 
ATOM     22  O   UNL     1       4.274   2.506  17.404  0.00  0.00    +0.000 OA
BRANCH  21  23
ATOM     23  C   UNL     1       3.778   4.910  18.312  0.00  0.00    +0.000 A 
ATOM     24  C   UNL     1       3.353   6.180  17.893  0.00  0.00    +0.000 A 
ATOM     25  C   UNL     1       2.578   6.968  18.747  0.00  0.00    +0.000 A 
ATOM     26  C   UNL     1       2.229   6.487  20.008  0.00  0.00    +0.000 A 
ATOM     27  C   UNL     1       2.649   5.220  20.406  0.00  0.00    +0.000 A 
ATOM     28  F   UNL     1       2.305   4.766  21.617  0.00  0.00    +0.000 F 
ATOM     29  C   UNL     1       3.417   4.418  19.568  0.00  0.00    +0.000 A 
ENDBRANCH  21  23
ENDBRANCH  18  21
ENDBRANCH   1  18
TORSDOF 4
ENDMDL
MODEL 4
REMARK VINA RESULT:      -9.2      0.919      1.598
REMARK  Name = 
REMARK  4 active torsions:
REMARK  status: ('A' for Active; 'I' for Inactive)
REMARK    1  A    between atoms: S_2  and  N_4
REMARK    2  A    between atoms: S_2  and  C_21
REMARK    3  A    between atoms: N_4  and  C_5
REMARK    4  A    between atoms: C_8  and  C_9
REMARK                            x       y       z     vdW  Elec       q    Type
REMARK                         _______ _______ _______ _____ _____    ______ ____
ROOT
ATOM      1  C   UNL     1       4.580   5.435  17.730  0.00  0.00    +0.000 A 
ATOM      2  C   UNL     1       4.225   5.169  19.048  0.00  0.00    +0.000 A 
ATOM      3  C   UNL     1       3.358   6.035  19.724  0.00  0.00    +0.000 A 
ATOM      4  C   UNL     1       2.829   7.169  19.088  0.00  0.00    +0.000 A 
ATOM      5  C   UNL     1       3.218   7.432  17.767  0.00  0.00    +0.000 A 
ATOM      6  C   UNL     1       4.100   6.577  17.095  0.00  0.00    +0.000 A 
ENDROOT
BRANCH   4   7
ATOM      7  C   UNL     1       1.895   8.049  19.799  0.00  0.00    +0.000 A 
ATOM      8  C   UNL     1       1.238   9.190  19.372  0.00  0.00    +0.000 A 
ATOM      9  C   UNL     1       0.493   9.725  20.456  0.00  0.00    +0.000 A 
ATOM     10  C   UNL     1      -0.342  10.848  20.610  0.00  0.00    +0.000 A 
ATOM     11  C   UNL     1      -0.879  11.115  21.867  0.00  0.00    +0.000 A 
ATOM     12  F   UNL     1      -1.664  12.189  22.027  0.00  0.00    +0.000 F 
ATOM     13  C   UNL     1      -0.614  10.300  22.961  0.00  0.00    +0.000 A 
ATOM     14  C   UNL     1       0.189   9.163  22.825  0.00  0.00    +0.000 A 
ATOM     15  C   UNL     1       0.724   8.901  21.556  0.00  0.00    +0.000 A 
ATOM     16  N   UNL     1       1.535   7.873  21.121  0.00  0.00    +0.000 N 
ATOM     17  H   UNL     1       1.857   7.121  21.712  0.00  0.00    +0.000 HD
ENDBRANCH   4   7
BRANCH   1  18
ATOM     18  N   UNL     1       5.455   4.562  17.046  0.00  0.00    +0.000 N 
ATOM     19  H   UNL     1       5.256   3.566  16.991  0.00  0.00    +0.000 HD
BRANCH  18  21
ATOM     20  O   UNL     1       6.995   6.504  16.733  0.00  0.00    +0.000 OA
ATOM     21  S   UNL     1       6.975   5.066  16.559  0.00  0.00    +0.000 S 
ATOM     22  O   UNL     1       7.981   4.223  17.167  0.00  0.00    +0.000 OA
BRANCH  21  23
ATOM     23  C   UNL     1       6.983   4.752  14.806  0.00  0.00    +0.000 A 
ATOM     24  C   UNL     1       6.180   3.729  14.279  0.00  0.00    +0.000 A 
ATOM     25  C   UNL     1       6.136   3.524  12.899  0.00  0.00    +0.000 A 
ATOM     26  C   UNL     1       6.886   4.339  12.052  0.00  0.00    +0.000 A 
ATOM     27  C   UNL     1       7.671   5.357  12.589  0.00  0.00    +0.000 A 
ATOM     28  F   UNL     1       8.384   6.136  11.767  0.00  0.00    +0.000 F 
ATOM     29  C   UNL     1       7.724   5.581  13.960  0.00  0.00    +0.000 A 
ENDBRANCH  21  23
ENDBRANCH  18  21
ENDBRANCH   1  18
TORSDOF 4
ENDMDL
MODEL 5
REMARK VINA RESULT:      -9.2      2.859      3.722
REMARK  Name = 
REMARK  4 active torsions:
REMARK  status: ('A' for Active; 'I' for Inactive)
REMARK    1  A    between atoms: S_2  and  N_4
REMARK    2  A    between atoms: S_2  and  C_21
REMARK    3  A    between atoms: N_4  and  C_5
REMARK    4  A    between atoms: C_8  and  C_9
REMARK                            x       y       z     vdW  Elec       q    Type
REMARK                         _______ _______ _______ _____ _____    ______ ____
ROOT
ATOM      1  C   UNL     1       3.728   5.464  17.552  0.00  0.00    +0.000 A 
ATOM      2  C   UNL     1       3.150   5.055  18.749  0.00  0.00    +0.000 A 
ATOM      3  C   UNL     1       2.453   5.978  19.538  0.00  0.00    +0.000 A 
ATOM      4  C   UNL     1       2.320   7.316  19.134  0.00  0.00    +0.000 A 
ATOM      5  C   UNL     1       2.931   7.713  17.937  0.00  0.00    +0.000 A 
ATOM      6  C   UNL     1       3.644   6.795  17.156  0.00  0.00    +0.000 A 
ENDROOT
BRANCH   4   7
ATOM      7  C   UNL     1       1.559   8.264  19.956  0.00  0.00    +0.000 A 
ATOM      8  C   UNL     1       1.085   8.146  21.251  0.00  0.00    +0.000 A 
ATOM      9  C   UNL     1       0.345   9.314  21.578  0.00  0.00    +0.000 A 
ATOM     10  C   UNL     1      -0.355   9.740  22.722  0.00  0.00    +0.000 A 
ATOM     11  C   UNL     1      -1.038  10.954  22.675  0.00  0.00    +0.000 A 
ATOM     12  F   UNL     1      -1.719  11.362  23.755  0.00  0.00    +0.000 F 
ATOM     13  C   UNL     1      -1.038  11.746  21.533  0.00  0.00    +0.000 A 
ATOM     14  C   UNL     1      -0.326  11.356  20.395  0.00  0.00    +0.000 A 
ATOM     15  C   UNL     1       0.360  10.135  20.451  0.00  0.00    +0.000 A 
ATOM     16  N   UNL     1       1.137   9.499  19.505  0.00  0.00    +0.000 N 
ATOM     17  H   UNL     1       1.327   9.875  18.588  0.00  0.00    +0.000 HD
ENDBRANCH   4   7
BRANCH   1  18
ATOM     18  N   UNL     1       4.432   4.533  16.755  0.00  0.00    +0.000 N 
ATOM     19  H   UNL     1       4.210   3.541  16.799  0.00  0.00    +0.000 HD
BRANCH  18  21
ATOM     20  O   UNL     1       6.524   3.733  15.649  0.00  0.00    +0.000 OA
ATOM     21  S   UNL     1       5.827   4.970  15.942  0.00  0.00    +0.000 S 
ATOM     22  O   UNL     1       5.501   5.912  14.895  0.00  0.00    +0.000 OA
BRANCH  21  23
ATOM     23  C   UNL     1       6.784   5.828  17.174  0.00  0.00    +0.000 A 
ATOM     24  C   UNL     1       7.252   5.133  18.299  0.00  0.00    +0.000 A 
ATOM     25  C   UNL     1       8.057   5.787  19.235  0.00  0.00    +0.000 A 
ATOM     26  C   UNL     1       8.392   7.126  19.043  0.00  0.00    +0.000 A 
ATOM     27  C   UNL     1       7.928   7.802  17.916  0.00  0.00    +0.000 A 
ATOM     28  F   UNL     1       8.260   9.086  17.740  0.00  0.00    +0.000 F 
ATOM     29  C   UNL     1       7.130   7.166  16.971  0.00  0.00    +0.000 A 
ENDBRANCH  21  23
ENDBRANCH  18  21
ENDBRANCH   1  18
TORSDOF 4
ENDMDL
MODEL 6
REMARK VINA RESULT:      -9.0      2.853      3.542
REMARK  Name = 
REMARK  4 active torsions:
REMARK  status: ('A' for Active; 'I' for Inactive)
REMARK    1  A    between atoms: S_2  and  N_4
REMARK    2  A    between atoms: S_2  and  C_21
REMARK    3  A    between atoms: N_4  and  C_5
REMARK    4  A    between atoms: C_8  and  C_9
REMARK                            x       y       z     vdW  Elec       q    Type
REMARK                         _______ _______ _______ _____ _____    ______ ____
ROOT
ATOM      1  C   UNL     1       3.788   5.523  17.616  0.00  0.00    +0.000 A 
ATOM      2  C   UNL     1       3.563   6.815  17.154  0.00  0.00    +0.000 A 
ATOM      3  C   UNL     1       2.821   7.713  17.931  0.00  0.00    +0.000 A 
ATOM      4  C   UNL     1       2.304   7.331  19.179  0.00  0.00    +0.000 A 
ATOM      5  C   UNL     1       2.522   6.016  19.615  0.00  0.00    +0.000 A 
ATOM      6  C   UNL     1       3.248   5.112  18.831  0.00  0.00    +0.000 A 
ENDROOT
BRANCH   4   7
ATOM      7  C   UNL     1       1.557   8.293  19.996  0.00  0.00    +0.000 A 
ATOM      8  C   UNL     1       1.038   8.170  21.274  0.00  0.00    +0.000 A 
ATOM      9  C   UNL     1       0.336   9.361  21.602  0.00  0.00    +0.000 A 
ATOM     10  C   UNL     1      -0.382   9.793  22.732  0.00  0.00    +0.000 A 
ATOM     11  C   UNL     1      -1.014  11.034  22.689  0.00  0.00    +0.000 A 
ATOM     12  F   UNL     1      -1.711  11.449  23.756  0.00  0.00    +0.000 F 
ATOM     13  C   UNL     1      -0.946  11.848  21.565  0.00  0.00    +0.000 A 
ATOM     14  C   UNL     1      -0.215  11.451  20.441  0.00  0.00    +0.000 A 
ATOM     15  C   UNL     1       0.419  10.202  20.493  0.00  0.00    +0.000 A 
ATOM     16  N   UNL     1       1.199   9.554  19.558  0.00  0.00    +0.000 N 
ATOM     17  H   UNL     1       1.433   9.938  18.655  0.00  0.00    +0.000 HD
ENDBRANCH   4   7
BRANCH   1  18
ATOM     18  N   UNL     1       4.537   4.616  16.833  0.00  0.00    +0.000 N 
ATOM     19  H   UNL     1       4.417   3.612  16.945  0.00  0.00    +0.000 HD
BRANCH  18  21
ATOM     20  O   UNL     1       6.540   3.934  15.503  0.00  0.00    +0.000 OA
ATOM     21  S   UNL     1       5.839   5.133  15.917  0.00  0.00    +0.000 S 
ATOM     22  O   UNL     1       5.390   6.110  14.950  0.00  0.00    +0.000 OA
BRANCH  21  23
ATOM     23  C   UNL     1       6.881   5.967  17.096  0.00  0.00    +0.000 A 
ATOM     24  C   UNL     1       7.170   7.329  16.927  0.00  0.00    +0.000 A 
ATOM     25  C   UNL     1       7.934   8.000  17.884  0.00  0.00    +0.000 A 
ATOM     26  C   UNL     1       8.400   7.314  19.004  0.00  0.00    +0.000 A 
ATOM     27  C   UNL     1       8.097   5.964  19.164  0.00  0.00    +0.000 A 
ATOM     28  F   UNL     1       8.546   5.315  20.245  0.00  0.00    +0.000 F 
ATOM     29  C   UNL     1       7.334   5.279  18.224  0.00  0.00    +0.000 A 
ENDBRANCH  21  23
ENDBRANCH  18  21
ENDBRANCH   1  18
TORSDOF 4
ENDMDL
MODEL 7
REMARK VINA RESULT:      -9.0      5.794      7.794
REMARK  Name = 
REMARK  4 active torsions:
REMARK  status: ('A' for Active; 'I' for Inactive)
REMARK    1  A    between atoms: S_2  and  N_4
REMARK    2  A    between atoms: S_2  and  C_21
REMARK    3  A    between atoms: N_4  and  C_5
REMARK    4  A    between atoms: C_8  and  C_9
REMARK                            x       y       z     vdW  Elec       q    Type
REMARK                         _______ _______ _______ _____ _____    ______ ____
ROOT
ATOM      1  C   UNL     1       6.830   5.512  17.740  0.00  0.00    +0.000 A 
ATOM      2  C   UNL     1       6.627   6.575  16.866  0.00  0.00    +0.000 A 
ATOM      3  C   UNL     1       7.224   7.814  17.125  0.00  0.00    +0.000 A 
ATOM      4  C   UNL     1       8.036   8.001  18.255  0.00  0.00    +0.000 A 
ATOM      5  C   UNL     1       8.208   6.925  19.136  0.00  0.00    +0.000 A 
ATOM      6  C   UNL     1       7.597   5.690  18.888  0.00  0.00    +0.000 A 
ENDROOT
BRANCH   4   7
ATOM      7  C   UNL     1       8.682   9.297  18.495  0.00  0.00    +0.000 A 
ATOM      8  C   UNL     1       8.954  10.337  17.623  0.00  0.00    +0.000 A 
ATOM      9  C   UNL     1       9.656  11.353  18.324  0.00  0.00    +0.000 A 
ATOM     10  C   UNL     1      10.184  12.606  17.960  0.00  0.00    +0.000 A 
ATOM     11  C   UNL     1      10.887  13.338  18.915  0.00  0.00    +0.000 A 
ATOM     12  F   UNL     1      11.405  14.526  18.575  0.00  0.00    +0.000 F 
ATOM     13  C   UNL     1      11.073  12.862  20.207  0.00  0.00    +0.000 A 
ATOM     14  C   UNL     1      10.533  11.633  20.598  0.00  0.00    +0.000 A 
ATOM     15  C   UNL     1       9.825  10.904  19.632  0.00  0.00    +0.000 A 
ATOM     16  N   UNL     1       9.188   9.683  19.721  0.00  0.00    +0.000 N 
ATOM     17  H   UNL     1       9.144   9.130  20.563  0.00  0.00    +0.000 HD
ENDBRANCH   4   7
BRANCH   1  18
ATOM     18  N   UNL     1       6.227   4.261  17.480  0.00  0.00    +0.000 N 
ATOM     19  H   UNL     1       6.487   3.722  16.657  0.00  0.00    +0.000 HD
BRANCH  18  21
ATOM     20  O   UNL     1       4.137   2.893  17.433  0.00  0.00    +0.000 OA
ATOM     21  S   UNL     1       4.879   3.755  18.332  0.00  0.00    +0.000 S 
ATOM     22  O   UNL     1       5.280   3.301  19.645  0.00  0.00    +0.000 OA
BRANCH  21  23
ATOM     23  C   UNL     1       3.923   5.244  18.534  0.00  0.00    +0.000 A 
ATOM     24  C   UNL     1       3.799   6.141  17.462  0.00  0.00    +0.000 A 
ATOM     25  C   UNL     1       2.998   7.277  17.597  0.00  0.00    +0.000 A 
ATOM     26  C   UNL     1       2.323   7.510  18.794  0.00  0.00    +0.000 A 
ATOM     27  C   UNL     1       2.448   6.606  19.847  0.00  0.00    +0.000 A 
ATOM     28  F   UNL     1       1.793   6.837  20.991  0.00  0.00    +0.000 F 
ATOM     29  C   UNL     1       3.237   5.466  19.730  0.00  0.00    +0.000 A 
ENDBRANCH  21  23
ENDBRANCH  18  21
ENDBRANCH   1  18
TORSDOF 4
ENDMDL
MODEL 8
REMARK VINA RESULT:      -9.0      5.700      7.625
REMARK  Name = 
REMARK  4 active torsions:
REMARK  status: ('A' for Active; 'I' for Inactive)
REMARK    1  A    between atoms: S_2  and  N_4
REMARK    2  A    between atoms: S_2  and  C_21
REMARK    3  A    between atoms: N_4  and  C_5
REMARK    4  A    between atoms: C_8  and  C_9
REMARK                            x       y       z     vdW  Elec       q    Type
REMARK                         _______ _______ _______ _____ _____    ______ ____
ROOT
ATOM      1  C   UNL     1       6.954   5.375  17.742  0.00  0.00    +0.000 A 
ATOM      2  C   UNL     1       6.774   6.391  16.810  0.00  0.00    +0.000 A 
ATOM      3  C   UNL     1       7.306   7.663  17.054  0.00  0.00    +0.000 A 
ATOM      4  C   UNL     1       8.029   7.929  18.227  0.00  0.00    +0.000 A 
ATOM      5  C   UNL     1       8.179   6.897  19.165  0.00  0.00    +0.000 A 
ATOM      6  C   UNL     1       7.632   5.631  18.930  0.00  0.00    +0.000 A 
ENDROOT
BRANCH   4   7
ATOM      7  C   UNL     1       8.608   9.258  18.454  0.00  0.00    +0.000 A 
ATOM      8  C   UNL     1       8.646  10.370  17.630  0.00  0.00    +0.000 A 
ATOM      9  C   UNL     1       9.382  11.398  18.278  0.00  0.00    +0.000 A 
ATOM     10  C   UNL     1       9.743  12.712  17.928  0.00  0.00    +0.000 A 
ATOM     11  C   UNL     1      10.545  13.441  18.803  0.00  0.00    +0.000 A 
ATOM     12  F   UNL     1      10.906  14.689  18.472  0.00  0.00    +0.000 F 
ATOM     13  C   UNL     1      10.988  12.904  20.006  0.00  0.00    +0.000 A 
ATOM     14  C   UNL     1      10.618  11.610  20.387  0.00  0.00    +0.000 A 
ATOM     15  C   UNL     1       9.809  10.884  19.501  0.00  0.00    +0.000 A 
ATOM     16  N   UNL     1       9.291   9.610  19.602  0.00  0.00    +0.000 N 
ATOM     17  H   UNL     1       9.435   9.004  20.395  0.00  0.00    +0.000 HD
ENDBRANCH   4   7
BRANCH   1  18
ATOM     18  N   UNL     1       6.418   4.090  17.496  0.00  0.00    +0.000 N 
ATOM     19  H   UNL     1       7.021   3.271  17.482  0.00  0.00    +0.000 HD
BRANCH  18  21
ATOM     20  O   UNL     1       4.837   4.443  15.595  0.00  0.00    +0.000 OA
ATOM     21  S   UNL     1       4.853   3.898  16.938  0.00  0.00    +0.000 S 
ATOM     22  O   UNL     1       4.407   2.549  17.205  0.00  0.00    +0.000 OA
BRANCH  21  23
ATOM     23  C   UNL     1       3.901   5.003  17.959  0.00  0.00    +0.000 A 
ATOM     24  C   UNL     1       3.642   4.664  19.296  0.00  0.00    +0.000 A 
ATOM     25  C   UNL     1       2.951   5.558  20.118  0.00  0.00    +0.000 A 
ATOM     26  C   UNL     1       2.527   6.783  19.605  0.00  0.00    +0.000 A 
ATOM     27  C   UNL     1       2.799   7.110  18.279  0.00  0.00    +0.000 A 
ATOM     28  F   UNL     1       2.391   8.291  17.798  0.00  0.00    +0.000 F 
ATOM     29  C   UNL     1       3.490   6.236  17.447  0.00  0.00    +0.000 A 
ENDBRANCH  21  23
ENDBRANCH  18  21
ENDBRANCH   1  18
TORSDOF 4
ENDMDL
MODEL 9
REMARK VINA RESULT:      -9.0      2.790      3.551
REMARK  Name = 
REMARK  4 active torsions:
REMARK  status: ('A' for Active; 'I' for Inactive)
REMARK    1  A    between atoms: S_2  and  N_4
REMARK    2  A    between atoms: S_2  and  C_21
REMARK    3  A    between atoms: N_4  and  C_5
REMARK    4  A    between atoms: C_8  and  C_9
REMARK                            x       y       z     vdW  Elec       q    Type
REMARK                         _______ _______ _______ _____ _____    ______ ____
ROOT
ATOM      1  C   UNL     1       3.852   5.478  17.439  0.00  0.00    +0.000 A 
ATOM      2  C   UNL     1       3.246   5.037  18.611  0.00  0.00    +0.000 A 
ATOM      3  C   UNL     1       2.506   5.932  19.392  0.00  0.00    +0.000 A 
ATOM      4  C   UNL     1       2.358   7.274  19.007  0.00  0.00    +0.000 A 
ATOM      5  C   UNL     1       2.997   7.704  17.835  0.00  0.00    +0.000 A 
ATOM      6  C   UNL     1       3.751   6.814  17.062  0.00  0.00    +0.000 A 
ENDROOT
BRANCH   4   7
ATOM      7  C   UNL     1       1.552   8.192  19.819  0.00  0.00    +0.000 A 
ATOM      8  C   UNL     1       1.019   9.431  19.507  0.00  0.00    +0.000 A 
ATOM      9  C   UNL     1       0.371   9.957  20.657  0.00  0.00    +0.000 A 
ATOM     10  C   UNL     1      -0.324  11.150  20.929  0.00  0.00    +0.000 A 
ATOM     11  C   UNL     1      -0.790  11.372  22.222  0.00  0.00    +0.000 A 
ATOM     12  F   UNL     1      -1.442  12.512  22.494  0.00  0.00    +0.000 F 
ATOM     13  C   UNL     1      -0.589  10.447  23.239  0.00  0.00    +0.000 A 
ATOM     14  C   UNL     1       0.074   9.242  22.985  0.00  0.00    +0.000 A 
ATOM     15  C   UNL     1       0.538   9.025  21.680  0.00  0.00    +0.000 A 
ATOM     16  N   UNL     1       1.213   7.952  21.137  0.00  0.00    +0.000 N 
ATOM     17  H   UNL     1       1.463   7.123  21.654  0.00  0.00    +0.000 HD
ENDBRANCH   4   7
BRANCH   1  18
ATOM     18  N   UNL     1       4.598   4.575  16.649  0.00  0.00    +0.000 N 
ATOM     19  H   UNL     1       4.395   3.578  16.669  0.00  0.00    +0.000 HD
BRANCH  18  21
ATOM     20  O   UNL     1       6.740   3.835  15.595  0.00  0.00    +0.000 OA
ATOM     21  S   UNL     1       6.010   5.053  15.889  0.00  0.00    +0.000 S 
ATOM     22  O   UNL     1       5.699   6.009  14.850  0.00  0.00    +0.000 OA
BRANCH  21  23
ATOM     23  C   UNL     1       6.911   5.905  17.167  0.00  0.00    +0.000 A 
ATOM     24  C   UNL     1       7.346   5.199  18.299  0.00  0.00    +0.000 A 
ATOM     25  C   UNL     1       8.109   5.850  19.271  0.00  0.00    +0.000 A 
ATOM     26  C   UNL     1       8.435   7.196  19.110  0.00  0.00    +0.000 A 
ATOM     27  C   UNL     1       8.004   7.881  17.976  0.00  0.00    +0.000 A 
ATOM     28  F   UNL     1       8.326   9.172  17.829  0.00  0.00    +0.000 F 
ATOM     29  C   UNL     1       7.249   7.249  16.994  0.00  0.00    +0.000 A 
ENDBRANCH  21  23
ENDBRANCH  18  21
ENDBRANCH   1  18
TORSDOF 4
ENDMDL
