MODEL 1
REMARK VINA RESULT:      -7.3      0.000      0.000
REMARK  Name = 
REMARK  11 active torsions:
REMARK  status: ('A' for Active; 'I' for Inactive)
REMARK    1  A    between atoms: C_1  and  O_2
REMARK    2  A    between atoms: O_2  and  C_3
REMARK    3  A    between atoms: C_6  and  C_7
REMARK    4  A    between atoms: C_7  and  C_8
REMARK    5  A    between atoms: C_7  and  N_21
REMARK    6  A    between atoms: C_8  and  N_9
REMARK    7  A    between atoms: N_9  and  C_10
REMARK    8  A    between atoms: C_10  and  C_11
REMARK    9  A    between atoms: N_13  and  C_14
REMARK   10  A    between atoms: N_21  and  C_22
REMARK   11  A    between atoms: N_21  and  C_23
REMARK                            x       y       z     vdW  Elec       q    Type
REMARK                         _______ _______ _______ _____ _____    ______ ____
ROOT
ATOM      1  N   UNL     1       7.445   7.818  16.963  0.00  0.00    +0.000 NA
ATOM      2  H   UNL     1       7.334   8.694  16.446  0.00  0.00    +0.000 HD
ENDROOT
BRANCH   1   3
ATOM      3  C   UNL     1       6.098   7.304  17.264  0.00  0.00    +0.000 C 
BRANCH   3   4
ATOM      4  C   UNL     1       5.795   5.956  16.517  0.00  0.00    +0.000 C 
BRANCH   4   8
ATOM      5  C   UNL     1       3.078   3.675  19.048  0.00  0.00    +0.000 A 
ATOM      6  C   UNL     1       3.829   4.729  19.572  0.00  0.00    +0.000 A 
ATOM      7  C   UNL     1       4.678   5.477  18.753  0.00  0.00    +0.000 A 
ATOM      8  C   UNL     1       4.806   5.167  17.391  0.00  0.00    +0.000 A 
ATOM      9  C   UNL     1       4.074   4.078  16.884  0.00  0.00    +0.000 A 
ATOM     10  C   UNL     1       3.209   3.344  17.702  0.00  0.00    +0.000 A 
BRANCH   5  12
ATOM     11  C   UNL     1       0.911   3.364  19.935  0.00  0.00    +0.000 C 
ATOM     12  O   UNL     1       2.290   3.014  19.952  0.00  0.00    +0.000 OA
ENDBRANCH   5  12
ENDBRANCH   4   8
BRANCH   4  13
ATOM     13  N   UNL     1       7.023   5.176  16.157  0.00  0.00    +0.000 NA
ATOM     14  C   UNL     1       7.540   4.438  17.321  0.00  0.00    +0.000 C 
ATOM     15  C   UNL     1       6.769   4.203  15.087  0.00  0.00    +0.000 C 
ENDBRANCH   4  13
ENDBRANCH   3   4
ENDBRANCH   1   3
BRANCH   1  16
ATOM     16  C   UNL     1       8.227   8.032  18.185  0.00  0.00    +0.000 C 
BRANCH  16  17
ATOM     17  C   UNL     1       8.521   9.522  18.379  0.00  0.00    +0.000 C 
ATOM     18  O   UNL     1       8.024  10.354  17.621  0.00  0.00    +0.000 OA
ATOM     19  N   UNL     1       9.341   9.783  19.463  0.00  0.00    +0.000 N 
ATOM     20  H   UNL     1       9.756   8.957  19.895  0.00  0.00    +0.000 HD
BRANCH  19  21
ATOM     21  C   UNL     1       9.753  11.048  19.930  0.00  0.00    +0.000 A 
ATOM     22  C   UNL     1       9.240  11.631  21.092  0.00  0.00    +0.000 A 
ATOM     23  C   UNL     1       9.670  12.899  21.503  0.00  0.00    +0.000 A 
ATOM     24  C   UNL     1      10.614  13.597  20.757  0.00  0.00    +0.000 A 
ATOM     25  C   UNL     1      11.148  13.020  19.606  0.00  0.00    +0.000 A 
ATOM     26  C   UNL     1      10.723  11.752  19.206  0.00  0.00    +0.000 A 
ATOM     27  F   UNL     1      11.241  11.221  18.087  0.00  0.00    +0.000 F 
ENDBRANCH  19  21
ENDBRANCH  16  17
ENDBRANCH   1  16
TORSDOF 8
ENDMDL
MODEL 2
REMARK VINA RESULT:      -7.3      4.918      7.478
REMARK  Name = 
REMARK  11 active torsions:
REMARK  status: ('A' for Active; 'I' for Inactive)
REMARK    1  A    between atoms: C_1  and  O_2
REMARK    2  A    between atoms: O_2  and  C_3
REMARK    3  A    between atoms: C_6  and  C_7
REMARK    4  A    between atoms: C_7  and  C_8
REMARK    5  A    between atoms: C_7  and  N_21
REMARK    6  A    between atoms: C_8  and  N_9
REMARK    7  A    between atoms: N_9  and  C_10
REMARK    8  A    between atoms: C_10  and  C_11
REMARK    9  A    between atoms: N_13  and  C_14
REMARK   10  A    between atoms: N_21  and  C_22
REMARK   11  A    between atoms: N_21  and  C_23
REMARK                            x       y       z     vdW  Elec       q    Type
REMARK                         _______ _______ _______ _____ _____    ______ ____
ROOT
ATOM      1  N   UNL     1       5.792   5.239  18.189  0.00  0.00    +0.000 NA
ATOM      2  H   UNL     1       5.524   4.461  17.580  0.00  0.00    +0.000 HD
ENDROOT
BRANCH   1   3
ATOM      3  C   UNL     1       4.747   5.381  19.216  0.00  0.00    +0.000 C 
BRANCH   3   4
ATOM      4  C   UNL     1       3.300   5.297  18.609  0.00  0.00    +0.000 C 
BRANCH   4   8
ATOM      5  C   UNL     1       1.333   9.030  19.697  0.00  0.00    +0.000 A 
ATOM      6  C   UNL     1       1.835   8.836  18.409  0.00  0.00    +0.000 A 
ATOM      7  C   UNL     1       2.440   7.627  18.054  0.00  0.00    +0.000 A 
ATOM      8  C   UNL     1       2.572   6.595  18.995  0.00  0.00    +0.000 A 
ATOM      9  C   UNL     1       2.097   6.819  20.299  0.00  0.00    +0.000 A 
ATOM     10  C   UNL     1       1.473   8.022  20.646  0.00  0.00    +0.000 A 
BRANCH   5  12
ATOM     11  C   UNL     1       0.507  11.036  18.763  0.00  0.00    +0.000 C 
ATOM     12  O   UNL     1       0.771  10.258  19.925  0.00  0.00    +0.000 OA
ENDBRANCH   5  12
ENDBRANCH   4   8
BRANCH   4  13
ATOM     13  N   UNL     1       2.552   4.058  18.999  0.00  0.00    +0.000 NA
ATOM     14  C   UNL     1       2.116   3.308  17.809  0.00  0.00    +0.000 C 
ATOM     15  C   UNL     1       3.365   3.155  19.823  0.00  0.00    +0.000 C 
ENDBRANCH   4  13
ENDBRANCH   3   4
ENDBRANCH   1   3
BRANCH   1  16
ATOM     16  C   UNL     1       5.957   6.472  17.412  0.00  0.00    +0.000 C 
BRANCH  16  17
ATOM     17  C   UNL     1       5.747   6.199  15.921  0.00  0.00    +0.000 C 
ATOM     18  O   UNL     1       5.155   7.018  15.218  0.00  0.00    +0.000 OA
ATOM     19  N   UNL     1       6.299   5.002  15.499  0.00  0.00    +0.000 N 
ATOM     20  H   UNL     1       6.638   4.399  16.249  0.00  0.00    +0.000 HD
BRANCH  19  21
ATOM     21  C   UNL     1       6.317   4.491  14.185  0.00  0.00    +0.000 A 
ATOM     22  C   UNL     1       5.328   3.636  13.691  0.00  0.00    +0.000 A 
ATOM     23  C   UNL     1       5.402   3.141  12.382  0.00  0.00    +0.000 A 
ATOM     24  C   UNL     1       6.465   3.492  11.558  0.00  0.00    +0.000 A 
ATOM     25  C   UNL     1       7.449   4.359  12.031  0.00  0.00    +0.000 A 
ATOM     26  C   UNL     1       7.366   4.856  13.332  0.00  0.00    +0.000 A 
ATOM     27  F   UNL     1       8.332   5.679  13.772  0.00  0.00    +0.000 F 
ENDBRANCH  19  21
ENDBRANCH  16  17
ENDBRANCH   1  16
TORSDOF 8
ENDMDL
MODEL 3
REMARK VINA RESULT:      -7.3      5.007      7.600
REMARK  Name = 
REMARK  11 active torsions:
REMARK  status: ('A' for Active; 'I' for Inactive)
REMARK    1  A    between atoms: C_1  and  O_2
REMARK    2  A    between atoms: O_2  and  C_3
REMARK    3  A    between atoms: C_6  and  C_7
REMARK    4  A    between atoms: C_7  and  C_8
REMARK    5  A    between atoms: C_7  and  N_21
REMARK    6  A    between atoms: C_8  and  N_9
REMARK    7  A    between atoms: N_9  and  C_10
REMARK    8  A    between atoms: C_10  and  C_11
REMARK    9  A    between atoms: N_13  and  C_14
REMARK   10  A    between atoms: N_21  and  C_22
REMARK   11  A    between atoms: N_21  and  C_23
REMARK                            x       y       z     vdW  Elec       q    Type
REMARK                         _______ _______ _______ _____ _____    ______ ____
ROOT
ATOM      1  N   UNL     1       5.268   6.451  17.774  0.00  0.00    +0.000 NA
ATOM      2  H   UNL     1       5.116   7.463  17.800  0.00  0.00    +0.000 HD
ENDROOT
BRANCH   1   3
ATOM      3  C   UNL     1       4.492   5.855  18.874  0.00  0.00    +0.000 C 
BRANCH   3   4
ATOM      4  C   UNL     1       2.963   5.742  18.530  0.00  0.00    +0.000 C 
BRANCH   4   8
ATOM      5  C   UNL     1       1.214   9.575  19.645  0.00  0.00    +0.000 A 
ATOM      6  C   UNL     1       1.649   9.341  18.339  0.00  0.00    +0.000 A 
ATOM      7  C   UNL     1       2.184   8.101  17.977  0.00  0.00    +0.000 A 
ATOM      8  C   UNL     1       2.311   7.077  18.927  0.00  0.00    +0.000 A 
ATOM      9  C   UNL     1       1.905   7.340  20.247  0.00  0.00    +0.000 A 
ATOM     10  C   UNL     1       1.352   8.575  20.603  0.00  0.00    +0.000 A 
BRANCH   5  12
ATOM     11  C   UNL     1       0.980  11.791  18.861  0.00  0.00    +0.000 C 
ATOM     12  O   UNL     1       0.718  10.830  19.878  0.00  0.00    +0.000 OA
ENDBRANCH   5  12
ENDBRANCH   4   8
BRANCH   4  13
ATOM     13  N   UNL     1       2.292   4.549  19.141  0.00  0.00    +0.000 NA
ATOM     14  C   UNL     1       1.482   3.830  18.143  0.00  0.00    +0.000 C 
ATOM     15  C   UNL     1       3.258   3.596  19.702  0.00  0.00    +0.000 C 
ENDBRANCH   4  13
ENDBRANCH   3   4
ENDBRANCH   1   3
BRANCH   1  16
ATOM     16  C   UNL     1       6.697   6.139  17.889  0.00  0.00    +0.000 C 
BRANCH  16  17
ATOM     17  C   UNL     1       7.164   5.315  16.687  0.00  0.00    +0.000 C 
ATOM     18  O   UNL     1       8.006   4.430  16.833  0.00  0.00    +0.000 OA
ATOM     19  N   UNL     1       6.531   5.661  15.506  0.00  0.00    +0.000 N 
ATOM     20  H   UNL     1       5.956   6.503  15.558  0.00  0.00    +0.000 HD
BRANCH  19  21
ATOM     21  C   UNL     1       6.705   5.061  14.242  0.00  0.00    +0.000 A 
ATOM     22  C   UNL     1       7.715   5.443  13.353  0.00  0.00    +0.000 A 
ATOM     23  C   UNL     1       7.832   4.826  12.101  0.00  0.00    +0.000 A 
ATOM     24  C   UNL     1       6.943   3.826  11.724  0.00  0.00    +0.000 A 
ATOM     25  C   UNL     1       5.943   3.423  12.607  0.00  0.00    +0.000 A 
ATOM     26  C   UNL     1       5.835   4.033  13.856  0.00  0.00    +0.000 A 
ATOM     27  F   UNL     1       4.856   3.638  14.686  0.00  0.00    +0.000 F 
ENDBRANCH  19  21
ENDBRANCH  16  17
ENDBRANCH   1  16
TORSDOF 8
ENDMDL
MODEL 4
REMARK VINA RESULT:      -7.2      1.193      1.658
REMARK  Name = 
REMARK  11 active torsions:
REMARK  status: ('A' for Active; 'I' for Inactive)
REMARK    1  A    between atoms: C_1  and  O_2
REMARK    2  A    between atoms: O_2  and  C_3
REMARK    3  A    between atoms: C_6  and  C_7
REMARK    4  A    between atoms: C_7  and  C_8
REMARK    5  A    between atoms: C_7  and  N_21
REMARK    6  A    between atoms: C_8  and  N_9
REMARK    7  A    between atoms: N_9  and  C_10
REMARK    8  A    between atoms: C_10  and  C_11
REMARK    9  A    between atoms: N_13  and  C_14
REMARK   10  A    between atoms: N_21  and  C_22
REMARK   11  A    between atoms: N_21  and  C_23
REMARK                            x       y       z     vdW  Elec       q    Type
REMARK                         _______ _______ _______ _____ _____    ______ ____
ROOT
ATOM      1  N   UNL     1       7.088   7.618  17.167  0.00  0.00    +0.000 NA
ATOM      2  H   UNL     1       6.578   8.482  16.966  0.00  0.00    +0.000 HD
ENDROOT
BRANCH   1   3
ATOM      3  C   UNL     1       6.124   6.649  17.715  0.00  0.00    +0.000 C 
BRANCH   3   4
ATOM      4  C   UNL     1       5.573   5.672  16.615  0.00  0.00    +0.000 C 
BRANCH   4   8
ATOM      5  C   UNL     1       1.904   3.977  18.247  0.00  0.00    +0.000 A 
ATOM      6  C   UNL     1       2.310   5.268  18.591  0.00  0.00    +0.000 A 
ATOM      7  C   UNL     1       3.472   5.820  18.044  0.00  0.00    +0.000 A 
ATOM      8  C   UNL     1       4.262   5.076  17.156  0.00  0.00    +0.000 A 
ATOM      9  C   UNL     1       3.863   3.763  16.849  0.00  0.00    +0.000 A 
ATOM     10  C   UNL     1       2.689   3.220  17.381  0.00  0.00    +0.000 A 
BRANCH   5  12
ATOM     11  C   UNL     1       0.788   3.516  20.276  0.00  0.00    +0.000 C 
ATOM     12  O   UNL     1       0.756   3.546  18.854  0.00  0.00    +0.000 OA
ENDBRANCH   5  12
ENDBRANCH   4   8
BRANCH   4  13
ATOM     13  N   UNL     1       6.562   4.633  16.179  0.00  0.00    +0.000 NA
ATOM     14  C   UNL     1       7.185   5.003  14.898  0.00  0.00    +0.000 C 
ATOM     15  C   UNL     1       7.637   4.444  17.161  0.00  0.00    +0.000 C 
ENDBRANCH   4  13
ENDBRANCH   3   4
ENDBRANCH   1   3
BRANCH   1  16
ATOM     16  C   UNL     1       8.190   7.871  18.102  0.00  0.00    +0.000 C 
BRANCH  16  17
ATOM     17  C   UNL     1       8.444   9.375  18.236  0.00  0.00    +0.000 C 
ATOM     18  O   UNL     1       7.804  10.174  17.553  0.00  0.00    +0.000 OA
ATOM     19  N   UNL     1       9.402   9.687  19.184  0.00  0.00    +0.000 N 
ATOM     20  H   UNL     1       9.913   8.886  19.557  0.00  0.00    +0.000 HD
BRANCH  19  21
ATOM     21  C   UNL     1       9.823  10.975  19.573  0.00  0.00    +0.000 A 
ATOM     22  C   UNL     1      10.567  11.815  18.738  0.00  0.00    +0.000 A 
ATOM     23  C   UNL     1      10.976  13.079  19.181  0.00  0.00    +0.000 A 
ATOM     24  C   UNL     1      10.651  13.515  20.460  0.00  0.00    +0.000 A 
ATOM     25  C   UNL     1       9.894  12.696  21.297  0.00  0.00    +0.000 A 
ATOM     26  C   UNL     1       9.481  11.441  20.848  0.00  0.00    +0.000 A 
ATOM     27  F   UNL     1       8.764  10.663  21.676  0.00  0.00    +0.000 F 
ENDBRANCH  19  21
ENDBRANCH  16  17
ENDBRANCH   1  16
TORSDOF 8
ENDMDL
MODEL 5
REMARK VINA RESULT:      -7.2      5.612      7.682
REMARK  Name = 
REMARK  11 active torsions:
REMARK  status: ('A' for Active; 'I' for Inactive)
REMARK    1  A    between atoms: C_1  and  O_2
REMARK    2  A    between atoms: O_2  and  C_3
REMARK    3  A    between atoms: C_6  and  C_7
REMARK    4  A    between atoms: C_7  and  C_8
REMARK    5  A    between atoms: C_7  and  N_21
REMARK    6  A    between atoms: C_8  and  N_9
REMARK    7  A    between atoms: N_9  and  C_10
REMARK    8  A    between atoms: C_10  and  C_11
REMARK    9  A    between atoms: N_13  and  C_14
REMARK   10  A    between atoms: N_21  and  C_22
REMARK   11  A    between atoms: N_21  and  C_23
REMARK                            x       y       z     vdW  Elec       q    Type
REMARK                         _______ _______ _______ _____ _____    ______ ____
ROOT
ATOM      1  N   UNL     1       2.533   7.297  19.252  0.00  0.00    +0.000 NA
ATOM      2  H   UNL     1       3.444   7.245  19.716  0.00  0.00    +0.000 HD
ENDROOT
BRANCH   1   3
ATOM      3  C   UNL     1       2.066   5.918  19.031  0.00  0.00    +0.000 C 
BRANCH   3   4
ATOM      4  C   UNL     1       3.076   4.852  19.588  0.00  0.00    +0.000 C 
BRANCH   4   8
ATOM      5  C   UNL     1       6.508   4.712  16.906  0.00  0.00    +0.000 A 
ATOM      6  C   UNL     1       5.233   4.370  16.453  0.00  0.00    +0.000 A 
ATOM      7  C   UNL     1       4.129   4.443  17.307  0.00  0.00    +0.000 A 
ATOM      8  C   UNL     1       4.289   4.841  18.642  0.00  0.00    +0.000 A 
ATOM      9  C   UNL     1       5.585   5.144  19.096  0.00  0.00    +0.000 A 
ATOM     10  C   UNL     1       6.685   5.090  18.234  0.00  0.00    +0.000 A 
BRANCH   5  12
ATOM     11  C   UNL     1       7.117   4.798  14.626  0.00  0.00    +0.000 C 
ATOM     12  O   UNL     1       7.508   4.592  15.979  0.00  0.00    +0.000 OA
ENDBRANCH   5  12
ENDBRANCH   4   8
BRANCH   4  13
ATOM     13  N   UNL     1       2.470   3.495  19.793  0.00  0.00    +0.000 NA
ATOM     14  C   UNL     1       3.291   2.683  20.705  0.00  0.00    +0.000 C 
ATOM     15  C   UNL     1       1.116   3.571  20.356  0.00  0.00    +0.000 C 
ENDBRANCH   4  13
ENDBRANCH   3   4
ENDBRANCH   1   3
BRANCH   1  16
ATOM     16  C   UNL     1       2.635   8.041  17.992  0.00  0.00    +0.000 C 
BRANCH  16  17
ATOM     17  C   UNL     1       1.875   9.366  18.089  0.00  0.00    +0.000 C 
ATOM     18  O   UNL     1       2.313  10.374  17.535  0.00  0.00    +0.000 OA
ATOM     19  N   UNL     1       0.697   9.271  18.810  0.00  0.00    +0.000 N 
ATOM     20  H   UNL     1       0.565   8.386  19.300  0.00  0.00    +0.000 HD
BRANCH  19  21
ATOM     21  C   UNL     1      -0.244  10.296  19.038  0.00  0.00    +0.000 A 
ATOM     22  C   UNL     1      -1.320  10.542  18.179  0.00  0.00    +0.000 A 
ATOM     23  C   UNL     1      -2.216  11.585  18.442  0.00  0.00    +0.000 A 
ATOM     24  C   UNL     1      -2.046  12.394  19.559  0.00  0.00    +0.000 A 
ATOM     25  C   UNL     1      -0.988  12.149  20.434  0.00  0.00    +0.000 A 
ATOM     26  C   UNL     1      -0.104  11.103  20.174  0.00  0.00    +0.000 A 
ATOM     27  F   UNL     1       0.916  10.893  21.023  0.00  0.00    +0.000 F 
ENDBRANCH  19  21
ENDBRANCH  16  17
ENDBRANCH   1  16
TORSDOF 8
ENDMDL
MODEL 6
REMARK VINA RESULT:      -7.2      0.498      1.084
REMARK  Name = 
REMARK  11 active torsions:
REMARK  status: ('A' for Active; 'I' for Inactive)
REMARK    1  A    between atoms: C_1  and  O_2
REMARK    2  A    between atoms: O_2  and  C_3
REMARK    3  A    between atoms: C_6  and  C_7
REMARK    4  A    between atoms: C_7  and  C_8
REMARK    5  A    between atoms: C_7  and  N_21
REMARK    6  A    between atoms: C_8  and  N_9
REMARK    7  A    between atoms: N_9  and  C_10
REMARK    8  A    between atoms: C_10  and  C_11
REMARK    9  A    between atoms: N_13  and  C_14
REMARK   10  A    between atoms: N_21  and  C_22
REMARK   11  A    between atoms: N_21  and  C_23
REMARK                            x       y       z     vdW  Elec       q    Type
REMARK                         _______ _______ _______ _____ _____    ______ ____
ROOT
ATOM      1  N   UNL     1       7.652   7.935  17.118  0.00  0.00    +0.000 NA
ATOM      2  H   UNL     1       7.586   8.795  16.567  0.00  0.00    +0.000 HD
ENDROOT
BRANCH   1   3
ATOM      3  C   UNL     1       6.280   7.472  17.385  0.00  0.00    +0.000 C 
BRANCH   3   4
ATOM      4  C   UNL     1       5.953   6.124  16.646  0.00  0.00    +0.000 C 
BRANCH   4   8
ATOM      5  C   UNL     1       2.900   4.086  18.994  0.00  0.00    +0.000 A 
ATOM      6  C   UNL     1       3.084   3.784  17.644  0.00  0.00    +0.000 A 
ATOM      7  C   UNL     1       4.082   4.418  16.900  0.00  0.00    +0.000 A 
ATOM      8  C   UNL     1       4.904   5.386  17.494  0.00  0.00    +0.000 A 
ATOM      9  C   UNL     1       4.682   5.709  18.845  0.00  0.00    +0.000 A 
ATOM     10  C   UNL     1       3.696   5.058  19.593  0.00  0.00    +0.000 A 
BRANCH   5  12
ATOM     11  C   UNL     1       2.264   2.645  20.754  0.00  0.00    +0.000 C 
ATOM     12  O   UNL     1       1.886   3.404  19.612  0.00  0.00    +0.000 OA
ENDBRANCH   5  12
ENDBRANCH   4   8
BRANCH   4  13
ATOM     13  N   UNL     1       7.164   5.293  16.343  0.00  0.00    +0.000 NA
ATOM     14  C   UNL     1       7.559   4.491  17.512  0.00  0.00    +0.000 C 
ATOM     15  C   UNL     1       6.937   4.371  15.223  0.00  0.00    +0.000 C 
ENDBRANCH   4  13
ENDBRANCH   3   4
ENDBRANCH   1   3
BRANCH   1  16
ATOM     16  C   UNL     1       8.393   8.172  18.361  0.00  0.00    +0.000 C 
BRANCH  16  17
ATOM     17  C   UNL     1       8.664   9.667  18.547  0.00  0.00    +0.000 C 
ATOM     18  O   UNL     1       8.232  10.481  17.731  0.00  0.00    +0.000 OA
ATOM     19  N   UNL     1       9.386   9.956  19.692  0.00  0.00    +0.000 N 
ATOM     20  H   UNL     1       9.764   9.142  20.177  0.00  0.00    +0.000 HD
BRANCH  19  21
ATOM     21  C   UNL     1       9.752  11.233  20.166  0.00  0.00    +0.000 A 
ATOM     22  C   UNL     1       9.050  11.897  21.177  0.00  0.00    +0.000 A 
ATOM     23  C   UNL     1       9.445  13.173  21.598  0.00  0.00    +0.000 A 
ATOM     24  C   UNL     1      10.539  13.799  21.012  0.00  0.00    +0.000 A 
ATOM     25  C   UNL     1      11.259  13.142  20.015  0.00  0.00    +0.000 A 
ATOM     26  C   UNL     1      10.868  11.867  19.606  0.00  0.00    +0.000 A 
ATOM     27  F   UNL     1      11.567  11.257  18.634  0.00  0.00    +0.000 F 
ENDBRANCH  19  21
ENDBRANCH  16  17
ENDBRANCH   1  16
TORSDOF 8
ENDMDL
MODEL 7
REMARK VINA RESULT:      -7.2      5.841      7.606
REMARK  Name = 
REMARK  11 active torsions:
REMARK  status: ('A' for Active; 'I' for Inactive)
REMARK    1  A    between atoms: C_1  and  O_2
REMARK    2  A    between atoms: O_2  and  C_3
REMARK    3  A    between atoms: C_6  and  C_7
REMARK    4  A    between atoms: C_7  and  C_8
REMARK    5  A    between atoms: C_7  and  N_21
REMARK    6  A    between atoms: C_8  and  N_9
REMARK    7  A    between atoms: N_9  and  C_10
REMARK    8  A    between atoms: C_10  and  C_11
REMARK    9  A    between atoms: N_13  and  C_14
REMARK   10  A    between atoms: N_21  and  C_22
REMARK   11  A    between atoms: N_21  and  C_23
REMARK                            x       y       z     vdW  Elec       q    Type
REMARK                         _______ _______ _______ _____ _____    ______ ____
ROOT
ATOM      1  N   UNL     1       2.566   7.475  19.427  0.00  0.00    +0.000 NA
ATOM      2  H   UNL     1       3.589   7.460  19.415  0.00  0.00    +0.000 HD
ENDROOT
BRANCH   1   3
ATOM      3  C   UNL     1       2.098   6.087  19.277  0.00  0.00    +0.000 C 
BRANCH   3   4
ATOM      4  C   UNL     1       3.158   5.044  19.785  0.00  0.00    +0.000 C 
BRANCH   4   8
ATOM      5  C   UNL     1       6.324   4.937  16.792  0.00  0.00    +0.000 A 
ATOM      6  C   UNL     1       6.628   4.956  18.154  0.00  0.00    +0.000 A 
ATOM      7  C   UNL     1       5.611   4.962  19.113  0.00  0.00    +0.000 A 
ATOM      8  C   UNL     1       4.265   4.970  18.720  0.00  0.00    +0.000 A 
ATOM      9  C   UNL     1       3.973   4.991  17.344  0.00  0.00    +0.000 A 
ATOM     10  C   UNL     1       4.992   4.965  16.387  0.00  0.00    +0.000 A 
BRANCH   5  12
ATOM     11  C   UNL     1       7.114   4.729  14.576  0.00  0.00    +0.000 C 
ATOM     12  O   UNL     1       7.405   4.942  15.953  0.00  0.00    +0.000 OA
ENDBRANCH   5  12
ENDBRANCH   4   8
BRANCH   4  13
ATOM     13  N   UNL     1       2.573   3.707  20.128  0.00  0.00    +0.000 NA
ATOM     14  C   UNL     1       2.203   3.642  21.551  0.00  0.00    +0.000 C 
ATOM     15  C   UNL     1       1.371   3.407  19.339  0.00  0.00    +0.000 C 
ENDBRANCH   4  13
ENDBRANCH   3   4
ENDBRANCH   1   3
BRANCH   1  16
ATOM     16  C   UNL     1       2.048   8.338  18.360  0.00  0.00    +0.000 C 
BRANCH  16  17
ATOM     17  C   UNL     1       1.080   9.376  18.934  0.00  0.00    +0.000 C 
ATOM     18  O   UNL     1       0.256   9.925  18.203  0.00  0.00    +0.000 OA
ATOM     19  N   UNL     1       1.233   9.575  20.295  0.00  0.00    +0.000 N 
ATOM     20  H   UNL     1       2.052   9.125  20.705  0.00  0.00    +0.000 HD
BRANCH  19  21
ATOM     21  C   UNL     1       0.467  10.425  21.120  0.00  0.00    +0.000 A 
ATOM     22  C   UNL     1       0.469  11.816  20.986  0.00  0.00    +0.000 A 
ATOM     23  C   UNL     1      -0.297  12.615  21.844  0.00  0.00    +0.000 A 
ATOM     24  C   UNL     1      -1.067  12.035  22.845  0.00  0.00    +0.000 A 
ATOM     25  C   UNL     1      -1.093  10.647  22.979  0.00  0.00    +0.000 A 
ATOM     26  C   UNL     1      -0.336   9.855  22.116  0.00  0.00    +0.000 A 
ATOM     27  F   UNL     1      -0.366   8.521  22.271  0.00  0.00    +0.000 F 
ENDBRANCH  19  21
ENDBRANCH  16  17
ENDBRANCH   1  16
TORSDOF 8
ENDMDL
MODEL 8
REMARK VINA RESULT:      -7.1      5.716      7.405
REMARK  Name = 
REMARK  11 active torsions:
REMARK  status: ('A' for Active; 'I' for Inactive)
REMARK    1  A    between atoms: C_1  and  O_2
REMARK    2  A    between atoms: O_2  and  C_3
REMARK    3  A    between atoms: C_6  and  C_7
REMARK    4  A    between atoms: C_7  and  C_8
REMARK    5  A    between atoms: C_7  and  N_21
REMARK    6  A    between atoms: C_8  and  N_9
REMARK    7  A    between atoms: N_9  and  C_10
REMARK    8  A    between atoms: C_10  and  C_11
REMARK    9  A    between atoms: N_13  and  C_14
REMARK   10  A    between atoms: N_21  and  C_22
REMARK   11  A    between atoms: N_21  and  C_23
REMARK                            x       y       z     vdW  Elec       q    Type
REMARK                         _______ _______ _______ _____ _____    ______ ____
ROOT
ATOM      1  N   UNL     1       2.756   6.555  18.266  0.00  0.00    +0.000 NA
ATOM      2  H   UNL     1       2.423   6.765  17.321  0.00  0.00    +0.000 HD
ENDROOT
BRANCH   1   3
ATOM      3  C   UNL     1       2.316   5.190  18.600  0.00  0.00    +0.000 C 
BRANCH   3   4
ATOM      4  C   UNL     1       3.497   4.296  19.125  0.00  0.00    +0.000 C 
BRANCH   4   8
ATOM      5  C   UNL     1       6.815   4.652  16.322  0.00  0.00    +0.000 A 
ATOM      6  C   UNL     1       5.603   4.081  15.928  0.00  0.00    +0.000 A 
ATOM      7  C   UNL     1       4.531   3.994  16.820  0.00  0.00    +0.000 A 
ATOM      8  C   UNL     1       4.662   4.460  18.136  0.00  0.00    +0.000 A 
ATOM      9  C   UNL     1       5.901   4.997  18.532  0.00  0.00    +0.000 A 
ATOM     10  C   UNL     1       6.965   5.102  17.631  0.00  0.00    +0.000 A 
BRANCH   5  12
ATOM     11  C   UNL     1       7.350   4.996  14.048  0.00  0.00    +0.000 C 
ATOM     12  O   UNL     1       7.790   4.672  15.362  0.00  0.00    +0.000 OA
ENDBRANCH   5  12
ENDBRANCH   4   8
BRANCH   4  13
ATOM     13  N   UNL     1       3.114   2.866  19.360  0.00  0.00    +0.000 NA
ATOM     14  C   UNL     1       3.509   2.428  20.709  0.00  0.00    +0.000 C 
ATOM     15  C   UNL     1       1.668   2.649  19.225  0.00  0.00    +0.000 C 
ENDBRANCH   4  13
ENDBRANCH   3   4
ENDBRANCH   1   3
BRANCH   1  16
ATOM     16  C   UNL     1       2.243   7.538  19.227  0.00  0.00    +0.000 C 
BRANCH  16  17
ATOM     17  C   UNL     1       1.860   8.836  18.513  0.00  0.00    +0.000 C 
ATOM     18  O   UNL     1       2.125   8.988  17.320  0.00  0.00    +0.000 OA
ATOM     19  N   UNL     1       1.199   9.737  19.329  0.00  0.00    +0.000 N 
ATOM     20  H   UNL     1       1.184   9.487  20.318  0.00  0.00    +0.000 HD
BRANCH  19  21
ATOM     21  C   UNL     1       0.677  10.993  18.958  0.00  0.00    +0.000 A 
ATOM     22  C   UNL     1       1.449  12.159  18.937  0.00  0.00    +0.000 A 
ATOM     23  C   UNL     1       0.877  13.386  18.579  0.00  0.00    +0.000 A 
ATOM     24  C   UNL     1      -0.470  13.462  18.243  0.00  0.00    +0.000 A 
ATOM     25  C   UNL     1      -1.248  12.305  18.243  0.00  0.00    +0.000 A 
ATOM     26  C   UNL     1      -0.671  11.084  18.591  0.00  0.00    +0.000 A 
ATOM     27  F   UNL     1      -1.442   9.984  18.597  0.00  0.00    +0.000 F 
ENDBRANCH  19  21
ENDBRANCH  16  17
ENDBRANCH   1  16
TORSDOF 8
ENDMDL
MODEL 9
REMARK VINA RESULT:      -7.1      4.799      6.947
REMARK  Name = 
REMARK  11 active torsions:
REMARK  status: ('A' for Active; 'I' for Inactive)
REMARK    1  A    between atoms: C_1  and  O_2
REMARK    2  A    between atoms: O_2  and  C_3
REMARK    3  A    between atoms: C_6  and  C_7
REMARK    4  A    between atoms: C_7  and  C_8
REMARK    5  A    between atoms: C_7  and  N_21
REMARK    6  A    between atoms: C_8  and  N_9
REMARK    7  A    between atoms: N_9  and  C_10
REMARK    8  A    between atoms: C_10  and  C_11
REMARK    9  A    between atoms: N_13  and  C_14
REMARK   10  A    between atoms: N_21  and  C_22
REMARK   11  A    between atoms: N_21  and  C_23
REMARK                            x       y       z     vdW  Elec       q    Type
REMARK                         _______ _______ _______ _____ _____    ______ ____
ROOT
ATOM      1  N   UNL     1       6.177   5.890  19.099  0.00  0.00    +0.000 NA
ATOM      2  H   UNL     1       6.441   6.027  20.079  0.00  0.00    +0.000 HD
ENDROOT
BRANCH   1   3
ATOM      3  C   UNL     1       5.445   4.616  19.010  0.00  0.00    +0.000 C 
BRANCH   3   4
ATOM      4  C   UNL     1       4.187   4.717  18.074  0.00  0.00    +0.000 C 
BRANCH   4   8
ATOM      5  C   UNL     1       1.805   8.027  19.612  0.00  0.00    +0.000 A 
ATOM      6  C   UNL     1       2.415   8.106  18.358  0.00  0.00    +0.000 A 
ATOM      7  C   UNL     1       3.154   7.033  17.855  0.00  0.00    +0.000 A 
ATOM      8  C   UNL     1       3.314   5.864  18.612  0.00  0.00    +0.000 A 
ATOM      9  C   UNL     1       2.728   5.812  19.889  0.00  0.00    +0.000 A 
ATOM     10  C   UNL     1       1.971   6.880  20.382  0.00  0.00    +0.000 A 
BRANCH   5  12
ATOM     11  C   UNL     1       0.267   8.982  21.127  0.00  0.00    +0.000 C 
ATOM     12  O   UNL     1       1.115   9.145  19.997  0.00  0.00    +0.000 OA
ENDBRANCH   5  12
ENDBRANCH   4   8
BRANCH   4  13
ATOM     13  N   UNL     1       3.442   3.425  17.920  0.00  0.00    +0.000 NA
ATOM     14  C   UNL     1       3.538   2.612  19.144  0.00  0.00    +0.000 C 
ATOM     15  C   UNL     1       2.018   3.636  17.633  0.00  0.00    +0.000 C 
ENDBRANCH   4  13
ENDBRANCH   3   4
ENDBRANCH   1   3
BRANCH   1  16
ATOM     16  C   UNL     1       7.364   5.893  18.237  0.00  0.00    +0.000 C 
BRANCH  16  17
ATOM     17  C   UNL     1       6.956   5.972  16.764  0.00  0.00    +0.000 C 
ATOM     18  O   UNL     1       6.318   6.940  16.350  0.00  0.00    +0.000 OA
ATOM     19  N   UNL     1       7.396   4.896  16.014  0.00  0.00    +0.000 N 
ATOM     20  H   UNL     1       7.799   4.131  16.557  0.00  0.00    +0.000 HD
BRANCH  19  21
ATOM     21  C   UNL     1       7.225   4.700  14.628  0.00  0.00    +0.000 A 
ATOM     22  C   UNL     1       7.991   5.367  13.668  0.00  0.00    +0.000 A 
ATOM     23  C   UNL     1       7.768   5.149  12.302  0.00  0.00    +0.000 A 
ATOM     24  C   UNL     1       6.777   4.269  11.883  0.00  0.00    +0.000 A 
ATOM     25  C   UNL     1       6.017   3.584  12.830  0.00  0.00    +0.000 A 
ATOM     26  C   UNL     1       6.250   3.796  14.189  0.00  0.00    +0.000 A 
ATOM     27  F   UNL     1       5.497   3.135  15.084  0.00  0.00    +0.000 F 
ENDBRANCH  19  21
ENDBRANCH  16  17
ENDBRANCH   1  16
TORSDOF 8
ENDMDL
