MODEL 1
REMARK VINA RESULT:      -6.2      0.000      0.000
REMARK  Name = 
REMARK  9 active torsions:
REMARK  status: ('A' for Active; 'I' for Inactive)
REMARK    1  A    between atoms: C_1  and  C_2
REMARK    2  A    between atoms: C_2  and  C_3
REMARK    3  A    between atoms: C_2  and  N_4
REMARK    4  A    between atoms: N_4  and  C_5
REMARK    5  A    between atoms: C_5  and  C_6
REMARK    6  A    between atoms: C_6  and  O_7
REMARK    7  A    between atoms: C_6  and  C_8
REMARK    8  A    between atoms: C_12  and  O_13
REMARK    9  A    between atoms: C_14  and  O_15
REMARK                            x       y       z     vdW  Elec       q    Type
REMARK                         _______ _______ _______ _____ _____    ______ ____
ROOT
ATOM      1  C   UNL     1       3.011   3.469  18.768  0.00  0.00    +0.000 A 
ATOM      2  C   UNL     1       1.717   4.013  18.673  0.00  0.00    +0.000 A 
ATOM      3  C   UNL     1       0.835   3.944  19.751  0.00  0.00    +0.000 A 
ATOM      4  C   UNL     1       1.226   3.330  20.939  0.00  0.00    +0.000 A 
ATOM      5  C   UNL     1       2.508   2.779  21.060  0.00  0.00    +0.000 A 
ATOM      6  C   UNL     1       3.407   2.845  19.978  0.00  0.00    +0.000 A 
ENDROOT
BRANCH   5   7
ATOM      7  O   UNL     1       2.883   2.185  22.212  0.00  0.00    +0.000 OA
ATOM      8  H   UNL     1       3.150   2.692  22.993  0.00  0.00    +0.000 HD
ENDBRANCH   5   7
BRANCH   6   9
ATOM      9  O   UNL     1       4.646   2.320  20.097  0.00  0.00    +0.000 OA
ATOM     10  H   UNL     1       5.279   2.283  19.366  0.00  0.00    +0.000 HD
ENDBRANCH   6   9
BRANCH   1  11
ATOM     11  C   UNL     1       3.946   3.586  17.573  0.00  0.00    +0.000 C 
BRANCH  11  12
ATOM     12  O   UNL     1       4.548   2.346  17.287  0.00  0.00    +0.000 OA
ATOM     13  H   UNL     1       3.834   1.689  17.087  0.00  0.00    +0.000 HD
ENDBRANCH  11  12
BRANCH  11  14
ATOM     14  C   UNL     1       4.979   4.713  17.786  0.00  0.00    +0.000 C 
BRANCH  14  15
ATOM     15  N   UNL     1       6.239   4.184  18.323  0.00  0.00    +0.000 NA
ATOM     16  H   UNL     1       6.199   4.248  19.370  0.00  0.00    +0.000 HD
BRANCH  15  18
ATOM     17  C   UNL     1       7.109   5.581  16.509  0.00  0.00    +0.000 C 
ATOM     18  C   UNL     1       7.416   4.952  17.873  0.00  0.00    +0.000 C 
ATOM     19  C   UNL     1       7.803   6.065  18.868  0.00  0.00    +0.000 C 
ENDBRANCH  15  18
ENDBRANCH  14  15
ENDBRANCH  11  14
ENDBRANCH   1  11
TORSDOF 7
ENDMDL
MODEL 2
REMARK VINA RESULT:      -6.2      4.022      5.613
REMARK  Name = 
REMARK  9 active torsions:
REMARK  status: ('A' for Active; 'I' for Inactive)
REMARK    1  A    between atoms: C_1  and  C_2
REMARK    2  A    between atoms: C_2  and  C_3
REMARK    3  A    between atoms: C_2  and  N_4
REMARK    4  A    between atoms: N_4  and  C_5
REMARK    5  A    between atoms: C_5  and  C_6
REMARK    6  A    between atoms: C_6  and  O_7
REMARK    7  A    between atoms: C_6  and  C_8
REMARK    8  A    between atoms: C_12  and  O_13
REMARK    9  A    between atoms: C_14  and  O_15
REMARK                            x       y       z     vdW  Elec       q    Type
REMARK                         _______ _______ _______ _____ _____    ______ ____
ROOT
ATOM      1  C   UNL     1       6.335   5.005  16.015  0.00  0.00    +0.000 A 
ATOM      2  C   UNL     1       5.119   5.712  15.961  0.00  0.00    +0.000 A 
ATOM      3  C   UNL     1       4.514   6.176  17.128  0.00  0.00    +0.000 A 
ATOM      4  C   UNL     1       5.107   5.942  18.367  0.00  0.00    +0.000 A 
ATOM      5  C   UNL     1       6.317   5.240  18.449  0.00  0.00    +0.000 A 
ATOM      6  C   UNL     1       6.938   4.769  17.276  0.00  0.00    +0.000 A 
ENDROOT
BRANCH   5   7
ATOM      7  O   UNL     1       6.889   5.015  19.650  0.00  0.00    +0.000 OA
ATOM      8  H   UNL     1       7.843   4.883  19.752  0.00  0.00    +0.000 HD
ENDBRANCH   5   7
BRANCH   6   9
ATOM      9  O   UNL     1       8.108   4.098  17.353  0.00  0.00    +0.000 OA
ATOM     10  H   UNL     1       8.744   4.222  18.071  0.00  0.00    +0.000 HD
ENDBRANCH   6   9
BRANCH   1  11
ATOM     11  C   UNL     1       6.968   4.536  14.713  0.00  0.00    +0.000 C 
BRANCH  11  12
ATOM     12  O   UNL     1       7.788   5.541  14.165  0.00  0.00    +0.000 OA
ATOM     13  H   UNL     1       7.248   6.073  13.527  0.00  0.00    +0.000 HD
ENDBRANCH  11  12
BRANCH  11  14
ATOM     14  C   UNL     1       5.893   4.041  13.722  0.00  0.00    +0.000 C 
BRANCH  14  15
ATOM     15  N   UNL     1       6.500   3.323  12.594  0.00  0.00    +0.000 NA
ATOM     16  H   UNL     1       6.749   4.026  11.856  0.00  0.00    +0.000 HD
BRANCH  15  18
ATOM     17  C   UNL     1       4.444   3.095  11.281  0.00  0.00    +0.000 C 
ATOM     18  C   UNL     1       5.581   2.342  11.983  0.00  0.00    +0.000 C 
ATOM     19  C   UNL     1       6.292   1.433  10.962  0.00  0.00    +0.000 C 
ENDBRANCH  15  18
ENDBRANCH  14  15
ENDBRANCH  11  14
ENDBRANCH   1  11
TORSDOF 7
ENDMDL
MODEL 3
REMARK VINA RESULT:      -6.1      1.995      5.465
REMARK  Name = 
REMARK  9 active torsions:
REMARK  status: ('A' for Active; 'I' for Inactive)
REMARK    1  A    between atoms: C_1  and  C_2
REMARK    2  A    between atoms: C_2  and  C_3
REMARK    3  A    between atoms: C_2  and  N_4
REMARK    4  A    between atoms: N_4  and  C_5
REMARK    5  A    between atoms: C_5  and  C_6
REMARK    6  A    between atoms: C_6  and  O_7
REMARK    7  A    between atoms: C_6  and  C_8
REMARK    8  A    between atoms: C_12  and  O_13
REMARK    9  A    between atoms: C_14  and  O_15
REMARK                            x       y       z     vdW  Elec       q    Type
REMARK                         _______ _______ _______ _____ _____    ______ ____
ROOT
ATOM      1  C   UNL     1       4.716   5.281  17.748  0.00  0.00    +0.000 A 
ATOM      2  C   UNL     1       4.689   6.052  16.571  0.00  0.00    +0.000 A 
ATOM      3  C   UNL     1       5.813   6.138  15.751  0.00  0.00    +0.000 A 
ATOM      4  C   UNL     1       6.983   5.461  16.090  0.00  0.00    +0.000 A 
ATOM      5  C   UNL     1       7.038   4.688  17.257  0.00  0.00    +0.000 A 
ATOM      6  C   UNL     1       5.907   4.592  18.091  0.00  0.00    +0.000 A 
ENDROOT
BRANCH   5   7
ATOM      7  O   UNL     1       8.171   4.033  17.583  0.00  0.00    +0.000 OA
ATOM      8  H   UNL     1       8.376   3.151  17.241  0.00  0.00    +0.000 HD
ENDBRANCH   5   7
BRANCH   6   9
ATOM      9  O   UNL     1       5.957   3.841  19.213  0.00  0.00    +0.000 OA
ATOM     10  H   UNL     1       5.769   2.892  19.226  0.00  0.00    +0.000 HD
ENDBRANCH   6   9
BRANCH   1  11
ATOM     11  C   UNL     1       3.459   5.201  18.601  0.00  0.00    +0.000 C 
BRANCH  11  12
ATOM     12  O   UNL     1       3.748   5.496  19.947  0.00  0.00    +0.000 OA
ATOM     13  H   UNL     1       2.971   5.971  20.338  0.00  0.00    +0.000 HD
ENDBRANCH  11  12
BRANCH  11  14
ATOM     14  C   UNL     1       2.761   3.835  18.431  0.00  0.00    +0.000 C 
BRANCH  14  15
ATOM     15  N   UNL     1       3.069   2.936  19.550  0.00  0.00    +0.000 NA
ATOM     16  H   UNL     1       3.577   2.102  19.167  0.00  0.00    +0.000 HD
BRANCH  15  18
ATOM     17  C   UNL     1       1.871   2.948  21.686  0.00  0.00    +0.000 C 
ATOM     18  C   UNL     1       1.858   2.446  20.237  0.00  0.00    +0.000 C 
ATOM     19  C   UNL     1       0.564   2.920  19.549  0.00  0.00    +0.000 C 
ENDBRANCH  15  18
ENDBRANCH  14  15
ENDBRANCH  11  14
ENDBRANCH   1  11
TORSDOF 7
ENDMDL
MODEL 4
REMARK VINA RESULT:      -6.1      3.868      5.324
REMARK  Name = 
REMARK  9 active torsions:
REMARK  status: ('A' for Active; 'I' for Inactive)
REMARK    1  A    between atoms: C_1  and  C_2
REMARK    2  A    between atoms: C_2  and  C_3
REMARK    3  A    between atoms: C_2  and  N_4
REMARK    4  A    between atoms: N_4  and  C_5
REMARK    5  A    between atoms: C_5  and  C_6
REMARK    6  A    between atoms: C_6  and  O_7
REMARK    7  A    between atoms: C_6  and  C_8
REMARK    8  A    between atoms: C_12  and  O_13
REMARK    9  A    between atoms: C_14  and  O_15
REMARK                            x       y       z     vdW  Elec       q    Type
REMARK                         _______ _______ _______ _____ _____    ______ ____
ROOT
ATOM      1  C   UNL     1       6.183   4.725  16.249  0.00  0.00    +0.000 A 
ATOM      2  C   UNL     1       4.817   5.059  16.186  0.00  0.00    +0.000 A 
ATOM      3  C   UNL     1       4.109   5.378  17.344  0.00  0.00    +0.000 A 
ATOM      4  C   UNL     1       4.748   5.368  18.583  0.00  0.00    +0.000 A 
ATOM      5  C   UNL     1       6.106   5.038  18.673  0.00  0.00    +0.000 A 
ATOM      6  C   UNL     1       6.831   4.716  17.509  0.00  0.00    +0.000 A 
ENDROOT
BRANCH   5   7
ATOM      7  O   UNL     1       6.722   5.028  19.873  0.00  0.00    +0.000 OA
ATOM      8  H   UNL     1       6.712   4.254  20.454  0.00  0.00    +0.000 HD
ENDBRANCH   5   7
BRANCH   6   9
ATOM      9  O   UNL     1       8.143   4.404  17.595  0.00  0.00    +0.000 OA
ATOM     10  H   UNL     1       8.558   4.069  18.402  0.00  0.00    +0.000 HD
ENDBRANCH   6   9
BRANCH   1  11
ATOM     11  C   UNL     1       6.918   4.403  14.956  0.00  0.00    +0.000 C 
BRANCH  11  12
ATOM     12  O   UNL     1       7.764   5.465  14.585  0.00  0.00    +0.000 OA
ATOM     13  H   UNL     1       7.524   5.752  13.666  0.00  0.00    +0.000 HD
ENDBRANCH  11  12
BRANCH  11  14
ATOM     14  C   UNL     1       5.928   4.014  13.838  0.00  0.00    +0.000 C 
BRANCH  14  15
ATOM     15  N   UNL     1       6.503   2.999  12.946  0.00  0.00    +0.000 NA
ATOM     16  H   UNL     1       7.492   3.278  12.732  0.00  0.00    +0.000 HD
BRANCH  15  18
ATOM     17  C   UNL     1       5.819   1.433  11.192  0.00  0.00    +0.000 C 
ATOM     18  C   UNL     1       5.781   2.892  11.664  0.00  0.00    +0.000 C 
ATOM     19  C   UNL     1       4.313   3.347  11.781  0.00  0.00    +0.000 C 
ENDBRANCH  15  18
ENDBRANCH  14  15
ENDBRANCH  11  14
ENDBRANCH   1  11
TORSDOF 7
ENDMDL
MODEL 5
REMARK VINA RESULT:      -6.0      2.347      5.553
REMARK  Name = 
REMARK  9 active torsions:
REMARK  status: ('A' for Active; 'I' for Inactive)
REMARK    1  A    between atoms: C_1  and  C_2
REMARK    2  A    between atoms: C_2  and  C_3
REMARK    3  A    between atoms: C_2  and  N_4
REMARK    4  A    between atoms: N_4  and  C_5
REMARK    5  A    between atoms: C_5  and  C_6
REMARK    6  A    between atoms: C_6  and  O_7
REMARK    7  A    between atoms: C_6  and  C_8
REMARK    8  A    between atoms: C_12  and  O_13
REMARK    9  A    between atoms: C_14  and  O_15
REMARK                            x       y       z     vdW  Elec       q    Type
REMARK                         _______ _______ _______ _____ _____    ______ ____
ROOT
ATOM      1  C   UNL     1       4.849   4.940  16.946  0.00  0.00    +0.000 A 
ATOM      2  C   UNL     1       5.002   5.372  15.615  0.00  0.00    +0.000 A 
ATOM      3  C   UNL     1       6.250   5.339  14.995  0.00  0.00    +0.000 A 
ATOM      4  C   UNL     1       7.367   4.879  15.691  0.00  0.00    +0.000 A 
ATOM      5  C   UNL     1       7.243   4.446  17.016  0.00  0.00    +0.000 A 
ATOM      6  C   UNL     1       5.987   4.472  17.651  0.00  0.00    +0.000 A 
ENDROOT
BRANCH   5   7
ATOM      7  O   UNL     1       8.327   4.001  17.687  0.00  0.00    +0.000 OA
ATOM      8  H   UNL     1       9.226   4.107  17.345  0.00  0.00    +0.000 HD
ENDBRANCH   5   7
BRANCH   6   9
ATOM      9  O   UNL     1       5.865   4.047  18.928  0.00  0.00    +0.000 OA
ATOM     10  H   UNL     1       5.023   3.781  19.321  0.00  0.00    +0.000 HD
ENDBRANCH   6   9
BRANCH   1  11
ATOM     11  C   UNL     1       3.464   4.975  17.574  0.00  0.00    +0.000 C 
BRANCH  11  12
ATOM     12  O   UNL     1       3.533   5.404  18.913  0.00  0.00    +0.000 OA
ATOM     13  H   UNL     1       2.989   6.228  19.007  0.00  0.00    +0.000 HD
ENDBRANCH  11  12
BRANCH  11  14
ATOM     14  C   UNL     1       2.753   3.614  17.423  0.00  0.00    +0.000 C 
BRANCH  14  15
ATOM     15  N   UNL     1       1.334   3.710  17.789  0.00  0.00    +0.000 NA
ATOM     16  H   UNL     1       1.124   4.712  18.016  0.00  0.00    +0.000 HD
BRANCH  15  18
ATOM     17  C   UNL     1       2.115   1.881  19.219  0.00  0.00    +0.000 C 
ATOM     18  C   UNL     1       0.997   2.902  18.978  0.00  0.00    +0.000 C 
ATOM     19  C   UNL     1       0.820   3.768  20.241  0.00  0.00    +0.000 C 
ENDBRANCH  15  18
ENDBRANCH  14  15
ENDBRANCH  11  14
ENDBRANCH   1  11
TORSDOF 7
ENDMDL
MODEL 6
REMARK VINA RESULT:      -6.0      2.207      2.534
REMARK  Name = 
REMARK  9 active torsions:
REMARK  status: ('A' for Active; 'I' for Inactive)
REMARK    1  A    between atoms: C_1  and  C_2
REMARK    2  A    between atoms: C_2  and  C_3
REMARK    3  A    between atoms: C_2  and  N_4
REMARK    4  A    between atoms: N_4  and  C_5
REMARK    5  A    between atoms: C_5  and  C_6
REMARK    6  A    between atoms: C_6  and  O_7
REMARK    7  A    between atoms: C_6  and  C_8
REMARK    8  A    between atoms: C_12  and  O_13
REMARK    9  A    between atoms: C_14  and  O_15
REMARK                            x       y       z     vdW  Elec       q    Type
REMARK                         _______ _______ _______ _____ _____    ______ ____
ROOT
ATOM      1  C   UNL     1       3.281   3.602  19.166  0.00  0.00    +0.000 A 
ATOM      2  C   UNL     1       2.192   2.714  19.236  0.00  0.00    +0.000 A 
ATOM      3  C   UNL     1       1.021   3.076  19.902  0.00  0.00    +0.000 A 
ATOM      4  C   UNL     1       0.918   4.325  20.511  0.00  0.00    +0.000 A 
ATOM      5  C   UNL     1       1.988   5.227  20.458  0.00  0.00    +0.000 A 
ATOM      6  C   UNL     1       3.174   4.873  19.786  0.00  0.00    +0.000 A 
ENDROOT
BRANCH   5   7
ATOM      7  O   UNL     1       1.884   6.436  21.048  0.00  0.00    +0.000 OA
ATOM      8  H   UNL     1       2.579   6.794  21.619  0.00  0.00    +0.000 HD
ENDBRANCH   5   7
BRANCH   6   9
ATOM      9  O   UNL     1       4.204   5.745  19.728  0.00  0.00    +0.000 OA
ATOM     10  H   UNL     1       4.345   6.352  18.988  0.00  0.00    +0.000 HD
ENDBRANCH   6   9
BRANCH   1  11
ATOM     11  C   UNL     1       4.530   3.172  18.412  0.00  0.00    +0.000 C 
BRANCH  11  12
ATOM     12  O   UNL     1       5.692   3.527  19.124  0.00  0.00    +0.000 OA
ATOM     13  H   UNL     1       5.470   3.561  20.089  0.00  0.00    +0.000 HD
ENDBRANCH  11  12
BRANCH  11  14
ATOM     14  C   UNL     1       4.525   3.726  16.971  0.00  0.00    +0.000 C 
BRANCH  14  15
ATOM     15  N   UNL     1       5.760   3.370  16.259  0.00  0.00    +0.000 NA
ATOM     16  H   UNL     1       6.498   3.160  16.974  0.00  0.00    +0.000 HD
BRANCH  15  18
ATOM     17  C   UNL     1       6.221   4.013  13.942  0.00  0.00    +0.000 C 
ATOM     18  C   UNL     1       6.261   4.465  15.406  0.00  0.00    +0.000 C 
ATOM     19  C   UNL     1       5.431   5.754  15.562  0.00  0.00    +0.000 C 
ENDBRANCH  15  18
ENDBRANCH  14  15
ENDBRANCH  11  14
ENDBRANCH   1  11
TORSDOF 7
ENDMDL
MODEL 7
REMARK VINA RESULT:      -6.0      2.288      5.347
REMARK  Name = 
REMARK  9 active torsions:
REMARK  status: ('A' for Active; 'I' for Inactive)
REMARK    1  A    between atoms: C_1  and  C_2
REMARK    2  A    between atoms: C_2  and  C_3
REMARK    3  A    between atoms: C_2  and  N_4
REMARK    4  A    between atoms: N_4  and  C_5
REMARK    5  A    between atoms: C_5  and  C_6
REMARK    6  A    between atoms: C_6  and  O_7
REMARK    7  A    between atoms: C_6  and  C_8
REMARK    8  A    between atoms: C_12  and  O_13
REMARK    9  A    between atoms: C_14  and  O_15
REMARK                            x       y       z     vdW  Elec       q    Type
REMARK                         _______ _______ _______ _____ _____    ______ ____
ROOT
ATOM      1  C   UNL     1       5.121   4.075  17.973  0.00  0.00    +0.000 A 
ATOM      2  C   UNL     1       4.890   4.047  16.586  0.00  0.00    +0.000 A 
ATOM      3  C   UNL     1       5.606   4.881  15.728  0.00  0.00    +0.000 A 
ATOM      4  C   UNL     1       6.562   5.758  16.238  0.00  0.00    +0.000 A 
ATOM      5  C   UNL     1       6.810   5.808  17.615  0.00  0.00    +0.000 A 
ATOM      6  C   UNL     1       6.094   4.968  18.490  0.00  0.00    +0.000 A 
ENDROOT
BRANCH   5   7
ATOM      7  O   UNL     1       7.736   6.658  18.106  0.00  0.00    +0.000 OA
ATOM      8  H   UNL     1       7.511   7.552  18.403  0.00  0.00    +0.000 HD
ENDBRANCH   5   7
BRANCH   6   9
ATOM      9  O   UNL     1       6.339   5.010  19.818  0.00  0.00    +0.000 OA
ATOM     10  H   UNL     1       5.696   5.329  20.467  0.00  0.00    +0.000 HD
ENDBRANCH   6   9
BRANCH   1  11
ATOM     11  C   UNL     1       4.330   3.132  18.868  0.00  0.00    +0.000 C 
BRANCH  11  12
ATOM     12  O   UNL     1       5.193   2.367  19.675  0.00  0.00    +0.000 OA
ATOM     13  H   UNL     1       6.109   2.737  19.593  0.00  0.00    +0.000 HD
ENDBRANCH  11  12
BRANCH  11  14
ATOM     14  C   UNL     1       3.366   2.259  18.036  0.00  0.00    +0.000 C 
BRANCH  14  15
ATOM     15  N   UNL     1       2.224   1.810  18.843  0.00  0.00    +0.000 NA
ATOM     16  H   UNL     1       1.870   0.912  18.433  0.00  0.00    +0.000 HD
BRANCH  15  18
ATOM     17  C   UNL     1       0.948   3.360  20.246  0.00  0.00    +0.000 C 
ATOM     18  C   UNL     1       1.108   2.776  18.837  0.00  0.00    +0.000 C 
ATOM     19  C   UNL     1       1.335   3.925  17.836  0.00  0.00    +0.000 C 
ENDBRANCH  15  18
ENDBRANCH  14  15
ENDBRANCH  11  14
ENDBRANCH   1  11
TORSDOF 7
ENDMDL
MODEL 8
REMARK VINA RESULT:      -6.0      2.001      2.878
REMARK  Name = 
REMARK  9 active torsions:
REMARK  status: ('A' for Active; 'I' for Inactive)
REMARK    1  A    between atoms: C_1  and  C_2
REMARK    2  A    between atoms: C_2  and  C_3
REMARK    3  A    between atoms: C_2  and  N_4
REMARK    4  A    between atoms: N_4  and  C_5
REMARK    5  A    between atoms: C_5  and  C_6
REMARK    6  A    between atoms: C_6  and  O_7
REMARK    7  A    between atoms: C_6  and  C_8
REMARK    8  A    between atoms: C_12  and  O_13
REMARK    9  A    between atoms: C_14  and  O_15
REMARK                            x       y       z     vdW  Elec       q    Type
REMARK                         _______ _______ _______ _____ _____    ______ ____
ROOT
ATOM      1  C   UNL     1       4.240   4.093  18.462  0.00  0.00    +0.000 A 
ATOM      2  C   UNL     1       3.459   5.230  18.185  0.00  0.00    +0.000 A 
ATOM      3  C   UNL     1       2.077   5.123  18.032  0.00  0.00    +0.000 A 
ATOM      4  C   UNL     1       1.452   3.882  18.149  0.00  0.00    +0.000 A 
ATOM      5  C   UNL     1       2.206   2.735  18.422  0.00  0.00    +0.000 A 
ATOM      6  C   UNL     1       3.603   2.832  18.581  0.00  0.00    +0.000 A 
ENDROOT
BRANCH   5   7
ATOM      7  O   UNL     1       1.599   1.536  18.535  0.00  0.00    +0.000 OA
ATOM      8  H   UNL     1       2.078   0.701  18.431  0.00  0.00    +0.000 HD
ENDBRANCH   5   7
BRANCH   6   9
ATOM      9  O   UNL     1       4.331   1.727  18.852  0.00  0.00    +0.000 OA
ATOM     10  H   UNL     1       5.043   1.707  19.506  0.00  0.00    +0.000 HD
ENDBRANCH   6   9
BRANCH   1  11
ATOM     11  C   UNL     1       5.742   4.262  18.641  0.00  0.00    +0.000 C 
BRANCH  11  12
ATOM     12  O   UNL     1       6.023   5.122  19.719  0.00  0.00    +0.000 OA
ATOM     13  H   UNL     1       5.166   5.401  20.130  0.00  0.00    +0.000 HD
ENDBRANCH  11  12
BRANCH  11  14
ATOM     14  C   UNL     1       6.408   4.720  17.326  0.00  0.00    +0.000 C 
BRANCH  14  15
ATOM     15  N   UNL     1       6.217   3.730  16.259  0.00  0.00    +0.000 NA
ATOM     16  H   UNL     1       7.163   3.407  15.942  0.00  0.00    +0.000 HD
BRANCH  15  18
ATOM     17  C   UNL     1       5.465   5.813  15.213  0.00  0.00    +0.000 C 
ATOM     18  C   UNL     1       5.517   4.286  15.084  0.00  0.00    +0.000 C 
ATOM     19  C   UNL     1       6.212   3.913  13.760  0.00  0.00    +0.000 C 
ENDBRANCH  15  18
ENDBRANCH  14  15
ENDBRANCH  11  14
ENDBRANCH   1  11
TORSDOF 7
ENDMDL
MODEL 9
REMARK VINA RESULT:      -6.0      1.703      2.029
REMARK  Name = 
REMARK  9 active torsions:
REMARK  status: ('A' for Active; 'I' for Inactive)
REMARK    1  A    between atoms: C_1  and  C_2
REMARK    2  A    between atoms: C_2  and  C_3
REMARK    3  A    between atoms: C_2  and  N_4
REMARK    4  A    between atoms: N_4  and  C_5
REMARK    5  A    between atoms: C_5  and  C_6
REMARK    6  A    between atoms: C_6  and  O_7
REMARK    7  A    between atoms: C_6  and  C_8
REMARK    8  A    between atoms: C_12  and  O_13
REMARK    9  A    between atoms: C_14  and  O_15
REMARK                            x       y       z     vdW  Elec       q    Type
REMARK                         _______ _______ _______ _____ _____    ______ ____
ROOT
ATOM      1  C   UNL     1       3.370   3.683  19.414  0.00  0.00    +0.000 A 
ATOM      2  C   UNL     1       3.159   4.898  20.092  0.00  0.00    +0.000 A 
ATOM      3  C   UNL     1       1.888   5.246  20.550  0.00  0.00    +0.000 A 
ATOM      4  C   UNL     1       0.808   4.391  20.338  0.00  0.00    +0.000 A 
ATOM      5  C   UNL     1       0.990   3.177  19.664  0.00  0.00    +0.000 A 
ATOM      6  C   UNL     1       2.269   2.815  19.200  0.00  0.00    +0.000 A 
ENDROOT
BRANCH   5   7
ATOM      7  O   UNL     1      -0.058   2.352  19.460  0.00  0.00    +0.000 OA
ATOM      8  H   UNL     1      -0.594   2.006  20.189  0.00  0.00    +0.000 HD
ENDBRANCH   5   7
BRANCH   6   9
ATOM      9  O   UNL     1       2.447   1.640  18.556  0.00  0.00    +0.000 OA
ATOM     10  H   UNL     1       2.085   0.801  18.872  0.00  0.00    +0.000 HD
ENDBRANCH   6   9
BRANCH   1  11
ATOM     11  C   UNL     1       4.777   3.337  18.950  0.00  0.00    +0.000 C 
BRANCH  11  12
ATOM     12  O   UNL     1       5.290   2.247  19.679  0.00  0.00    +0.000 OA
ATOM     13  H   UNL     1       6.270   2.361  19.766  0.00  0.00    +0.000 HD
ENDBRANCH  11  12
BRANCH  11  14
ATOM     14  C   UNL     1       5.698   4.574  19.008  0.00  0.00    +0.000 C 
BRANCH  14  15
ATOM     15  N   UNL     1       6.922   4.364  18.224  0.00  0.00    +0.000 NA
ATOM     16  H   UNL     1       7.743   4.589  18.837  0.00  0.00    +0.000 HD
BRANCH  15  18
ATOM     17  C   UNL     1       6.694   4.406  15.786  0.00  0.00    +0.000 C 
ATOM     18  C   UNL     1       6.997   5.238  17.038  0.00  0.00    +0.000 C 
ATOM     19  C   UNL     1       6.004   6.414  17.116  0.00  0.00    +0.000 C 
ENDBRANCH  15  18
ENDBRANCH  14  15
ENDBRANCH  11  14
ENDBRANCH   1  11
TORSDOF 7
ENDMDL
