MODEL 1
REMARK VINA RESULT:      -8.2      0.000      0.000
REMARK  Name = 
REMARK  7 active torsions:
REMARK  status: ('A' for Active; 'I' for Inactive)
REMARK    1  A    between atoms: C_1  and  C_2
REMARK    2  A    between atoms: C_4  and  C_5
REMARK    3  A    between atoms: N_7  and  CA_8
REMARK    4  A    between atoms: CA_8  and  C_9
REMARK    5  A    between atoms: CA_8  and  C_12
REMARK    6  A    between atoms: C_9  and  OXT_11
REMARK    7  A    between atoms: N_19  and  C_20
REMARK                            x       y       z     vdW  Elec       q    Type
REMARK                         _______ _______ _______ _____ _____    ______ ____
ROOT
ATOM      1  C   UNL     1       6.798   4.911  15.717  0.00  0.00    +0.000 C 
ATOM      2  O   UNL     1       7.874   4.507  16.140  0.00  0.00    +0.000 OA
ATOM      3  N   UNL     1       6.533   5.080  14.371  0.00  0.00    +0.000 N 
ATOM      4  H   UNL     1       5.577   5.350  14.147  0.00  0.00    +0.000 HD
ENDROOT
BRANCH   1   8
ATOM      5  C   UNL     1       3.059   7.614  17.811  0.00  0.00    +0.000 C 
ATOM      6  C   UNL     1       4.025   6.542  17.452  0.00  0.00    +0.000 A 
ATOM      7  C   UNL     1       5.149   6.647  16.659  0.00  0.00    +0.000 A 
ATOM      8  C   UNL     1       5.703   5.353  16.600  0.00  0.00    +0.000 A 
ATOM      9  N   UNL     1       5.069   4.517  17.442  0.00  0.00    +0.000 NA
ATOM     10  N   UNL     1       4.021   5.243  17.938  0.00  0.00    +0.000 N 
BRANCH  10  11
ATOM     11  C   UNL     1       3.098   4.615  18.823  0.00  0.00    +0.000 A 
ATOM     12  C   UNL     1       3.265   4.772  20.208  0.00  0.00    +0.000 A 
ATOM     13  C   UNL     1       2.370   4.167  21.094  0.00  0.00    +0.000 A 
ATOM     14  C   UNL     1       1.335   3.381  20.599  0.00  0.00    +0.000 A 
ATOM     15  F   UNL     1       0.494   2.777  21.448  0.00  0.00    +0.000 F 
ATOM     16  C   UNL     1       1.172   3.198  19.230  0.00  0.00    +0.000 A 
ATOM     17  C   UNL     1       2.049   3.819  18.339  0.00  0.00    +0.000 A 
ENDBRANCH  10  11
ENDBRANCH   1   8
BRANCH   3  18
ATOM     18  CA  UNL     1       7.470   4.645  13.324  0.00  0.00    +0.000 C 
BRANCH  18  19
ATOM     19  C   UNL     1       6.788   3.798  12.227  0.00  0.00    +0.000 C 
ATOM     20  C   UNL     1       5.324   3.439  12.542  0.00  0.00    +0.000 C 
ATOM     21  C   UNL     1       4.680   2.698  11.371  0.00  0.00    +0.000 C 
ATOM     22  C   UNL     1       5.475   1.456  10.976  0.00  0.00    +0.000 C 
ATOM     23  C   UNL     1       6.952   1.763  10.742  0.00  0.00    +0.000 C 
ATOM     24  C   UNL     1       7.574   2.513  11.919  0.00  0.00    +0.000 C 
ENDBRANCH  18  19
BRANCH  18  25
ATOM     25  C   UNL     1       8.212   5.833  12.665  0.00  0.00    +0.000 C 
ATOM     26  O   UNL     1       7.833   6.408  11.659  0.00  0.00    +0.000 OA
BRANCH  25  27
ATOM     27  OXT UNL     1       9.310   6.230  13.353  0.00  0.00    +0.000 OA
ATOM     28  HXT UNL     1       9.937   5.484  13.436  0.00  0.00    +0.000 HD
ENDBRANCH  25  27
ENDBRANCH  18  25
ENDBRANCH   3  18
TORSDOF 6
ENDMDL
MODEL 2
REMARK VINA RESULT:      -7.7      0.594      1.087
REMARK  Name = 
REMARK  7 active torsions:
REMARK  status: ('A' for Active; 'I' for Inactive)
REMARK    1  A    between atoms: C_1  and  C_2
REMARK    2  A    between atoms: C_4  and  C_5
REMARK    3  A    between atoms: N_7  and  CA_8
REMARK    4  A    between atoms: CA_8  and  C_9
REMARK    5  A    between atoms: CA_8  and  C_12
REMARK    6  A    between atoms: C_9  and  OXT_11
REMARK    7  A    between atoms: N_19  and  C_20
REMARK                            x       y       z     vdW  Elec       q    Type
REMARK                         _______ _______ _______ _____ _____    ______ ____
ROOT
ATOM      1  C   UNL     1       6.737   4.721  15.907  0.00  0.00    +0.000 C 
ATOM      2  O   UNL     1       7.810   4.275  16.297  0.00  0.00    +0.000 OA
ATOM      3  N   UNL     1       6.463   4.964  14.575  0.00  0.00    +0.000 N 
ATOM      4  H   UNL     1       5.511   5.264  14.375  0.00  0.00    +0.000 HD
ENDROOT
BRANCH   1   8
ATOM      5  C   UNL     1       2.939   7.289  18.063  0.00  0.00    +0.000 C 
ATOM      6  C   UNL     1       3.953   6.262  17.704  0.00  0.00    +0.000 A 
ATOM      7  C   UNL     1       5.029   6.397  16.852  0.00  0.00    +0.000 A 
ATOM      8  C   UNL     1       5.661   5.137  16.823  0.00  0.00    +0.000 A 
ATOM      9  N   UNL     1       5.121   4.306  17.733  0.00  0.00    +0.000 NA
ATOM     10  N   UNL     1       4.054   4.990  18.248  0.00  0.00    +0.000 N 
BRANCH  10  11
ATOM     11  C   UNL     1       3.215   4.350  19.205  0.00  0.00    +0.000 A 
ATOM     12  C   UNL     1       1.856   4.699  19.263  0.00  0.00    +0.000 A 
ATOM     13  C   UNL     1       1.014   4.082  20.193  0.00  0.00    +0.000 A 
ATOM     14  C   UNL     1       1.536   3.147  21.081  0.00  0.00    +0.000 A 
ATOM     15  F   UNL     1       0.736   2.578  21.992  0.00  0.00    +0.000 F 
ATOM     16  C   UNL     1       2.884   2.810  21.049  0.00  0.00    +0.000 A 
ATOM     17  C   UNL     1       3.725   3.406  20.108  0.00  0.00    +0.000 A 
ENDBRANCH  10  11
ENDBRANCH   1   8
BRANCH   3  18
ATOM     18  CA  UNL     1       7.381   4.567  13.497  0.00  0.00    +0.000 C 
BRANCH  18  19
ATOM     19  C   UNL     1       6.666   3.826  12.345  0.00  0.00    +0.000 C 
ATOM     20  C   UNL     1       5.179   3.534  12.626  0.00  0.00    +0.000 C 
ATOM     21  C   UNL     1       4.508   2.902  11.407  0.00  0.00    +0.000 C 
ATOM     22  C   UNL     1       5.235   1.641  10.946  0.00  0.00    +0.000 C 
ATOM     23  C   UNL     1       6.730   1.876  10.744  0.00  0.00    +0.000 C 
ATOM     24  C   UNL     1       7.380   2.518  11.969  0.00  0.00    +0.000 C 
ENDBRANCH  18  19
BRANCH  18  25
ATOM     25  C   UNL     1       8.171   5.766  12.920  0.00  0.00    +0.000 C 
ATOM     26  O   UNL     1       9.180   6.231  13.423  0.00  0.00    +0.000 OA
BRANCH  25  27
ATOM     27  OXT UNL     1       7.670   6.228  11.749  0.00  0.00    +0.000 OA
ATOM     28  HXT UNL     1       6.753   6.543  11.881  0.00  0.00    +0.000 HD
ENDBRANCH  25  27
ENDBRANCH  18  25
ENDBRANCH   3  18
TORSDOF 6
ENDMDL
MODEL 3
REMARK VINA RESULT:      -7.4      4.320      6.572
REMARK  Name = 
REMARK  7 active torsions:
REMARK  status: ('A' for Active; 'I' for Inactive)
REMARK    1  A    between atoms: C_1  and  C_2
REMARK    2  A    between atoms: C_4  and  C_5
REMARK    3  A    between atoms: N_7  and  CA_8
REMARK    4  A    between atoms: CA_8  and  C_9
REMARK    5  A    between atoms: CA_8  and  C_12
REMARK    6  A    between atoms: C_9  and  OXT_11
REMARK    7  A    between atoms: N_19  and  C_20
REMARK                            x       y       z     vdW  Elec       q    Type
REMARK                         _______ _______ _______ _____ _____    ______ ____
ROOT
ATOM      1  C   UNL     1       2.378   5.752  18.286  0.00  0.00    +0.000 C 
ATOM      2  O   UNL     1       1.640   5.138  17.525  0.00  0.00    +0.000 OA
ATOM      3  N   UNL     1       3.461   5.169  18.917  0.00  0.00    +0.000 N 
ATOM      4  H   UNL     1       4.038   5.805  19.464  0.00  0.00    +0.000 HD
ENDROOT
BRANCH   1   8
ATOM      5  C   UNL     1       1.913  10.796  18.208  0.00  0.00    +0.000 C 
ATOM      6  C   UNL     1       1.883   9.360  18.592  0.00  0.00    +0.000 A 
ATOM      7  C   UNL     1       2.493   8.300  17.953  0.00  0.00    +0.000 A 
ATOM      8  C   UNL     1       2.137   7.150  18.684  0.00  0.00    +0.000 A 
ATOM      9  N   UNL     1       1.486   7.480  19.815  0.00  0.00    +0.000 NA
ATOM     10  N   UNL     1       1.306   8.833  19.738  0.00  0.00    +0.000 N 
BRANCH  10  11
ATOM     11  C   UNL     1       0.577   9.497  20.766  0.00  0.00    +0.000 A 
ATOM     12  C   UNL     1      -0.187  10.629  20.440  0.00  0.00    +0.000 A 
ATOM     13  C   UNL     1      -0.913  11.294  21.432  0.00  0.00    +0.000 A 
ATOM     14  C   UNL     1      -0.846  10.850  22.749  0.00  0.00    +0.000 A 
ATOM     15  F   UNL     1      -1.517  11.504  23.705  0.00  0.00    +0.000 F 
ATOM     16  C   UNL     1      -0.076   9.744  23.089  0.00  0.00    +0.000 A 
ATOM     17  C   UNL     1       0.633   9.061  22.098  0.00  0.00    +0.000 A 
ENDBRANCH  10  11
ENDBRANCH   1   8
BRANCH   3  18
ATOM     18  CA  UNL     1       3.907   3.801  18.614  0.00  0.00    +0.000 C 
BRANCH  18  19
ATOM     19  C   UNL     1       5.203   3.768  17.773  0.00  0.00    +0.000 C 
ATOM     20  C   UNL     1       6.261   4.792  18.226  0.00  0.00    +0.000 C 
ATOM     21  C   UNL     1       7.553   4.630  17.427  0.00  0.00    +0.000 C 
ATOM     22  C   UNL     1       7.309   4.726  15.923  0.00  0.00    +0.000 C 
ATOM     23  C   UNL     1       6.202   3.785  15.455  0.00  0.00    +0.000 C 
ATOM     24  C   UNL     1       4.922   3.954  16.273  0.00  0.00    +0.000 C 
ENDBRANCH  18  19
BRANCH  18  25
ATOM     25  C   UNL     1       4.103   2.947  19.889  0.00  0.00    +0.000 C 
ATOM     26  O   UNL     1       3.340   2.946  20.840  0.00  0.00    +0.000 OA
BRANCH  25  27
ATOM     27  OXT UNL     1       5.184   2.133  19.831  0.00  0.00    +0.000 OA
ATOM     28  HXT UNL     1       5.739   2.260  20.626  0.00  0.00    +0.000 HD
ENDBRANCH  25  27
ENDBRANCH  18  25
ENDBRANCH   3  18
TORSDOF 6
ENDMDL
MODEL 4
REMARK VINA RESULT:      -7.3      4.340      6.574
REMARK  Name = 
REMARK  7 active torsions:
REMARK  status: ('A' for Active; 'I' for Inactive)
REMARK    1  A    between atoms: C_1  and  C_2
REMARK    2  A    between atoms: C_4  and  C_5
REMARK    3  A    between atoms: N_7  and  CA_8
REMARK    4  A    between atoms: CA_8  and  C_9
REMARK    5  A    between atoms: CA_8  and  C_12
REMARK    6  A    between atoms: C_9  and  OXT_11
REMARK    7  A    between atoms: N_19  and  C_20
REMARK                            x       y       z     vdW  Elec       q    Type
REMARK                         _______ _______ _______ _____ _____    ______ ____
ROOT
ATOM      1  C   UNL     1       2.365   5.760  18.312  0.00  0.00    +0.000 C 
ATOM      2  O   UNL     1       1.622   5.144  17.558  0.00  0.00    +0.000 OA
ATOM      3  N   UNL     1       3.445   5.177  18.948  0.00  0.00    +0.000 N 
ATOM      4  H   UNL     1       4.027   5.814  19.488  0.00  0.00    +0.000 HD
ENDROOT
BRANCH   1   8
ATOM      5  C   UNL     1       1.960  10.809  18.193  0.00  0.00    +0.000 C 
ATOM      6  C   UNL     1       1.907   9.376  18.586  0.00  0.00    +0.000 A 
ATOM      7  C   UNL     1       2.515   8.305  17.964  0.00  0.00    +0.000 A 
ATOM      8  C   UNL     1       2.133   7.164  18.697  0.00  0.00    +0.000 A 
ATOM      9  N   UNL     1       1.467   7.508  19.815  0.00  0.00    +0.000 NA
ATOM     10  N   UNL     1       1.304   8.864  19.726  0.00  0.00    +0.000 N 
BRANCH  10  11
ATOM     11  C   UNL     1       0.566   9.542  20.737  0.00  0.00    +0.000 A 
ATOM     12  C   UNL     1       0.604   9.055  22.053  0.00  0.00    +0.000 A 
ATOM     13  C   UNL     1      -0.110   9.707  23.062  0.00  0.00    +0.000 A 
ATOM     14  C   UNL     1      -0.887  10.818  22.749  0.00  0.00    +0.000 A 
ATOM     15  F   UNL     1      -1.596  11.425  23.709  0.00  0.00    +0.000 F 
ATOM     16  C   UNL     1      -0.952  11.297  21.446  0.00  0.00    +0.000 A 
ATOM     17  C   UNL     1      -0.222  10.664  20.438  0.00  0.00    +0.000 A 
ENDBRANCH  10  11
ENDBRANCH   1   8
BRANCH   3  18
ATOM     18  CA  UNL     1       3.882   3.803  18.657  0.00  0.00    +0.000 C 
BRANCH  18  19
ATOM     19  C   UNL     1       5.163   3.754  17.795  0.00  0.00    +0.000 C 
ATOM     20  C   UNL     1       6.245   4.757  18.236  0.00  0.00    +0.000 C 
ATOM     21  C   UNL     1       7.521   4.579  17.414  0.00  0.00    +0.000 C 
ATOM     22  C   UNL     1       7.254   4.687  15.915  0.00  0.00    +0.000 C 
ATOM     23  C   UNL     1       6.124   3.767  15.461  0.00  0.00    +0.000 C 
ATOM     24  C   UNL     1       4.861   3.953  16.301  0.00  0.00    +0.000 C 
ENDBRANCH  18  19
BRANCH  18  25
ATOM     25  C   UNL     1       4.097   2.967  19.941  0.00  0.00    +0.000 C 
ATOM     26  O   UNL     1       5.072   2.265  20.149  0.00  0.00    +0.000 OA
BRANCH  25  27
ATOM     27  OXT UNL     1       3.118   3.134  20.863  0.00  0.00    +0.000 OA
ATOM     28  HXT UNL     1       2.742   2.265  21.109  0.00  0.00    +0.000 HD
ENDBRANCH  25  27
ENDBRANCH  18  25
ENDBRANCH   3  18
TORSDOF 6
ENDMDL
MODEL 5
REMARK VINA RESULT:      -7.3      5.463      9.136
REMARK  Name = 
REMARK  7 active torsions:
REMARK  status: ('A' for Active; 'I' for Inactive)
REMARK    1  A    between atoms: C_1  and  C_2
REMARK    2  A    between atoms: C_4  and  C_5
REMARK    3  A    between atoms: N_7  and  CA_8
REMARK    4  A    between atoms: CA_8  and  C_9
REMARK    5  A    between atoms: CA_8  and  C_12
REMARK    6  A    between atoms: C_9  and  OXT_11
REMARK    7  A    between atoms: N_19  and  C_20
REMARK                            x       y       z     vdW  Elec       q    Type
REMARK                         _______ _______ _______ _____ _____    ______ ____
ROOT
ATOM      1  C   UNL     1       1.308   9.130  19.207  0.00  0.00    +0.000 C 
ATOM      2  O   UNL     1       0.912   9.023  20.362  0.00  0.00    +0.000 OA
ATOM      3  N   UNL     1       0.953  10.182  18.385  0.00  0.00    +0.000 N 
ATOM      4  H   UNL     1       1.408  10.193  17.474  0.00  0.00    +0.000 HD
ENDROOT
BRANCH   1   8
ATOM      5  C   UNL     1       4.940   6.806  16.547  0.00  0.00    +0.000 C 
ATOM      6  C   UNL     1       3.774   7.111  17.417  0.00  0.00    +0.000 A 
ATOM      7  C   UNL     1       3.148   8.327  17.599  0.00  0.00    +0.000 A 
ATOM      8  C   UNL     1       2.125   8.100  18.540  0.00  0.00    +0.000 A 
ATOM      9  N   UNL     1       1.998   6.788  18.808  0.00  0.00    +0.000 NA
ATOM     10  N   UNL     1       3.031   6.189  18.141  0.00  0.00    +0.000 N 
BRANCH  10  11
ATOM     11  C   UNL     1       3.224   4.785  18.275  0.00  0.00    +0.000 A 
ATOM     12  C   UNL     1       2.416   3.911  17.530  0.00  0.00    +0.000 A 
ATOM     13  C   UNL     1       2.589   2.528  17.643  0.00  0.00    +0.000 A 
ATOM     14  C   UNL     1       3.541   2.023  18.524  0.00  0.00    +0.000 A 
ATOM     15  F   UNL     1       3.687   0.699  18.656  0.00  0.00    +0.000 F 
ATOM     16  C   UNL     1       4.331   2.877  19.285  0.00  0.00    +0.000 A 
ATOM     17  C   UNL     1       4.179   4.259  19.158  0.00  0.00    +0.000 A 
ENDBRANCH  10  11
ENDBRANCH   1   8
BRANCH   3  18
ATOM     18  CA  UNL     1       0.191  11.341  18.873  0.00  0.00    +0.000 C 
BRANCH  18  19
ATOM     19  C   UNL     1       0.971  12.668  18.739  0.00  0.00    +0.000 C 
ATOM     20  C   UNL     1       2.418  12.488  18.242  0.00  0.00    +0.000 C 
ATOM     21  C   UNL     1       3.093  13.842  18.026  0.00  0.00    +0.000 C 
ATOM     22  C   UNL     1       3.051  14.707  19.284  0.00  0.00    +0.000 C 
ATOM     23  C   UNL     1       1.640  14.832  19.853  0.00  0.00    +0.000 C 
ATOM     24  C   UNL     1       0.978  13.469  20.051  0.00  0.00    +0.000 C 
ENDBRANCH  18  19
BRANCH  18  25
ATOM     25  C   UNL     1      -1.183  11.483  18.175  0.00  0.00    +0.000 C 
ATOM     26  O   UNL     1      -2.126  10.731  18.355  0.00  0.00    +0.000 OA
BRANCH  25  27
ATOM     27  OXT UNL     1      -1.271  12.574  17.377  0.00  0.00    +0.000 OA
ATOM     28  HXT UNL     1      -0.915  13.356  17.843  0.00  0.00    +0.000 HD
ENDBRANCH  25  27
ENDBRANCH  18  25
ENDBRANCH   3  18
TORSDOF 6
ENDMDL
MODEL 6
REMARK VINA RESULT:      -7.2      5.793      9.509
REMARK  Name = 
REMARK  7 active torsions:
REMARK  status: ('A' for Active; 'I' for Inactive)
REMARK    1  A    between atoms: C_1  and  C_2
REMARK    2  A    between atoms: C_4  and  C_5
REMARK    3  A    between atoms: N_7  and  CA_8
REMARK    4  A    between atoms: CA_8  and  C_9
REMARK    5  A    between atoms: CA_8  and  C_12
REMARK    6  A    between atoms: C_9  and  OXT_11
REMARK    7  A    between atoms: N_19  and  C_20
REMARK                            x       y       z     vdW  Elec       q    Type
REMARK                         _______ _______ _______ _____ _____    ______ ____
ROOT
ATOM      1  C   UNL     1       1.625   9.594  18.424  0.00  0.00    +0.000 C 
ATOM      2  O   UNL     1       1.994  10.480  17.663  0.00  0.00    +0.000 OA
ATOM      3  N   UNL     1       0.571   9.749  19.306  0.00  0.00    +0.000 N 
ATOM      4  H   UNL     1       0.317   8.914  19.829  0.00  0.00    +0.000 HD
ENDROOT
BRANCH   1   8
ATOM      5  C   UNL     1       3.017   4.976  19.974  0.00  0.00    +0.000 C 
ATOM      6  C   UNL     1       2.862   6.248  19.221  0.00  0.00    +0.000 A 
ATOM      7  C   UNL     1       2.222   7.401  19.628  0.00  0.00    +0.000 A 
ATOM      8  C   UNL     1       2.322   8.302  18.550  0.00  0.00    +0.000 A 
ATOM      9  N   UNL     1       3.124   7.814  17.586  0.00  0.00    +0.000 NA
ATOM     10  N   UNL     1       3.427   6.542  17.988  0.00  0.00    +0.000 N 
BRANCH  10  11
ATOM     11  C   UNL     1       4.218   5.715  17.140  0.00  0.00    +0.000 A 
ATOM     12  C   UNL     1       5.114   6.318  16.242  0.00  0.00    +0.000 A 
ATOM     13  C   UNL     1       5.903   5.527  15.403  0.00  0.00    +0.000 A 
ATOM     14  C   UNL     1       5.771   4.142  15.437  0.00  0.00    +0.000 A 
ATOM     15  F   UNL     1       6.505   3.384  14.613  0.00  0.00    +0.000 F 
ATOM     16  C   UNL     1       4.872   3.534  16.306  0.00  0.00    +0.000 A 
ATOM     17  C   UNL     1       4.098   4.318  17.163  0.00  0.00    +0.000 A 
ENDBRANCH  10  11
ENDBRANCH   1   8
BRANCH   3  18
ATOM     18  CA  UNL     1      -0.291  10.940  19.300  0.00  0.00    +0.000 C 
BRANCH  18  19
ATOM     19  C   UNL     1      -1.696  10.658  18.725  0.00  0.00    +0.000 C 
ATOM     20  C   UNL     1      -1.676  10.089  17.294  0.00  0.00    +0.000 C 
ATOM     21  C   UNL     1      -3.087   9.730  16.830  0.00  0.00    +0.000 C 
ATOM     22  C   UNL     1      -4.040  10.919  16.932  0.00  0.00    +0.000 C 
ATOM     23  C   UNL     1      -4.017  11.562  18.316  0.00  0.00    +0.000 C 
ATOM     24  C   UNL     1      -2.597  11.903  18.767  0.00  0.00    +0.000 C 
ENDBRANCH  18  19
BRANCH  18  25
ATOM     25  C   UNL     1      -0.431  11.575  20.705  0.00  0.00    +0.000 C 
ATOM     26  O   UNL     1      -0.916  11.008  21.670  0.00  0.00    +0.000 OA
BRANCH  25  27
ATOM     27  OXT UNL     1       0.100  12.818  20.790  0.00  0.00    +0.000 OA
ATOM     28  HXT UNL     1      -0.311  13.401  20.121  0.00  0.00    +0.000 HD
ENDBRANCH  25  27
ENDBRANCH  18  25
ENDBRANCH   3  18
TORSDOF 6
ENDMDL
MODEL 7
REMARK VINA RESULT:      -7.1      4.904      7.491
REMARK  Name = 
REMARK  7 active torsions:
REMARK  status: ('A' for Active; 'I' for Inactive)
REMARK    1  A    between atoms: C_1  and  C_2
REMARK    2  A    between atoms: C_4  and  C_5
REMARK    3  A    between atoms: N_7  and  CA_8
REMARK    4  A    between atoms: CA_8  and  C_9
REMARK    5  A    between atoms: CA_8  and  C_12
REMARK    6  A    between atoms: C_9  and  OXT_11
REMARK    7  A    between atoms: N_19  and  C_20
REMARK                            x       y       z     vdW  Elec       q    Type
REMARK                         _______ _______ _______ _____ _____    ______ ____
ROOT
ATOM      1  C   UNL     1       2.616   5.950  18.719  0.00  0.00    +0.000 C 
ATOM      2  O   UNL     1       2.536   5.758  17.511  0.00  0.00    +0.000 OA
ATOM      3  N   UNL     1       3.240   5.068  19.581  0.00  0.00    +0.000 N 
ATOM      4  H   UNL     1       3.305   5.380  20.548  0.00  0.00    +0.000 HD
ENDROOT
BRANCH   1   8
ATOM      5  C   UNL     1       0.999   9.194  22.258  0.00  0.00    +0.000 C 
ATOM      6  C   UNL     1       1.336   8.526  20.974  0.00  0.00    +0.000 A 
ATOM      7  C   UNL     1       1.755   7.226  20.780  0.00  0.00    +0.000 A 
ATOM      8  C   UNL     1       1.975   7.092  19.394  0.00  0.00    +0.000 A 
ATOM      9  N   UNL     1       1.555   8.185  18.731  0.00  0.00    +0.000 NA
ATOM     10  N   UNL     1       1.194   9.073  19.707  0.00  0.00    +0.000 N 
BRANCH  10  11
ATOM     11  C   UNL     1       0.761  10.378  19.332  0.00  0.00    +0.000 A 
ATOM     12  C   UNL     1      -0.561  10.560  18.898  0.00  0.00    +0.000 A 
ATOM     13  C   UNL     1      -1.009  11.831  18.529  0.00  0.00    +0.000 A 
ATOM     14  C   UNL     1      -0.127  12.907  18.560  0.00  0.00    +0.000 A 
ATOM     15  F   UNL     1      -0.546  14.120  18.178  0.00  0.00    +0.000 F 
ATOM     16  C   UNL     1       1.191  12.737  18.966  0.00  0.00    +0.000 A 
ATOM     17  C   UNL     1       1.637  11.473  19.359  0.00  0.00    +0.000 A 
ENDBRANCH  10  11
ENDBRANCH   1   8
BRANCH   3  18
ATOM     18  CA  UNL     1       3.992   3.898  19.103  0.00  0.00    +0.000 C 
BRANCH  18  19
ATOM     19  C   UNL     1       5.444   4.242  18.705  0.00  0.00    +0.000 C 
ATOM     20  C   UNL     1       5.983   5.520  19.376  0.00  0.00    +0.000 C 
ATOM     21  C   UNL     1       7.455   5.739  19.027  0.00  0.00    +0.000 C 
ATOM     22  C   UNL     1       7.684   5.776  17.518  0.00  0.00    +0.000 C 
ATOM     23  C   UNL     1       7.082   4.563  16.812  0.00  0.00    +0.000 C 
ATOM     24  C   UNL     1       5.614   4.354  17.182  0.00  0.00    +0.000 C 
ENDBRANCH  18  19
BRANCH  18  25
ATOM     25  C   UNL     1       4.003   2.742  20.132  0.00  0.00    +0.000 C 
ATOM     26  O   UNL     1       3.141   2.565  20.976  0.00  0.00    +0.000 OA
BRANCH  25  27
ATOM     27  OXT UNL     1       5.042   1.888  19.971  0.00  0.00    +0.000 OA
ATOM     28  HXT UNL     1       4.877   1.305  19.203  0.00  0.00    +0.000 HD
ENDBRANCH  25  27
ENDBRANCH  18  25
ENDBRANCH   3  18
TORSDOF 6
ENDMDL
MODEL 8
REMARK VINA RESULT:      -7.1      5.259      8.907
REMARK  Name = 
REMARK  7 active torsions:
REMARK  status: ('A' for Active; 'I' for Inactive)
REMARK    1  A    between atoms: C_1  and  C_2
REMARK    2  A    between atoms: C_4  and  C_5
REMARK    3  A    between atoms: N_7  and  CA_8
REMARK    4  A    between atoms: CA_8  and  C_9
REMARK    5  A    between atoms: CA_8  and  C_12
REMARK    6  A    between atoms: C_9  and  OXT_11
REMARK    7  A    between atoms: N_19  and  C_20
REMARK                            x       y       z     vdW  Elec       q    Type
REMARK                         _______ _______ _______ _____ _____    ______ ____
ROOT
ATOM      1  C   UNL     1       1.961   9.563  18.098  0.00  0.00    +0.000 C 
ATOM      2  O   UNL     1       2.389  10.576  17.558  0.00  0.00    +0.000 OA
ATOM      3  N   UNL     1       0.944   9.581  19.033  0.00  0.00    +0.000 N 
ATOM      4  H   UNL     1       0.630   8.666  19.350  0.00  0.00    +0.000 HD
ENDROOT
BRANCH   1   8
ATOM      5  C   UNL     1       5.230   5.805  17.168  0.00  0.00    +0.000 C 
ATOM      6  C   UNL     1       4.028   6.602  17.529  0.00  0.00    +0.000 A 
ATOM      7  C   UNL     1       3.821   7.953  17.343  0.00  0.00    +0.000 A 
ATOM      8  C   UNL     1       2.548   8.228  17.881  0.00  0.00    +0.000 A 
ATOM      9  N   UNL     1       1.916   7.093  18.230  0.00  0.00    +0.000 NA
ATOM     10  N   UNL     1       2.840   6.102  18.042  0.00  0.00    +0.000 N 
BRANCH  10  11
ATOM     11  C   UNL     1       2.502   4.763  18.390  0.00  0.00    +0.000 A 
ATOM     12  C   UNL     1       2.105   4.479  19.706  0.00  0.00    +0.000 A 
ATOM     13  C   UNL     1       1.766   3.173  20.070  0.00  0.00    +0.000 A 
ATOM     14  C   UNL     1       1.858   2.150  19.131  0.00  0.00    +0.000 A 
ATOM     15  F   UNL     1       1.563   0.894  19.486  0.00  0.00    +0.000 F 
ATOM     16  C   UNL     1       2.271   2.414  17.830  0.00  0.00    +0.000 A 
ATOM     17  C   UNL     1       2.589   3.721  17.455  0.00  0.00    +0.000 A 
ENDBRANCH  10  11
ENDBRANCH   1   8
BRANCH   3  18
ATOM     18  CA  UNL     1       0.187  10.801  19.349  0.00  0.00    +0.000 C 
BRANCH  18  19
ATOM     19  C   UNL     1      -1.309  10.689  18.980  0.00  0.00    +0.000 C 
ATOM     20  C   UNL     1      -1.560  10.059  17.597  0.00  0.00    +0.000 C 
ATOM     21  C   UNL     1      -3.056   9.877  17.345  0.00  0.00    +0.000 C 
ATOM     22  C   UNL     1      -3.823  11.188  17.495  0.00  0.00    +0.000 C 
ATOM     23  C   UNL     1      -3.527  11.884  18.821  0.00  0.00    +0.000 C 
ATOM     24  C   UNL     1      -2.026  12.046  19.061  0.00  0.00    +0.000 C 
ENDBRANCH  18  19
BRANCH  18  25
ATOM     25  C   UNL     1       0.318  11.209  20.837  0.00  0.00    +0.000 C 
ATOM     26  O   UNL     1       0.948  12.176  21.232  0.00  0.00    +0.000 OA
BRANCH  25  27
ATOM     27  OXT UNL     1      -0.395  10.420  21.676  0.00  0.00    +0.000 OA
ATOM     28  HXT UNL     1      -0.082   9.496  21.609  0.00  0.00    +0.000 HD
ENDBRANCH  25  27
ENDBRANCH  18  25
ENDBRANCH   3  18
TORSDOF 6
ENDMDL
MODEL 9
REMARK VINA RESULT:      -7.1      5.411      9.100
REMARK  Name = 
REMARK  7 active torsions:
REMARK  status: ('A' for Active; 'I' for Inactive)
REMARK    1  A    between atoms: C_1  and  C_2
REMARK    2  A    between atoms: C_4  and  C_5
REMARK    3  A    between atoms: N_7  and  CA_8
REMARK    4  A    between atoms: CA_8  and  C_9
REMARK    5  A    between atoms: CA_8  and  C_12
REMARK    6  A    between atoms: C_9  and  OXT_11
REMARK    7  A    between atoms: N_19  and  C_20
REMARK                            x       y       z     vdW  Elec       q    Type
REMARK                         _______ _______ _______ _____ _____    ______ ____
ROOT
ATOM      1  C   UNL     1       1.429   8.894  19.424  0.00  0.00    +0.000 C 
ATOM      2  O   UNL     1       1.076   8.769  20.590  0.00  0.00    +0.000 OA
ATOM      3  N   UNL     1       1.036   9.953  18.628  0.00  0.00    +0.000 N 
ATOM      4  H   UNL     1       1.458   9.981  17.702  0.00  0.00    +0.000 HD
ENDROOT
BRANCH   1   8
ATOM      5  C   UNL     1       4.990   6.639  16.612  0.00  0.00    +0.000 C 
ATOM      6  C   UNL     1       3.850   6.922  17.524  0.00  0.00    +0.000 A 
ATOM      7  C   UNL     1       3.222   8.131  17.744  0.00  0.00    +0.000 A 
ATOM      8  C   UNL     1       2.231   7.882  18.715  0.00  0.00    +0.000 A 
ATOM      9  N   UNL     1       2.122   6.564  18.966  0.00  0.00    +0.000 NA
ATOM     10  N   UNL     1       3.138   5.984  18.257  0.00  0.00    +0.000 N 
BRANCH  10  11
ATOM     11  C   UNL     1       3.345   4.579  18.362  0.00  0.00    +0.000 A 
ATOM     12  C   UNL     1       2.611   3.716  17.532  0.00  0.00    +0.000 A 
ATOM     13  C   UNL     1       2.799   2.334  17.617  0.00  0.00    +0.000 A 
ATOM     14  C   UNL     1       3.691   1.816  18.551  0.00  0.00    +0.000 A 
ATOM     15  F   UNL     1       3.850   0.491  18.653  0.00  0.00    +0.000 F 
ATOM     16  C   UNL     1       4.407   2.657  19.394  0.00  0.00    +0.000 A 
ATOM     17  C   UNL     1       4.240   4.040  19.298  0.00  0.00    +0.000 A 
ENDBRANCH  10  11
ENDBRANCH   1   8
BRANCH   3  18
ATOM     18  CA  UNL     1       0.281  11.099  19.158  0.00  0.00    +0.000 C 
BRANCH  18  19
ATOM     19  C   UNL     1      -1.247  10.923  19.020  0.00  0.00    +0.000 C 
ATOM     20  C   UNL     1      -1.668  10.127  17.770  0.00  0.00    +0.000 C 
ATOM     21  C   UNL     1      -3.179   9.897  17.754  0.00  0.00    +0.000 C 
ATOM     22  C   UNL     1      -3.957  11.206  17.855  0.00  0.00    +0.000 C 
ATOM     23  C   UNL     1      -3.500  12.061  19.035  0.00  0.00    +0.000 C 
ATOM     24  C   UNL     1      -1.987  12.271  19.040  0.00  0.00    +0.000 C 
ENDBRANCH  18  19
BRANCH  18  25
ATOM     25  C   UNL     1       0.629  11.403  20.635  0.00  0.00    +0.000 C 
ATOM     26  O   UNL     1       1.594  12.057  20.994  0.00  0.00    +0.000 OA
BRANCH  25  27
ATOM     27  OXT UNL     1      -0.284  10.923  21.514  0.00  0.00    +0.000 OA
ATOM     28  HXT UNL     1      -0.865  11.649  21.819  0.00  0.00    +0.000 HD
ENDBRANCH  25  27
ENDBRANCH  18  25
ENDBRANCH   3  18
TORSDOF 6
ENDMDL
