MODEL 1
REMARK VINA RESULT:      -6.6      0.000      0.000
REMARK  Name = 
REMARK  16 active torsions:
REMARK  status: ('A' for Active; 'I' for Inactive)
REMARK    1  A    between atoms: C_1  and  C_2
REMARK    2  A    between atoms: C_2  and  O_3
REMARK    3  A    between atoms: O_3  and  C_4
REMARK    4  A    between atoms: C_4  and  O_5
REMARK    5  A    between atoms: C_4  and  C_8
REMARK    6  A    between atoms: O_5  and  C_6
REMARK    7  A    between atoms: C_6  and  C_7
REMARK    8  A    between atoms: C_11  and  C_12
REMARK    9  A    between atoms: C_18  and  C_19
REMARK   10  A    between atoms: C_22  and  C_23
REMARK   11  A    between atoms: C_23  and  O_24
REMARK   12  A    between atoms: C_23  and  O_27
REMARK   13  A    between atoms: O_24  and  C_25
REMARK   14  A    between atoms: C_25  and  C_26
REMARK   15  A    between atoms: O_27  and  C_28
REMARK   16  A    between atoms: C_28  and  C_29
REMARK                            x       y       z     vdW  Elec       q    Type
REMARK                         _______ _______ _______ _____ _____    ______ ____
ROOT
ATOM      1  C   UNL     1       1.647   9.830  19.134  0.00  0.00    +0.000 C 
ATOM      2  C   UNL     1       0.558  10.444  18.632  0.00  0.00    +0.000 C 
ATOM      3  C   UNL     1      -0.586   9.894  17.848  0.00  0.00    +0.000 C 
ATOM      4  O   UNL     1      -1.775  10.045  18.623  0.00  0.00    +0.000 OA
ATOM      5  C   UNL     1      -2.114  11.426  18.767  0.00  0.00    +0.000 C 
ATOM      6  C   UNL     1      -1.007  12.183  19.441  0.00  0.00    +0.000 C 
ATOM      7  C   UNL     1      -1.111  13.008  20.496  0.00  0.00    +0.000 C 
ATOM      8  C   UNL     1       0.374  11.882  18.979  0.00  0.00    +0.000 C 
ATOM      9  O   UNL     1       1.275  12.705  18.935  0.00  0.00    +0.000 OA
ENDROOT
BRANCH   1  13
ATOM     10  C   UNL     1       2.561   5.631  18.965  0.00  0.00    +0.000 A 
ATOM     11  C   UNL     1       2.709   6.444  17.832  0.00  0.00    +0.000 A 
ATOM     12  C   UNL     1       2.389   7.807  17.886  0.00  0.00    +0.000 A 
ATOM     13  C   UNL     1       1.920   8.383  19.072  0.00  0.00    +0.000 A 
ATOM     14  C   UNL     1       1.815   7.570  20.207  0.00  0.00    +0.000 A 
ATOM     15  C   UNL     1       2.055   6.205  20.140  0.00  0.00    +0.000 A 
BRANCH  10  16
ATOM     16  C   UNL     1       3.088   4.203  19.032  0.00  0.00    +0.000 C 
BRANCH  16  17
ATOM     17  O   UNL     1       3.042   3.568  17.756  0.00  0.00    +0.000 OA
BRANCH  17  19
ATOM     18  C   UNL     1       1.199   2.406  18.712  0.00  0.00    +0.000 C 
ATOM     19  C   UNL     1       2.411   2.293  17.809  0.00  0.00    +0.000 C 
ENDBRANCH  17  19
ENDBRANCH  16  17
BRANCH  16  20
ATOM     20  O   UNL     1       4.416   4.197  19.590  0.00  0.00    +0.000 OA
BRANCH  20  21
ATOM     21  C   UNL     1       5.449   4.261  18.602  0.00  0.00    +0.000 C 
ATOM     22  C   UNL     1       6.416   5.359  18.986  0.00  0.00    +0.000 C 
ENDBRANCH  20  21
ENDBRANCH  16  20
ENDBRANCH  10  16
ENDBRANCH   1  13
BRANCH   7  23
ATOM     23  C   UNL     1      -2.357  13.208  21.226  0.00  0.00    +0.000 A 
ATOM     24  C   UNL     1      -2.607  12.424  22.362  0.00  0.00    +0.000 A 
ATOM     25  C   UNL     1      -3.801  12.566  23.072  0.00  0.00    +0.000 A 
ATOM     26  C   UNL     1      -4.764  13.498  22.660  0.00  0.00    +0.000 A 
ATOM     27  C   UNL     1      -4.498  14.285  21.523  0.00  0.00    +0.000 A 
ATOM     28  C   UNL     1      -3.313  14.129  20.801  0.00  0.00    +0.000 A 
BRANCH  26  29
ATOM     29  C   UNL     1      -6.044  13.671  23.457  0.00  0.00    +0.000 C 
BRANCH  29  30
ATOM     30  O   UNL     1      -6.034  15.021  23.930  0.00  0.00    +0.000 OA
BRANCH  30  31
ATOM     31  C   UNL     1      -7.142  15.775  23.450  0.00  0.00    +0.000 C 
ATOM     32  C   UNL     1      -6.762  17.243  23.447  0.00  0.00    +0.000 C 
ENDBRANCH  30  31
ENDBRANCH  29  30
BRANCH  29  33
ATOM     33  O   UNL     1      -7.207  13.431  22.661  0.00  0.00    +0.000 OA
BRANCH  33  34
ATOM     34  C   UNL     1      -7.704  12.101  22.769  0.00  0.00    +0.000 C 
ATOM     35  C   UNL     1      -7.620  11.465  21.396  0.00  0.00    +0.000 C 
ENDBRANCH  33  34
ENDBRANCH  29  33
ENDBRANCH  26  29
ENDBRANCH   7  23
TORSDOF 12
ENDMDL
MODEL 2
REMARK VINA RESULT:      -6.5      0.712      1.381
REMARK  Name = 
REMARK  16 active torsions:
REMARK  status: ('A' for Active; 'I' for Inactive)
REMARK    1  A    between atoms: C_1  and  C_2
REMARK    2  A    between atoms: C_2  and  O_3
REMARK    3  A    between atoms: O_3  and  C_4
REMARK    4  A    between atoms: C_4  and  O_5
REMARK    5  A    between atoms: C_4  and  C_8
REMARK    6  A    between atoms: O_5  and  C_6
REMARK    7  A    between atoms: C_6  and  C_7
REMARK    8  A    between atoms: C_11  and  C_12
REMARK    9  A    between atoms: C_18  and  C_19
REMARK   10  A    between atoms: C_22  and  C_23
REMARK   11  A    between atoms: C_23  and  O_24
REMARK   12  A    between atoms: C_23  and  O_27
REMARK   13  A    between atoms: O_24  and  C_25
REMARK   14  A    between atoms: C_25  and  C_26
REMARK   15  A    between atoms: O_27  and  C_28
REMARK   16  A    between atoms: C_28  and  C_29
REMARK                            x       y       z     vdW  Elec       q    Type
REMARK                         _______ _______ _______ _____ _____    ______ ____
ROOT
ATOM      1  C   UNL     1       1.633  10.153  18.797  0.00  0.00    +0.000 C 
ATOM      2  C   UNL     1       0.428  10.613  18.407  0.00  0.00    +0.000 C 
ATOM      3  C   UNL     1      -0.725   9.895  17.791  0.00  0.00    +0.000 C 
ATOM      4  O   UNL     1      -1.825   9.952  18.698  0.00  0.00    +0.000 OA
ATOM      5  C   UNL     1      -2.308  11.290  18.827  0.00  0.00    +0.000 C 
ATOM      6  C   UNL     1      -1.228  12.203  19.331  0.00  0.00    +0.000 C 
ATOM      7  C   UNL     1      -1.306  13.067  20.357  0.00  0.00    +0.000 C 
ATOM      8  C   UNL     1       0.116  12.037  18.716  0.00  0.00    +0.000 C 
ATOM      9  O   UNL     1       0.902  12.953  18.531  0.00  0.00    +0.000 OA
ENDROOT
BRANCH   1  13
ATOM     10  C   UNL     1       2.786   6.013  18.664  0.00  0.00    +0.000 A 
ATOM     11  C   UNL     1       2.192   6.556  19.812  0.00  0.00    +0.000 A 
ATOM     12  C   UNL     1       1.838   7.911  19.859  0.00  0.00    +0.000 A 
ATOM     13  C   UNL     1       2.067   8.746  18.759  0.00  0.00    +0.000 A 
ATOM     14  C   UNL     1       2.624   8.183  17.605  0.00  0.00    +0.000 A 
ATOM     15  C   UNL     1       3.048   6.862  17.580  0.00  0.00    +0.000 A 
BRANCH  10  16
ATOM     16  C   UNL     1       2.996   4.516  18.472  0.00  0.00    +0.000 C 
BRANCH  16  17
ATOM     17  O   UNL     1       1.786   3.862  18.094  0.00  0.00    +0.000 OA
BRANCH  17  19
ATOM     18  C   UNL     1       1.038   2.965  20.167  0.00  0.00    +0.000 C 
ATOM     19  C   UNL     1       1.591   2.638  18.794  0.00  0.00    +0.000 C 
ENDBRANCH  17  19
ENDBRANCH  16  17
BRANCH  16  20
ATOM     20  O   UNL     1       4.053   4.287  17.520  0.00  0.00    +0.000 OA
BRANCH  20  21
ATOM     21  C   UNL     1       5.289   3.895  18.126  0.00  0.00    +0.000 C 
ATOM     22  C   UNL     1       6.341   4.926  17.784  0.00  0.00    +0.000 C 
ENDBRANCH  20  21
ENDBRANCH  16  20
ENDBRANCH  10  16
ENDBRANCH   1  13
BRANCH   7  23
ATOM     23  C   UNL     1      -2.474  13.163  21.225  0.00  0.00    +0.000 A 
ATOM     24  C   UNL     1      -3.554  13.958  20.818  0.00  0.00    +0.000 A 
ATOM     25  C   UNL     1      -4.679  14.097  21.634  0.00  0.00    +0.000 A 
ATOM     26  C   UNL     1      -4.742  13.441  22.871  0.00  0.00    +0.000 A 
ATOM     27  C   UNL     1      -3.654  12.640  23.265  0.00  0.00    +0.000 A 
ATOM     28  C   UNL     1      -2.521  12.516  22.459  0.00  0.00    +0.000 A 
BRANCH  26  29
ATOM     29  C   UNL     1      -5.982  13.570  23.738  0.00  0.00    +0.000 C 
BRANCH  29  30
ATOM     30  O   UNL     1      -6.736  14.654  23.188  0.00  0.00    +0.000 OA
BRANCH  30  31
ATOM     31  C   UNL     1      -6.723  15.805  24.025  0.00  0.00    +0.000 C 
ATOM     32  C   UNL     1      -6.995  17.028  23.170  0.00  0.00    +0.000 C 
ENDBRANCH  30  31
ENDBRANCH  29  30
BRANCH  29  33
ATOM     33  O   UNL     1      -6.761  12.372  23.738  0.00  0.00    +0.000 OA
BRANCH  33  34
ATOM     34  C   UNL     1      -7.914  12.443  22.906  0.00  0.00    +0.000 C 
ATOM     35  C   UNL     1      -7.716  11.473  21.758  0.00  0.00    +0.000 C 
ENDBRANCH  33  34
ENDBRANCH  29  33
ENDBRANCH  26  29
ENDBRANCH   7  23
TORSDOF 12
ENDMDL
MODEL 3
REMARK VINA RESULT:      -6.5      0.917      2.045
REMARK  Name = 
REMARK  16 active torsions:
REMARK  status: ('A' for Active; 'I' for Inactive)
REMARK    1  A    between atoms: C_1  and  C_2
REMARK    2  A    between atoms: C_2  and  O_3
REMARK    3  A    between atoms: O_3  and  C_4
REMARK    4  A    between atoms: C_4  and  O_5
REMARK    5  A    between atoms: C_4  and  C_8
REMARK    6  A    between atoms: O_5  and  C_6
REMARK    7  A    between atoms: C_6  and  C_7
REMARK    8  A    between atoms: C_11  and  C_12
REMARK    9  A    between atoms: C_18  and  C_19
REMARK   10  A    between atoms: C_22  and  C_23
REMARK   11  A    between atoms: C_23  and  O_24
REMARK   12  A    between atoms: C_23  and  O_27
REMARK   13  A    between atoms: O_24  and  C_25
REMARK   14  A    between atoms: C_25  and  C_26
REMARK   15  A    between atoms: O_27  and  C_28
REMARK   16  A    between atoms: C_28  and  C_29
REMARK                            x       y       z     vdW  Elec       q    Type
REMARK                         _______ _______ _______ _____ _____    ______ ____
ROOT
ATOM      1  C   UNL     1       1.749  10.077  18.829  0.00  0.00    +0.000 C 
ATOM      2  C   UNL     1       0.541  10.537  18.447  0.00  0.00    +0.000 C 
ATOM      3  C   UNL     1      -0.611   9.822  17.823  0.00  0.00    +0.000 C 
ATOM      4  O   UNL     1      -1.709   9.864  18.733  0.00  0.00    +0.000 OA
ATOM      5  C   UNL     1      -2.197  11.199  18.880  0.00  0.00    +0.000 C 
ATOM      6  C   UNL     1      -1.119  12.109  19.393  0.00  0.00    +0.000 C 
ATOM      7  C   UNL     1      -1.199  12.959  20.431  0.00  0.00    +0.000 C 
ATOM      8  C   UNL     1       0.224  11.955  18.774  0.00  0.00    +0.000 C 
ATOM      9  O   UNL     1       1.006  12.877  18.599  0.00  0.00    +0.000 OA
ENDROOT
BRANCH   1  13
ATOM     10  C   UNL     1       2.919   5.944  18.631  0.00  0.00    +0.000 A 
ATOM     11  C   UNL     1       2.230   6.442  19.746  0.00  0.00    +0.000 A 
ATOM     12  C   UNL     1       1.870   7.795  19.816  0.00  0.00    +0.000 A 
ATOM     13  C   UNL     1       2.188   8.672  18.773  0.00  0.00    +0.000 A 
ATOM     14  C   UNL     1       2.840   8.154  17.647  0.00  0.00    +0.000 A 
ATOM     15  C   UNL     1       3.268   6.835  17.606  0.00  0.00    +0.000 A 
BRANCH  10  16
ATOM     16  C   UNL     1       3.148   4.456  18.399  0.00  0.00    +0.000 C 
BRANCH  16  17
ATOM     17  O   UNL     1       4.443   4.051  18.840  0.00  0.00    +0.000 OA
BRANCH  17  19
ATOM     18  C   UNL     1       4.963   3.753  16.538  0.00  0.00    +0.000 C 
ATOM     19  C   UNL     1       5.449   4.300  17.865  0.00  0.00    +0.000 C 
ENDBRANCH  17  19
ENDBRANCH  16  17
BRANCH  16  20
ATOM     20  O   UNL     1       2.100   3.694  19.029  0.00  0.00    +0.000 OA
BRANCH  20  21
ATOM     21  C   UNL     1       2.551   2.923  20.147  0.00  0.00    +0.000 C 
ATOM     22  C   UNL     1       1.428   2.835  21.156  0.00  0.00    +0.000 C 
ENDBRANCH  20  21
ENDBRANCH  16  20
ENDBRANCH  10  16
ENDBRANCH   1  13
BRANCH   7  23
ATOM     23  C   UNL     1      -2.365  13.040  21.302  0.00  0.00    +0.000 A 
ATOM     24  C   UNL     1      -3.595  13.425  20.749  0.00  0.00    +0.000 A 
ATOM     25  C   UNL     1      -4.729  13.541  21.556  0.00  0.00    +0.000 A 
ATOM     26  C   UNL     1      -4.652  13.271  22.930  0.00  0.00    +0.000 A 
ATOM     27  C   UNL     1      -3.414  12.878  23.471  0.00  0.00    +0.000 A 
ATOM     28  C   UNL     1      -2.275  12.782  22.668  0.00  0.00    +0.000 A 
BRANCH  26  29
ATOM     29  C   UNL     1      -5.897  13.366  23.794  0.00  0.00    +0.000 C 
BRANCH  29  30
ATOM     30  O   UNL     1      -6.632  14.490  23.304  0.00  0.00    +0.000 OA
BRANCH  30  31
ATOM     31  C   UNL     1      -6.304  15.695  23.986  0.00  0.00    +0.000 C 
ATOM     32  C   UNL     1      -6.074  16.786  22.958  0.00  0.00    +0.000 C 
ENDBRANCH  30  31
ENDBRANCH  29  30
BRANCH  29  33
ATOM     33  O   UNL     1      -6.690  12.180  23.720  0.00  0.00    +0.000 OA
BRANCH  33  34
ATOM     34  C   UNL     1      -7.916  12.359  23.019  0.00  0.00    +0.000 C 
ATOM     35  C   UNL     1      -7.863  11.502  21.769  0.00  0.00    +0.000 C 
ENDBRANCH  33  34
ENDBRANCH  29  33
ENDBRANCH  26  29
ENDBRANCH   7  23
TORSDOF 12
ENDMDL
MODEL 4
REMARK VINA RESULT:      -6.4      0.954      1.314
REMARK  Name = 
REMARK  16 active torsions:
REMARK  status: ('A' for Active; 'I' for Inactive)
REMARK    1  A    between atoms: C_1  and  C_2
REMARK    2  A    between atoms: C_2  and  O_3
REMARK    3  A    between atoms: O_3  and  C_4
REMARK    4  A    between atoms: C_4  and  O_5
REMARK    5  A    between atoms: C_4  and  C_8
REMARK    6  A    between atoms: O_5  and  C_6
REMARK    7  A    between atoms: C_6  and  C_7
REMARK    8  A    between atoms: C_11  and  C_12
REMARK    9  A    between atoms: C_18  and  C_19
REMARK   10  A    between atoms: C_22  and  C_23
REMARK   11  A    between atoms: C_23  and  O_24
REMARK   12  A    between atoms: C_23  and  O_27
REMARK   13  A    between atoms: O_24  and  C_25
REMARK   14  A    between atoms: C_25  and  C_26
REMARK   15  A    between atoms: O_27  and  C_28
REMARK   16  A    between atoms: C_28  and  C_29
REMARK                            x       y       z     vdW  Elec       q    Type
REMARK                         _______ _______ _______ _____ _____    ______ ____
ROOT
ATOM      1  C   UNL     1       1.649   9.815  19.099  0.00  0.00    +0.000 C 
ATOM      2  C   UNL     1       0.532  10.399  18.623  0.00  0.00    +0.000 C 
ATOM      3  C   UNL     1      -0.624   9.814  17.884  0.00  0.00    +0.000 C 
ATOM      4  O   UNL     1      -1.791   9.953  18.693  0.00  0.00    +0.000 OA
ATOM      5  C   UNL     1      -2.154  11.328  18.827  0.00  0.00    +0.000 C 
ATOM      6  C   UNL     1      -1.042  12.118  19.455  0.00  0.00    +0.000 C 
ATOM      7  C   UNL     1      -1.131  12.957  20.501  0.00  0.00    +0.000 C 
ATOM      8  C   UNL     1       0.329  11.838  18.954  0.00  0.00    +0.000 C 
ATOM      9  O   UNL     1       1.212  12.679  18.869  0.00  0.00    +0.000 OA
ENDROOT
BRANCH   1  13
ATOM     10  C   UNL     1       2.408   5.585  18.943  0.00  0.00    +0.000 A 
ATOM     11  C   UNL     1       1.975   6.193  20.130  0.00  0.00    +0.000 A 
ATOM     12  C   UNL     1       1.749   7.575  20.182  0.00  0.00    +0.000 A 
ATOM     13  C   UNL     1       1.950   8.373  19.050  0.00  0.00    +0.000 A 
ATOM     14  C   UNL     1       2.343   7.749  17.860  0.00  0.00    +0.000 A 
ATOM     15  C   UNL     1       2.643   6.395  17.823  0.00  0.00    +0.000 A 
BRANCH  10  16
ATOM     16  C   UNL     1       2.465   4.073  18.762  0.00  0.00    +0.000 C 
BRANCH  16  17
ATOM     17  O   UNL     1       1.357   3.595  18.001  0.00  0.00    +0.000 OA
BRANCH  17  19
ATOM     18  C   UNL     1       0.987   2.771  20.201  0.00  0.00    +0.000 C 
ATOM     19  C   UNL     1       0.480   2.784  18.773  0.00  0.00    +0.000 C 
ENDBRANCH  17  19
ENDBRANCH  16  17
BRANCH  16  20
ATOM     20  O   UNL     1       3.725   3.696  18.176  0.00  0.00    +0.000 OA
BRANCH  20  21
ATOM     21  C   UNL     1       4.145   2.374  18.530  0.00  0.00    +0.000 C 
ATOM     22  C   UNL     1       4.444   2.345  20.012  0.00  0.00    +0.000 C 
ENDBRANCH  20  21
ENDBRANCH  16  20
ENDBRANCH  10  16
ENDBRANCH   1  13
BRANCH   7  23
ATOM     23  C   UNL     1      -2.357  13.143  21.267  0.00  0.00    +0.000 A 
ATOM     24  C   UNL     1      -2.538  12.398  22.442  0.00  0.00    +0.000 A 
ATOM     25  C   UNL     1      -3.711  12.528  23.188  0.00  0.00    +0.000 A 
ATOM     26  C   UNL     1      -4.722  13.407  22.773  0.00  0.00    +0.000 A 
ATOM     27  C   UNL     1      -4.525  14.154  21.597  0.00  0.00    +0.000 A 
ATOM     28  C   UNL     1      -3.361  14.010  20.839  0.00  0.00    +0.000 A 
BRANCH  26  29
ATOM     29  C   UNL     1      -5.979  13.567  23.609  0.00  0.00    +0.000 C 
BRANCH  29  30
ATOM     30  O   UNL     1      -6.684  14.679  23.050  0.00  0.00    +0.000 OA
BRANCH  30  31
ATOM     31  C   UNL     1      -6.718  15.799  23.928  0.00  0.00    +0.000 C 
ATOM     32  C   UNL     1      -6.383  17.046  23.133  0.00  0.00    +0.000 C 
ENDBRANCH  30  31
ENDBRANCH  29  30
BRANCH  29  33
ATOM     33  O   UNL     1      -6.794  12.394  23.580  0.00  0.00    +0.000 OA
BRANCH  33  34
ATOM     34  C   UNL     1      -7.909  12.498  22.700  0.00  0.00    +0.000 C 
ATOM     35  C   UNL     1      -7.688  11.524  21.559  0.00  0.00    +0.000 C 
ENDBRANCH  33  34
ENDBRANCH  29  33
ENDBRANCH  26  29
ENDBRANCH   7  23
TORSDOF 12
ENDMDL
MODEL 5
REMARK VINA RESULT:      -6.3      1.126      2.367
REMARK  Name = 
REMARK  16 active torsions:
REMARK  status: ('A' for Active; 'I' for Inactive)
REMARK    1  A    between atoms: C_1  and  C_2
REMARK    2  A    between atoms: C_2  and  O_3
REMARK    3  A    between atoms: O_3  and  C_4
REMARK    4  A    between atoms: C_4  and  O_5
REMARK    5  A    between atoms: C_4  and  C_8
REMARK    6  A    between atoms: O_5  and  C_6
REMARK    7  A    between atoms: C_6  and  C_7
REMARK    8  A    between atoms: C_11  and  C_12
REMARK    9  A    between atoms: C_18  and  C_19
REMARK   10  A    between atoms: C_22  and  C_23
REMARK   11  A    between atoms: C_23  and  O_24
REMARK   12  A    between atoms: C_23  and  O_27
REMARK   13  A    between atoms: O_24  and  C_25
REMARK   14  A    between atoms: C_25  and  C_26
REMARK   15  A    between atoms: O_27  and  C_28
REMARK   16  A    between atoms: C_28  and  C_29
REMARK                            x       y       z     vdW  Elec       q    Type
REMARK                         _______ _______ _______ _____ _____    ______ ____
ROOT
ATOM      1  C   UNL     1       1.562  10.372  18.807  0.00  0.00    +0.000 C 
ATOM      2  C   UNL     1       0.355  10.873  18.478  0.00  0.00    +0.000 C 
ATOM      3  C   UNL     1      -0.892  10.179  18.045  0.00  0.00    +0.000 C 
ATOM      4  O   UNL     1      -1.897  10.403  19.033  0.00  0.00    +0.000 OA
ATOM      5  C   UNL     1      -2.284  11.778  19.061  0.00  0.00    +0.000 C 
ATOM      6  C   UNL     1      -1.108  12.659  19.368  0.00  0.00    +0.000 C 
ATOM      7  C   UNL     1      -1.038  13.625  20.300  0.00  0.00    +0.000 C 
ATOM      8  C   UNL     1       0.159  12.339  18.660  0.00  0.00    +0.000 C 
ATOM      9  O   UNL     1       0.978  13.175  18.310  0.00  0.00    +0.000 OA
ENDROOT
BRANCH   1  13
ATOM     10  C   UNL     1       2.447   6.169  19.007  0.00  0.00    +0.000 A 
ATOM     11  C   UNL     1       1.917   6.844  20.116  0.00  0.00    +0.000 A 
ATOM     12  C   UNL     1       1.650   8.219  20.053  0.00  0.00    +0.000 A 
ATOM     13  C   UNL     1       1.905   8.942  18.882  0.00  0.00    +0.000 A 
ATOM     14  C   UNL     1       2.397   8.249  17.770  0.00  0.00    +0.000 A 
ATOM     15  C   UNL     1       2.736   6.906  17.850  0.00  0.00    +0.000 A 
BRANCH  10  16
ATOM     16  C   UNL     1       2.558   4.651  18.940  0.00  0.00    +0.000 C 
BRANCH  16  17
ATOM     17  O   UNL     1       3.786   4.242  18.339  0.00  0.00    +0.000 OA
BRANCH  17  19
ATOM     18  C   UNL     1       6.015   5.014  18.641  0.00  0.00    +0.000 C 
ATOM     19  C   UNL     1       4.868   4.244  19.264  0.00  0.00    +0.000 C 
ENDBRANCH  17  19
ENDBRANCH  16  17
BRANCH  16  20
ATOM     20  O   UNL     1       2.386   4.088  20.254  0.00  0.00    +0.000 OA
BRANCH  20  21
ATOM     21  C   UNL     1       1.168   3.351  20.402  0.00  0.00    +0.000 C 
ATOM     22  C   UNL     1       0.921   2.569  19.132  0.00  0.00    +0.000 C 
ENDBRANCH  20  21
ENDBRANCH  16  20
ENDBRANCH  10  16
ENDBRANCH   1  13
BRANCH   7  23
ATOM     23  C   UNL     1      -2.110  13.889  21.252  0.00  0.00    +0.000 A 
ATOM     24  C   UNL     1      -3.163  14.731  20.866  0.00  0.00    +0.000 A 
ATOM     25  C   UNL     1      -4.194  15.030  21.759  0.00  0.00    +0.000 A 
ATOM     26  C   UNL     1      -4.191  14.489  23.052  0.00  0.00    +0.000 A 
ATOM     27  C   UNL     1      -3.133  13.638  23.424  0.00  0.00    +0.000 A 
ATOM     28  C   UNL     1      -2.091  13.355  22.539  0.00  0.00    +0.000 A 
BRANCH  26  29
ATOM     29  C   UNL     1      -5.334  14.791  24.005  0.00  0.00    +0.000 C 
BRANCH  29  30
ATOM     30  O   UNL     1      -5.442  16.216  24.050  0.00  0.00    +0.000 OA
BRANCH  30  31
ATOM     31  C   UNL     1      -4.518  16.804  24.960  0.00  0.00    +0.000 C 
ATOM     32  C   UNL     1      -5.111  18.098  25.482  0.00  0.00    +0.000 C 
ENDBRANCH  30  31
ENDBRANCH  29  30
BRANCH  29  33
ATOM     33  O   UNL     1      -6.564  14.211  23.566  0.00  0.00    +0.000 OA
BRANCH  33  34
ATOM     34  C   UNL     1      -6.711  12.843  23.934  0.00  0.00    +0.000 C 
ATOM     35  C   UNL     1      -7.913  12.293  23.193  0.00  0.00    +0.000 C 
ENDBRANCH  33  34
ENDBRANCH  29  33
ENDBRANCH  26  29
ENDBRANCH   7  23
TORSDOF 12
ENDMDL
MODEL 6
REMARK VINA RESULT:      -6.3      1.255      2.739
REMARK  Name = 
REMARK  16 active torsions:
REMARK  status: ('A' for Active; 'I' for Inactive)
REMARK    1  A    between atoms: C_1  and  C_2
REMARK    2  A    between atoms: C_2  and  O_3
REMARK    3  A    between atoms: O_3  and  C_4
REMARK    4  A    between atoms: C_4  and  O_5
REMARK    5  A    between atoms: C_4  and  C_8
REMARK    6  A    between atoms: O_5  and  C_6
REMARK    7  A    between atoms: C_6  and  C_7
REMARK    8  A    between atoms: C_11  and  C_12
REMARK    9  A    between atoms: C_18  and  C_19
REMARK   10  A    between atoms: C_22  and  C_23
REMARK   11  A    between atoms: C_23  and  O_24
REMARK   12  A    between atoms: C_23  and  O_27
REMARK   13  A    between atoms: O_24  and  C_25
REMARK   14  A    between atoms: C_25  and  C_26
REMARK   15  A    between atoms: O_27  and  C_28
REMARK   16  A    between atoms: C_28  and  C_29
REMARK                            x       y       z     vdW  Elec       q    Type
REMARK                         _______ _______ _______ _____ _____    ______ ____
ROOT
ATOM      1  C   UNL     1       1.387  10.388  18.947  0.00  0.00    +0.000 C 
ATOM      2  C   UNL     1       0.240  10.883  18.443  0.00  0.00    +0.000 C 
ATOM      3  C   UNL     1      -0.925  10.183  17.828  0.00  0.00    +0.000 C 
ATOM      4  O   UNL     1      -2.066  10.398  18.656  0.00  0.00    +0.000 OA
ATOM      5  C   UNL     1      -2.462  11.771  18.630  0.00  0.00    +0.000 C 
ATOM      6  C   UNL     1      -1.350  12.658  19.111  0.00  0.00    +0.000 C 
ATOM      7  C   UNL     1      -1.425  13.620  20.045  0.00  0.00    +0.000 C 
ATOM      8  C   UNL     1       0.010  12.347  18.598  0.00  0.00    +0.000 C 
ATOM      9  O   UNL     1       0.867  13.189  18.376  0.00  0.00    +0.000 OA
ENDROOT
BRANCH   1  13
ATOM     10  C   UNL     1       2.486   6.247  19.319  0.00  0.00    +0.000 A 
ATOM     11  C   UNL     1       2.691   6.939  18.117  0.00  0.00    +0.000 A 
ATOM     12  C   UNL     1       2.312   8.282  17.993  0.00  0.00    +0.000 A 
ATOM     13  C   UNL     1       1.724   8.959  19.068  0.00  0.00    +0.000 A 
ATOM     14  C   UNL     1       1.562   8.269  20.276  0.00  0.00    +0.000 A 
ATOM     15  C   UNL     1       1.864   6.919  20.380  0.00  0.00    +0.000 A 
BRANCH  10  16
ATOM     16  C   UNL     1       3.066   4.863  19.585  0.00  0.00    +0.000 C 
BRANCH  16  17
ATOM     17  O   UNL     1       4.492   4.889  19.609  0.00  0.00    +0.000 OA
BRANCH  17  19
ATOM     18  C   UNL     1       4.002   3.341  17.871  0.00  0.00    +0.000 C 
ATOM     19  C   UNL     1       5.064   4.232  18.484  0.00  0.00    +0.000 C 
ENDBRANCH  17  19
ENDBRANCH  16  17
BRANCH  16  20
ATOM     20  O   UNL     1       2.515   4.327  20.803  0.00  0.00    +0.000 OA
BRANCH  20  21
ATOM     21  C   UNL     1       1.546   3.296  20.583  0.00  0.00    +0.000 C 
ATOM     22  C   UNL     1       1.462   2.441  21.828  0.00  0.00    +0.000 C 
ENDBRANCH  20  21
ENDBRANCH  16  20
ENDBRANCH  10  16
ENDBRANCH   1  13
BRANCH   7  23
ATOM     23  C   UNL     1      -2.629  13.875  20.827  0.00  0.00    +0.000 A 
ATOM     24  C   UNL     1      -3.260  15.121  20.708  0.00  0.00    +0.000 A 
ATOM     25  C   UNL     1      -4.399  15.413  21.461  0.00  0.00    +0.000 A 
ATOM     26  C   UNL     1      -4.927  14.461  22.345  0.00  0.00    +0.000 A 
ATOM     27  C   UNL     1      -4.289  13.211  22.450  0.00  0.00    +0.000 A 
ATOM     28  C   UNL     1      -3.138  12.926  21.712  0.00  0.00    +0.000 A 
BRANCH  26  29
ATOM     29  C   UNL     1      -6.186  14.773  23.135  0.00  0.00    +0.000 C 
BRANCH  29  30
ATOM     30  O   UNL     1      -6.342  13.701  24.068  0.00  0.00    +0.000 OA
BRANCH  30  31
ATOM     31  C   UNL     1      -7.691  13.259  24.168  0.00  0.00    +0.000 C 
ATOM     32  C   UNL     1      -7.916  12.156  23.152  0.00  0.00    +0.000 C 
ENDBRANCH  30  31
ENDBRANCH  29  30
BRANCH  29  33
ATOM     33  O   UNL     1      -6.090  16.022  23.823  0.00  0.00    +0.000 OA
BRANCH  33  34
ATOM     34  C   UNL     1      -4.891  16.164  24.578  0.00  0.00    +0.000 C 
ATOM     35  C   UNL     1      -4.896  17.549  25.195  0.00  0.00    +0.000 C 
ENDBRANCH  33  34
ENDBRANCH  29  33
ENDBRANCH  26  29
ENDBRANCH   7  23
TORSDOF 12
ENDMDL
MODEL 7
REMARK VINA RESULT:      -6.2      1.312      2.404
REMARK  Name = 
REMARK  16 active torsions:
REMARK  status: ('A' for Active; 'I' for Inactive)
REMARK    1  A    between atoms: C_1  and  C_2
REMARK    2  A    between atoms: C_2  and  O_3
REMARK    3  A    between atoms: O_3  and  C_4
REMARK    4  A    between atoms: C_4  and  O_5
REMARK    5  A    between atoms: C_4  and  C_8
REMARK    6  A    between atoms: O_5  and  C_6
REMARK    7  A    between atoms: C_6  and  C_7
REMARK    8  A    between atoms: C_11  and  C_12
REMARK    9  A    between atoms: C_18  and  C_19
REMARK   10  A    between atoms: C_22  and  C_23
REMARK   11  A    between atoms: C_23  and  O_24
REMARK   12  A    between atoms: C_23  and  O_27
REMARK   13  A    between atoms: O_24  and  C_25
REMARK   14  A    between atoms: C_25  and  C_26
REMARK   15  A    between atoms: O_27  and  C_28
REMARK   16  A    between atoms: C_28  and  C_29
REMARK                            x       y       z     vdW  Elec       q    Type
REMARK                         _______ _______ _______ _____ _____    ______ ____
ROOT
ATOM      1  C   UNL     1       1.455  10.302  18.927  0.00  0.00    +0.000 C 
ATOM      2  C   UNL     1       0.302  10.822  18.462  0.00  0.00    +0.000 C 
ATOM      3  C   UNL     1      -0.891  10.149  17.870  0.00  0.00    +0.000 C 
ATOM      4  O   UNL     1      -2.005  10.371  18.734  0.00  0.00    +0.000 OA
ATOM      5  C   UNL     1      -2.379  11.750  18.736  0.00  0.00    +0.000 C 
ATOM      6  C   UNL     1      -1.240  12.613  19.198  0.00  0.00    +0.000 C 
ATOM      7  C   UNL     1      -1.273  13.564  20.147  0.00  0.00    +0.000 C 
ATOM      8  C   UNL     1       0.100  12.287  18.643  0.00  0.00    +0.000 C 
ATOM      9  O   UNL     1       0.964  13.119  18.408  0.00  0.00    +0.000 OA
ENDROOT
BRANCH   1  13
ATOM     10  C   UNL     1       2.496   6.139  19.217  0.00  0.00    +0.000 A 
ATOM     11  C   UNL     1       2.708   6.852  18.027  0.00  0.00    +0.000 A 
ATOM     12  C   UNL     1       2.348   8.202  17.931  0.00  0.00    +0.000 A 
ATOM     13  C   UNL     1       1.772   8.866  19.020  0.00  0.00    +0.000 A 
ATOM     14  C   UNL     1       1.601   8.155  20.214  0.00  0.00    +0.000 A 
ATOM     15  C   UNL     1       1.884   6.799  20.292  0.00  0.00    +0.000 A 
BRANCH  10  16
ATOM     16  C   UNL     1       3.056   4.743  19.455  0.00  0.00    +0.000 C 
BRANCH  16  17
ATOM     17  O   UNL     1       2.044   3.843  19.904  0.00  0.00    +0.000 OA
BRANCH  17  19
ATOM     18  C   UNL     1       1.377   2.624  21.835  0.00  0.00    +0.000 C 
ATOM     19  C   UNL     1       2.523   2.941  20.896  0.00  0.00    +0.000 C 
ENDBRANCH  17  19
ENDBRANCH  16  17
BRANCH  16  20
ATOM     20  O   UNL     1       3.711   4.268  18.263  0.00  0.00    +0.000 OA
BRANCH  20  21
ATOM     21  C   UNL     1       5.137   4.213  18.381  0.00  0.00    +0.000 C 
ATOM     22  C   UNL     1       5.743   4.474  17.021  0.00  0.00    +0.000 C 
ENDBRANCH  20  21
ENDBRANCH  16  20
ENDBRANCH  10  16
ENDBRANCH   1  13
BRANCH   7  23
ATOM     23  C   UNL     1      -2.450  13.826  20.966  0.00  0.00    +0.000 A 
ATOM     24  C   UNL     1      -3.195  14.989  20.723  0.00  0.00    +0.000 A 
ATOM     25  C   UNL     1      -4.312  15.290  21.504  0.00  0.00    +0.000 A 
ATOM     26  C   UNL     1      -4.705  14.431  22.540  0.00  0.00    +0.000 A 
ATOM     27  C   UNL     1      -3.954  13.263  22.768  0.00  0.00    +0.000 A 
ATOM     28  C   UNL     1      -2.825  12.971  22.000  0.00  0.00    +0.000 A 
BRANCH  26  29
ATOM     29  C   UNL     1      -5.942  14.747  23.363  0.00  0.00    +0.000 C 
BRANCH  29  30
ATOM     30  O   UNL     1      -6.236  13.560  24.104  0.00  0.00    +0.000 OA
BRANCH  30  31
ATOM     31  C   UNL     1      -7.628  13.266  24.132  0.00  0.00    +0.000 C 
ATOM     32  C   UNL     1      -7.897  12.109  23.188  0.00  0.00    +0.000 C 
ENDBRANCH  30  31
ENDBRANCH  29  30
BRANCH  29  33
ATOM     33  O   UNL     1      -5.728  15.848  24.248  0.00  0.00    +0.000 OA
BRANCH  33  34
ATOM     34  C   UNL     1      -4.405  15.908  24.770  0.00  0.00    +0.000 C 
ATOM     35  C   UNL     1      -3.971  17.361  24.762  0.00  0.00    +0.000 C 
ENDBRANCH  33  34
ENDBRANCH  29  33
ENDBRANCH  26  29
ENDBRANCH   7  23
TORSDOF 12
ENDMDL
MODEL 8
REMARK VINA RESULT:      -6.0      1.501      2.493
REMARK  Name = 
REMARK  16 active torsions:
REMARK  status: ('A' for Active; 'I' for Inactive)
REMARK    1  A    between atoms: C_1  and  C_2
REMARK    2  A    between atoms: C_2  and  O_3
REMARK    3  A    between atoms: O_3  and  C_4
REMARK    4  A    between atoms: C_4  and  O_5
REMARK    5  A    between atoms: C_4  and  C_8
REMARK    6  A    between atoms: O_5  and  C_6
REMARK    7  A    between atoms: C_6  and  C_7
REMARK    8  A    between atoms: C_11  and  C_12
REMARK    9  A    between atoms: C_18  and  C_19
REMARK   10  A    between atoms: C_22  and  C_23
REMARK   11  A    between atoms: C_23  and  O_24
REMARK   12  A    between atoms: C_23  and  O_27
REMARK   13  A    between atoms: O_24  and  C_25
REMARK   14  A    between atoms: C_25  and  C_26
REMARK   15  A    between atoms: O_27  and  C_28
REMARK   16  A    between atoms: C_28  and  C_29
REMARK                            x       y       z     vdW  Elec       q    Type
REMARK                         _______ _______ _______ _____ _____    ______ ____
ROOT
ATOM      1  C   UNL     1       2.304   9.785  18.422  0.00  0.00    +0.000 C 
ATOM      2  C   UNL     1       1.101  10.351  18.202  0.00  0.00    +0.000 C 
ATOM      3  C   UNL     1      -0.210   9.728  17.857  0.00  0.00    +0.000 C 
ATOM      4  O   UNL     1      -1.120   9.975  18.928  0.00  0.00    +0.000 OA
ATOM      5  C   UNL     1      -1.434  11.365  19.018  0.00  0.00    +0.000 C 
ATOM      6  C   UNL     1      -0.195  12.181  19.248  0.00  0.00    +0.000 C 
ATOM      7  C   UNL     1      -0.003  13.118  20.192  0.00  0.00    +0.000 C 
ATOM      8  C   UNL     1       0.993  11.819  18.432  0.00  0.00    +0.000 C 
ATOM      9  O   UNL     1       1.822  12.624  18.035  0.00  0.00    +0.000 OA
ENDROOT
BRANCH   1  13
ATOM     10  C   UNL     1       3.223   5.585  18.505  0.00  0.00    +0.000 A 
ATOM     11  C   UNL     1       3.636   6.389  17.433  0.00  0.00    +0.000 A 
ATOM     12  C   UNL     1       3.316   7.752  17.400  0.00  0.00    +0.000 A 
ATOM     13  C   UNL     1       2.580   8.338  18.437  0.00  0.00    +0.000 A 
ATOM     14  C   UNL     1       2.208   7.534  19.521  0.00  0.00    +0.000 A 
ATOM     15  C   UNL     1       2.454   6.168  19.522  0.00  0.00    +0.000 A 
BRANCH  10  16
ATOM     16  C   UNL     1       3.716   4.157  18.706  0.00  0.00    +0.000 C 
BRANCH  16  17
ATOM     17  O   UNL     1       2.766   3.204  18.235  0.00  0.00    +0.000 OA
BRANCH  17  19
ATOM     18  C   UNL     1       0.635   2.317  18.812  0.00  0.00    +0.000 C 
ATOM     19  C   UNL     1       2.045   2.588  19.297  0.00  0.00    +0.000 C 
ENDBRANCH  17  19
ENDBRANCH  16  17
BRANCH  16  20
ATOM     20  O   UNL     1       5.003   3.991  18.081  0.00  0.00    +0.000 OA
BRANCH  20  21
ATOM     21  C   UNL     1       6.087   4.502  18.865  0.00  0.00    +0.000 C 
ATOM     22  C   UNL     1       7.225   4.861  17.936  0.00  0.00    +0.000 C 
ENDBRANCH  20  21
ENDBRANCH  16  20
ENDBRANCH  10  16
ENDBRANCH   1  13
BRANCH   7  23
ATOM     23  C   UNL     1      -0.981  13.408  21.233  0.00  0.00    +0.000 A 
ATOM     24  C   UNL     1      -1.922  14.424  21.011  0.00  0.00    +0.000 A 
ATOM     25  C   UNL     1      -2.857  14.750  21.995  0.00  0.00    +0.000 A 
ATOM     26  C   UNL     1      -2.869  14.063  23.217  0.00  0.00    +0.000 A 
ATOM     27  C   UNL     1      -1.925  13.041  23.425  0.00  0.00    +0.000 A 
ATOM     28  C   UNL     1      -0.976  12.728  22.449  0.00  0.00    +0.000 A 
BRANCH  26  29
ATOM     29  C   UNL     1      -3.912  14.400  24.268  0.00  0.00    +0.000 C 
BRANCH  29  30
ATOM     30  O   UNL     1      -4.515  13.157  24.637  0.00  0.00    +0.000 OA
BRANCH  30  31
ATOM     31  C   UNL     1      -5.714  12.898  23.914  0.00  0.00    +0.000 C 
ATOM     32  C   UNL     1      -6.468  14.203  23.746  0.00  0.00    +0.000 C 
ENDBRANCH  30  31
ENDBRANCH  29  30
BRANCH  29  33
ATOM     33  O   UNL     1      -3.333  15.032  25.412  0.00  0.00    +0.000 OA
BRANCH  33  34
ATOM     34  C   UNL     1      -3.168  16.438  25.262  0.00  0.00    +0.000 C 
ATOM     35  C   UNL     1      -4.533  17.035  24.981  0.00  0.00    +0.000 C 
ENDBRANCH  33  34
ENDBRANCH  29  33
ENDBRANCH  26  29
ENDBRANCH   7  23
TORSDOF 12
ENDMDL
MODEL 9
REMARK VINA RESULT:      -6.0      1.294      1.481
REMARK  Name = 
REMARK  16 active torsions:
REMARK  status: ('A' for Active; 'I' for Inactive)
REMARK    1  A    between atoms: C_1  and  C_2
REMARK    2  A    between atoms: C_2  and  O_3
REMARK    3  A    between atoms: O_3  and  C_4
REMARK    4  A    between atoms: C_4  and  O_5
REMARK    5  A    between atoms: C_4  and  C_8
REMARK    6  A    between atoms: O_5  and  C_6
REMARK    7  A    between atoms: C_6  and  C_7
REMARK    8  A    between atoms: C_11  and  C_12
REMARK    9  A    between atoms: C_18  and  C_19
REMARK   10  A    between atoms: C_22  and  C_23
REMARK   11  A    between atoms: C_23  and  O_24
REMARK   12  A    between atoms: C_23  and  O_27
REMARK   13  A    between atoms: O_24  and  C_25
REMARK   14  A    between atoms: C_25  and  C_26
REMARK   15  A    between atoms: O_27  and  C_28
REMARK   16  A    between atoms: C_28  and  C_29
REMARK                            x       y       z     vdW  Elec       q    Type
REMARK                         _______ _______ _______ _____ _____    ______ ____
ROOT
ATOM      1  C   UNL     1       1.562   9.575  20.436  0.00  0.00    +0.000 C 
ATOM      2  C   UNL     1       0.742  10.494  19.887  0.00  0.00    +0.000 C 
ATOM      3  C   UNL     1      -0.118  10.416  18.671  0.00  0.00    +0.000 C 
ATOM      4  O   UNL     1      -1.481  10.529  19.077  0.00  0.00    +0.000 OA
ATOM      5  C   UNL     1      -1.753  11.838  19.583  0.00  0.00    +0.000 C 
ATOM      6  C   UNL     1      -0.877  12.149  20.762  0.00  0.00    +0.000 C 
ATOM      7  C   UNL     1      -1.263  12.619  21.960  0.00  0.00    +0.000 C 
ATOM      8  C   UNL     1       0.555  11.767  20.638  0.00  0.00    +0.000 C 
ATOM      9  O   UNL     1       1.476  12.394  21.139  0.00  0.00    +0.000 OA
ENDROOT
BRANCH   1  13
ATOM     10  C   UNL     1       2.197   5.547  19.072  0.00  0.00    +0.000 A 
ATOM     11  C   UNL     1       2.455   6.639  18.231  0.00  0.00    +0.000 A 
ATOM     12  C   UNL     1       2.226   7.949  18.672  0.00  0.00    +0.000 A 
ATOM     13  C   UNL     1       1.739   8.192  19.961  0.00  0.00    +0.000 A 
ATOM     14  C   UNL     1       1.523   7.096  20.805  0.00  0.00    +0.000 A 
ATOM     15  C   UNL     1       1.673   5.795  20.349  0.00  0.00    +0.000 A 
BRANCH  10  16
ATOM     16  C   UNL     1       2.623   4.124  18.733  0.00  0.00    +0.000 C 
BRANCH  16  17
ATOM     17  O   UNL     1       1.671   3.168  19.198  0.00  0.00    +0.000 OA
BRANCH  17  19
ATOM     18  C   UNL     1       3.626   2.508  20.384  0.00  0.00    +0.000 C 
ATOM     19  C   UNL     1       2.110   2.496  20.374  0.00  0.00    +0.000 C 
ENDBRANCH  17  19
ENDBRANCH  16  17
BRANCH  16  20
ATOM     20  O   UNL     1       2.857   4.007  17.317  0.00  0.00    +0.000 OA
BRANCH  20  21
ATOM     21  C   UNL     1       4.175   3.550  16.995  0.00  0.00    +0.000 C 
ATOM     22  C   UNL     1       4.948   4.699  16.386  0.00  0.00    +0.000 C 
ENDBRANCH  20  21
ENDBRANCH  16  20
ENDBRANCH  10  16
ENDBRANCH   1  13
BRANCH   7  23
ATOM     23  C   UNL     1      -2.662  12.802  22.327  0.00  0.00    +0.000 A 
ATOM     24  C   UNL     1      -3.111  12.285  23.551  0.00  0.00    +0.000 A 
ATOM     25  C   UNL     1      -4.450  12.415  23.926  0.00  0.00    +0.000 A 
ATOM     26  C   UNL     1      -5.361  13.067  23.084  0.00  0.00    +0.000 A 
ATOM     27  C   UNL     1      -4.896  13.588  21.862  0.00  0.00    +0.000 A 
ATOM     28  C   UNL     1      -3.562  13.441  21.477  0.00  0.00    +0.000 A 
BRANCH  26  29
ATOM     29  C   UNL     1      -6.808  13.235  23.514  0.00  0.00    +0.000 C 
BRANCH  29  30
ATOM     30  O   UNL     1      -7.202  14.536  23.069  0.00  0.00    +0.000 OA
BRANCH  30  31
ATOM     31  C   UNL     1      -6.774  15.566  23.953  0.00  0.00    +0.000 C 
ATOM     32  C   UNL     1      -6.960  16.904  23.262  0.00  0.00    +0.000 C 
ENDBRANCH  30  31
ENDBRANCH  29  30
BRANCH  29  33
ATOM     33  O   UNL     1      -7.655  12.235  22.944  0.00  0.00    +0.000 OA
BRANCH  33  34
ATOM     34  C   UNL     1      -7.769  12.327  21.527  0.00  0.00    +0.000 C 
ATOM     35  C   UNL     1      -7.916  10.919  20.984  0.00  0.00    +0.000 C 
ENDBRANCH  33  34
ENDBRANCH  29  33
ENDBRANCH  26  29
ENDBRANCH   7  23
TORSDOF 12
ENDMDL
