MODEL 1
REMARK VINA RESULT:      -7.4      0.000      0.000
REMARK  Name = 
REMARK  5 active torsions:
REMARK  status: ('A' for Active; 'I' for Inactive)
REMARK    1  A    between atoms: C_1  and  N_2
REMARK    2  A    between atoms: C_6  and  C_7
REMARK    3  A    between atoms: N_9  and  C_10
REMARK    4  A    between atoms: C_12  and  C_13
REMARK    5  A    between atoms: C_20  and  C_21
REMARK                            x       y       z     vdW  Elec       q    Type
REMARK                         _______ _______ _______ _____ _____    ______ ____
ROOT
ATOM      1  C   UNL     1       5.494   4.390  17.886  0.00  0.00    +0.000 A 
ATOM      2  S   UNL     1       5.110   3.890  16.305  0.00  0.00    +0.000 S 
ATOM      3  C   UNL     1       6.550   4.621  15.710  0.00  0.00    +0.000 A 
ATOM      4  N   UNL     1       7.289   5.216  16.628  0.00  0.00    +0.000 NA
ATOM      5  C   UNL     1       6.683   5.097  17.891  0.00  0.00    +0.000 A 
ENDROOT
BRANCH   3   6
ATOM      6  C   UNL     1       6.852   4.615  14.268  0.00  0.00    +0.000 A 
ATOM      7  C   UNL     1       6.215   3.689  13.436  0.00  0.00    +0.000 A 
ATOM      8  C   UNL     1       6.529   3.674  12.086  0.00  0.00    +0.000 A 
ATOM      9  N   UNL     1       7.417   4.513  11.514  0.00  0.00    +0.000 NA
ATOM     10  C   UNL     1       8.015   5.409  12.326  0.00  0.00    +0.000 A 
ATOM     11  C   UNL     1       7.768   5.500  13.686  0.00  0.00    +0.000 A 
ENDBRANCH   3   6
BRANCH   5  12
ATOM     12  C   UNL     1       7.333   5.624  19.086  0.00  0.00    +0.000 C 
ATOM     13  N   UNL     1       8.131   6.717  18.852  0.00  0.00    +0.000 N 
ATOM     14  O   UNL     1       7.215   5.131  20.203  0.00  0.00    +0.000 OA
ATOM     15  H   UNL     1       8.276   7.031  17.903  0.00  0.00    +0.000 HD
ATOM     16  H   UNL     1       8.723   7.056  19.597  0.00  0.00    +0.000 HD
ENDBRANCH   5  12
BRANCH   1  19
ATOM     17  C   UNL     1       3.957   2.906  19.031  0.00  0.00    +0.000 C 
ATOM     18  O   UNL     1       4.276   1.917  18.374  0.00  0.00    +0.000 OA
ATOM     19  N   UNL     1       4.576   4.145  18.897  0.00  0.00    +0.000 N 
ATOM     20  H   UNL     1       4.671   4.693  19.746  0.00  0.00    +0.000 HD
BRANCH  17  26
ATOM     21  C   UNL     1       0.917   3.290  18.570  0.00  0.00    +0.000 C 
ATOM     22  N   UNL     1       1.566   3.048  19.844  0.00  0.00    +0.000 N 
ATOM     23  C   UNL     1       0.884   2.987  21.034  0.00  0.00    +0.000 A 
ATOM     24  C   UNL     1       1.786   2.742  22.033  0.00  0.00    +0.000 A 
ATOM     25  C   UNL     1       3.062   2.657  21.432  0.00  0.00    +0.000 A 
ATOM     26  C   UNL     1       2.924   2.852  20.061  0.00  0.00    +0.000 A 
ENDBRANCH  17  26
ENDBRANCH   1  19
TORSDOF 4
ENDMDL
MODEL 2
REMARK VINA RESULT:      -7.4      4.386      8.373
REMARK  Name = 
REMARK  5 active torsions:
REMARK  status: ('A' for Active; 'I' for Inactive)
REMARK    1  A    between atoms: C_1  and  N_2
REMARK    2  A    between atoms: C_6  and  C_7
REMARK    3  A    between atoms: N_9  and  C_10
REMARK    4  A    between atoms: C_12  and  C_13
REMARK    5  A    between atoms: C_20  and  C_21
REMARK                            x       y       z     vdW  Elec       q    Type
REMARK                         _______ _______ _______ _____ _____    ______ ____
ROOT
ATOM      1  C   UNL     1       2.655   6.186  19.241  0.00  0.00    +0.000 A 
ATOM      2  S   UNL     1       2.448   7.873  19.321  0.00  0.00    +0.000 S 
ATOM      3  C   UNL     1       1.406   7.694  20.680  0.00  0.00    +0.000 A 
ATOM      4  N   UNL     1       1.208   6.447  21.065  0.00  0.00    +0.000 NA
ATOM      5  C   UNL     1       1.918   5.564  20.233  0.00  0.00    +0.000 A 
ENDROOT
BRANCH   3   6
ATOM      6  C   UNL     1       0.757   8.869  21.286  0.00  0.00    +0.000 A 
ATOM      7  C   UNL     1       0.849  10.111  20.649  0.00  0.00    +0.000 A 
ATOM      8  C   UNL     1       0.259  11.214  21.243  0.00  0.00    +0.000 A 
ATOM      9  N   UNL     1      -0.416  11.166  22.410  0.00  0.00    +0.000 NA
ATOM     10  C   UNL     1      -0.508   9.961  23.007  0.00  0.00    +0.000 A 
ATOM     11  C   UNL     1       0.049   8.801  22.492  0.00  0.00    +0.000 A 
ENDBRANCH   3   6
BRANCH   5  12
ATOM     12  C   UNL     1       1.909   4.127  20.486  0.00  0.00    +0.000 C 
ATOM     13  N   UNL     1       0.654   3.571  20.507  0.00  0.00    +0.000 N 
ATOM     14  O   UNL     1       2.919   3.463  20.695  0.00  0.00    +0.000 OA
ATOM     15  H   UNL     1      -0.155   4.170  20.426  0.00  0.00    +0.000 HD
ATOM     16  H   UNL     1       0.550   2.612  20.811  0.00  0.00    +0.000 HD
ENDBRANCH   5  12
BRANCH   1  19
ATOM     17  C   UNL     1       4.741   5.341  18.343  0.00  0.00    +0.000 C 
ATOM     18  O   UNL     1       5.323   5.359  19.426  0.00  0.00    +0.000 OA
ATOM     19  N   UNL     1       3.395   5.661  18.192  0.00  0.00    +0.000 N 
ATOM     20  H   UNL     1       2.886   5.138  17.487  0.00  0.00    +0.000 HD
BRANCH  17  26
ATOM     21  C   UNL     1       7.276   6.640  17.123  0.00  0.00    +0.000 C 
ATOM     22  N   UNL     1       6.531   5.529  16.564  0.00  0.00    +0.000 N 
ATOM     23  C   UNL     1       6.861   4.925  15.377  0.00  0.00    +0.000 A 
ATOM     24  C   UNL     1       5.965   3.917  15.145  0.00  0.00    +0.000 A 
ATOM     25  C   UNL     1       5.054   3.910  16.225  0.00  0.00    +0.000 A 
ATOM     26  C   UNL     1       5.407   4.923  17.112  0.00  0.00    +0.000 A 
ENDBRANCH  17  26
ENDBRANCH   1  19
TORSDOF 4
ENDMDL
MODEL 3
REMARK VINA RESULT:      -7.1      4.361      5.705
REMARK  Name = 
REMARK  5 active torsions:
REMARK  status: ('A' for Active; 'I' for Inactive)
REMARK    1  A    between atoms: C_1  and  N_2
REMARK    2  A    between atoms: C_6  and  C_7
REMARK    3  A    between atoms: N_9  and  C_10
REMARK    4  A    between atoms: C_12  and  C_13
REMARK    5  A    between atoms: C_20  and  C_21
REMARK                            x       y       z     vdW  Elec       q    Type
REMARK                         _______ _______ _______ _____ _____    ______ ____
ROOT
ATOM      1  C   UNL     1       2.421   5.894  20.041  0.00  0.00    +0.000 A 
ATOM      2  S   UNL     1       3.492   6.509  18.870  0.00  0.00    +0.000 S 
ATOM      3  C   UNL     1       4.131   4.932  18.607  0.00  0.00    +0.000 A 
ATOM      4  N   UNL     1       3.589   3.985  19.349  0.00  0.00    +0.000 NA
ATOM      5  C   UNL     1       2.604   4.531  20.191  0.00  0.00    +0.000 A 
ENDROOT
BRANCH   3   6
ATOM      6  C   UNL     1       5.245   4.723  17.665  0.00  0.00    +0.000 A 
ATOM      7  C   UNL     1       4.968   4.390  16.336  0.00  0.00    +0.000 A 
ATOM      8  C   UNL     1       6.024   4.168  15.467  0.00  0.00    +0.000 A 
ATOM      9  N   UNL     1       7.321   4.262  15.825  0.00  0.00    +0.000 NA
ATOM     10  C   UNL     1       7.574   4.597  17.106  0.00  0.00    +0.000 A 
ATOM     11  C   UNL     1       6.586   4.838  18.048  0.00  0.00    +0.000 A 
ENDBRANCH   3   6
BRANCH   5  12
ATOM     12  C   UNL     1       1.815   3.677  21.072  0.00  0.00    +0.000 C 
ATOM     13  N   UNL     1       0.614   3.281  20.538  0.00  0.00    +0.000 N 
ATOM     14  O   UNL     1       2.163   3.354  22.203  0.00  0.00    +0.000 OA
ATOM     15  H   UNL     1       0.325   3.648  19.643  0.00  0.00    +0.000 HD
ATOM     16  H   UNL     1      -0.051   2.805  21.133  0.00  0.00    +0.000 HD
ENDBRANCH   5  12
BRANCH   1  19
ATOM     17  C   UNL     1       1.437   8.094  20.299  0.00  0.00    +0.000 C 
ATOM     18  O   UNL     1       1.831   8.501  19.208  0.00  0.00    +0.000 OA
ATOM     19  N   UNL     1       1.625   6.788  20.741  0.00  0.00    +0.000 N 
ATOM     20  H   UNL     1       0.878   6.394  21.305  0.00  0.00    +0.000 HD
BRANCH  17  26
ATOM     21  C   UNL     1      -0.703  10.182  19.485  0.00  0.00    +0.000 C 
ATOM     22  N   UNL     1      -0.261   9.891  20.835  0.00  0.00    +0.000 N 
ATOM     23  C   UNL     1      -0.740  10.549  21.940  0.00  0.00    +0.000 A 
ATOM     24  C   UNL     1      -0.125  10.031  23.048  0.00  0.00    +0.000 A 
ATOM     25  C   UNL     1       0.763   9.028  22.602  0.00  0.00    +0.000 A 
ATOM     26  C   UNL     1       0.680   8.942  21.215  0.00  0.00    +0.000 A 
ENDBRANCH  17  26
ENDBRANCH   1  19
TORSDOF 4
ENDMDL
MODEL 4
REMARK VINA RESULT:      -7.0      4.769      8.503
REMARK  Name = 
REMARK  5 active torsions:
REMARK  status: ('A' for Active; 'I' for Inactive)
REMARK    1  A    between atoms: C_1  and  N_2
REMARK    2  A    between atoms: C_6  and  C_7
REMARK    3  A    between atoms: N_9  and  C_10
REMARK    4  A    between atoms: C_12  and  C_13
REMARK    5  A    between atoms: C_20  and  C_21
REMARK                            x       y       z     vdW  Elec       q    Type
REMARK                         _______ _______ _______ _____ _____    ______ ____
ROOT
ATOM      1  C   UNL     1       2.292   6.582  19.402  0.00  0.00    +0.000 A 
ATOM      2  S   UNL     1       2.063   8.268  19.453  0.00  0.00    +0.000 S 
ATOM      3  C   UNL     1       1.137   8.113  20.897  0.00  0.00    +0.000 A 
ATOM      4  N   UNL     1       0.993   6.874  21.331  0.00  0.00    +0.000 NA
ATOM      5  C   UNL     1       1.648   5.978  20.468  0.00  0.00    +0.000 A 
ENDROOT
BRANCH   3   6
ATOM      6  C   UNL     1       0.519   9.295  21.521  0.00  0.00    +0.000 A 
ATOM      7  C   UNL     1       0.722  10.557  20.954  0.00  0.00    +0.000 A 
ATOM      8  C   UNL     1       0.160  11.665  21.567  0.00  0.00    +0.000 A 
ATOM      9  N   UNL     1      -0.589  11.602  22.687  0.00  0.00    +0.000 NA
ATOM     10  C   UNL     1      -0.788  10.378  23.215  0.00  0.00    +0.000 A 
ATOM     11  C   UNL     1      -0.266   9.213  22.676  0.00  0.00    +0.000 A 
ENDBRANCH   3   6
BRANCH   5  12
ATOM     12  C   UNL     1       1.684   4.549  20.761  0.00  0.00    +0.000 C 
ATOM     13  N   UNL     1       0.619   3.847  20.254  0.00  0.00    +0.000 N 
ATOM     14  O   UNL     1       2.564   4.009  21.424  0.00  0.00    +0.000 OA
ATOM     15  H   UNL     1      -0.131   4.346  19.797  0.00  0.00    +0.000 HD
ATOM     16  H   UNL     1       0.496   2.882  20.527  0.00  0.00    +0.000 HD
ENDBRANCH   5  12
BRANCH   1  19
ATOM     17  C   UNL     1       4.298   5.685  18.381  0.00  0.00    +0.000 C 
ATOM     18  O   UNL     1       4.945   5.690  19.426  0.00  0.00    +0.000 OA
ATOM     19  N   UNL     1       2.953   6.039  18.312  0.00  0.00    +0.000 N 
ATOM     20  H   UNL     1       2.390   5.528  17.640  0.00  0.00    +0.000 HD
BRANCH  17  26
ATOM     21  C   UNL     1       4.135   2.825  17.201  0.00  0.00    +0.000 C 
ATOM     22  N   UNL     1       4.815   3.958  16.606  0.00  0.00    +0.000 N 
ATOM     23  C   UNL     1       5.509   3.881  15.424  0.00  0.00    +0.000 A 
ATOM     24  C   UNL     1       6.020   5.120  15.146  0.00  0.00    +0.000 A 
ATOM     25  C   UNL     1       5.628   5.980  16.196  0.00  0.00    +0.000 A 
ATOM     26  C   UNL     1       4.876   5.251  17.113  0.00  0.00    +0.000 A 
ENDBRANCH  17  26
ENDBRANCH   1  19
TORSDOF 4
ENDMDL
MODEL 5
REMARK VINA RESULT:      -7.0      4.568      5.886
REMARK  Name = 
REMARK  5 active torsions:
REMARK  status: ('A' for Active; 'I' for Inactive)
REMARK    1  A    between atoms: C_1  and  N_2
REMARK    2  A    between atoms: C_6  and  C_7
REMARK    3  A    between atoms: N_9  and  C_10
REMARK    4  A    between atoms: C_12  and  C_13
REMARK    5  A    between atoms: C_20  and  C_21
REMARK                            x       y       z     vdW  Elec       q    Type
REMARK                         _______ _______ _______ _____ _____    ______ ____
ROOT
ATOM      1  C   UNL     1       2.431   6.167  20.030  0.00  0.00    +0.000 A 
ATOM      2  S   UNL     1       3.494   6.820  18.873  0.00  0.00    +0.000 S 
ATOM      3  C   UNL     1       4.131   5.252  18.554  0.00  0.00    +0.000 A 
ATOM      4  N   UNL     1       3.594   4.281  19.267  0.00  0.00    +0.000 NA
ATOM      5  C   UNL     1       2.614   4.799  20.133  0.00  0.00    +0.000 A 
ENDROOT
BRANCH   3   6
ATOM      6  C   UNL     1       5.239   5.075  17.599  0.00  0.00    +0.000 A 
ATOM      7  C   UNL     1       6.500   4.697  18.070  0.00  0.00    +0.000 A 
ATOM      8  C   UNL     1       7.540   4.561  17.165  0.00  0.00    +0.000 A 
ATOM      9  N   UNL     1       7.410   4.765  15.838  0.00  0.00    +0.000 NA
ATOM     10  C   UNL     1       6.186   5.115  15.395  0.00  0.00    +0.000 A 
ATOM     11  C   UNL     1       5.085   5.277  16.222  0.00  0.00    +0.000 A 
ENDBRANCH   3   6
BRANCH   5  12
ATOM     12  C   UNL     1       1.831   3.916  20.990  0.00  0.00    +0.000 C 
ATOM     13  N   UNL     1       0.602   3.584  20.476  0.00  0.00    +0.000 N 
ATOM     14  O   UNL     1       2.206   3.520  22.089  0.00  0.00    +0.000 OA
ATOM     15  H   UNL     1       0.294   4.009  19.614  0.00  0.00    +0.000 HD
ATOM     16  H   UNL     1      -0.056   3.091  21.065  0.00  0.00    +0.000 HD
ENDBRANCH   5  12
BRANCH   1  19
ATOM     17  C   UNL     1       1.265   8.279  20.261  0.00  0.00    +0.000 C 
ATOM     18  O   UNL     1       1.478   8.630  19.102  0.00  0.00    +0.000 OA
ATOM     19  N   UNL     1       1.640   7.037  20.765  0.00  0.00    +0.000 N 
ATOM     20  H   UNL     1       1.013   6.623  21.447  0.00  0.00    +0.000 HD
BRANCH  17  26
ATOM     21  C   UNL     1       1.043  11.367  20.125  0.00  0.00    +0.000 C 
ATOM     22  N   UNL     1       0.471  10.511  21.147  0.00  0.00    +0.000 N 
ATOM     23  C   UNL     1      -0.236  10.994  22.221  0.00  0.00    +0.000 A 
ATOM     24  C   UNL     1      -0.636   9.930  22.983  0.00  0.00    +0.000 A 
ATOM     25  C   UNL     1      -0.153   8.760  22.356  0.00  0.00    +0.000 A 
ATOM     26  C   UNL     1       0.544   9.125  21.207  0.00  0.00    +0.000 A 
ENDBRANCH  17  26
ENDBRANCH   1  19
TORSDOF 4
ENDMDL
MODEL 6
REMARK VINA RESULT:      -6.9      3.216      3.845
REMARK  Name = 
REMARK  5 active torsions:
REMARK  status: ('A' for Active; 'I' for Inactive)
REMARK    1  A    between atoms: C_1  and  N_2
REMARK    2  A    between atoms: C_6  and  C_7
REMARK    3  A    between atoms: N_9  and  C_10
REMARK    4  A    between atoms: C_12  and  C_13
REMARK    5  A    between atoms: C_20  and  C_21
REMARK                            x       y       z     vdW  Elec       q    Type
REMARK                         _______ _______ _______ _____ _____    ______ ____
ROOT
ATOM      1  C   UNL     1       4.285   5.448  17.512  0.00  0.00    +0.000 A 
ATOM      2  S   UNL     1       4.833   6.135  16.055  0.00  0.00    +0.000 S 
ATOM      3  C   UNL     1       5.465   4.613  15.558  0.00  0.00    +0.000 A 
ATOM      4  N   UNL     1       5.290   3.632  16.424  0.00  0.00    +0.000 NA
ATOM      5  C   UNL     1       4.616   4.105  17.564  0.00  0.00    +0.000 A 
ENDROOT
BRANCH   3   6
ATOM      6  C   UNL     1       6.197   4.485  14.286  0.00  0.00    +0.000 A 
ATOM      7  C   UNL     1       7.322   5.285  14.057  0.00  0.00    +0.000 A 
ATOM      8  C   UNL     1       7.984   5.176  12.845  0.00  0.00    +0.000 A 
ATOM      9  N   UNL     1       7.615   4.330  11.862  0.00  0.00    +0.000 NA
ATOM     10  C   UNL     1       6.538   3.556  12.101  0.00  0.00    +0.000 A 
ATOM     11  C   UNL     1       5.809   3.593  13.280  0.00  0.00    +0.000 A 
ENDBRANCH   3   6
BRANCH   5  12
ATOM     12  C   UNL     1       4.250   3.199  18.647  0.00  0.00    +0.000 C 
ATOM     13  N   UNL     1       5.265   2.954  19.538  0.00  0.00    +0.000 N 
ATOM     14  O   UNL     1       3.149   2.668  18.752  0.00  0.00    +0.000 OA
ATOM     15  H   UNL     1       6.183   3.335  19.360  0.00  0.00    +0.000 HD
ATOM     16  H   UNL     1       5.139   2.234  20.236  0.00  0.00    +0.000 HD
ENDBRANCH   5  12
BRANCH   1  19
ATOM     17  C   UNL     1       2.331   6.368  18.611  0.00  0.00    +0.000 C 
ATOM     18  O   UNL     1       1.540   5.626  18.033  0.00  0.00    +0.000 OA
ATOM     19  N   UNL     1       3.712   6.281  18.460  0.00  0.00    +0.000 N 
ATOM     20  H   UNL     1       4.266   6.488  19.285  0.00  0.00    +0.000 HD
BRANCH  17  26
ATOM     21  C   UNL     1       1.694   9.324  17.935  0.00  0.00    +0.000 C 
ATOM     22  N   UNL     1       1.626   8.713  19.248  0.00  0.00    +0.000 N 
ATOM     23  C   UNL     1       1.286   9.407  20.382  0.00  0.00    +0.000 A 
ATOM     24  C   UNL     1       1.312   8.538  21.440  0.00  0.00    +0.000 A 
ATOM     25  C   UNL     1       1.687   7.274  20.934  0.00  0.00    +0.000 A 
ATOM     26  C   UNL     1       1.887   7.384  19.560  0.00  0.00    +0.000 A 
ENDBRANCH  17  26
ENDBRANCH   1  19
TORSDOF 4
ENDMDL
MODEL 7
REMARK VINA RESULT:      -6.8      1.723      7.494
REMARK  Name = 
REMARK  5 active torsions:
REMARK  status: ('A' for Active; 'I' for Inactive)
REMARK    1  A    between atoms: C_1  and  N_2
REMARK    2  A    between atoms: C_6  and  C_7
REMARK    3  A    between atoms: N_9  and  C_10
REMARK    4  A    between atoms: C_12  and  C_13
REMARK    5  A    between atoms: C_20  and  C_21
REMARK                            x       y       z     vdW  Elec       q    Type
REMARK                         _______ _______ _______ _____ _____    ______ ____
ROOT
ATOM      1  C   UNL     1       5.527   3.849  16.959  0.00  0.00    +0.000 A 
ATOM      2  S   UNL     1       4.019   3.170  17.362  0.00  0.00    +0.000 S 
ATOM      3  C   UNL     1       4.180   3.738  18.979  0.00  0.00    +0.000 A 
ATOM      4  N   UNL     1       5.296   4.398  19.225  0.00  0.00    +0.000 NA
ATOM      5  C   UNL     1       6.089   4.460  18.065  0.00  0.00    +0.000 A 
ENDROOT
BRANCH   3   6
ATOM      6  C   UNL     1       3.154   3.424  19.988  0.00  0.00    +0.000 A 
ATOM      7  C   UNL     1       1.910   4.060  19.926  0.00  0.00    +0.000 A 
ATOM      8  C   UNL     1       0.964   3.778  20.898  0.00  0.00    +0.000 A 
ATOM      9  N   UNL     1       1.166   2.911  21.910  0.00  0.00    +0.000 NA
ATOM     10  C   UNL     1       2.365   2.295  21.952  0.00  0.00    +0.000 A 
ATOM     11  C   UNL     1       3.374   2.512  21.027  0.00  0.00    +0.000 A 
ENDBRANCH   3   6
BRANCH   5  12
ATOM     12  C   UNL     1       7.353   5.189  18.061  0.00  0.00    +0.000 C 
ATOM     13  N   UNL     1       7.998   5.197  19.273  0.00  0.00    +0.000 N 
ATOM     14  O   UNL     1       7.801   5.775  17.081  0.00  0.00    +0.000 OA
ATOM     15  H   UNL     1       7.547   4.785  20.076  0.00  0.00    +0.000 HD
ATOM     16  H   UNL     1       8.806   5.793  19.391  0.00  0.00    +0.000 HD
ENDBRANCH   5  12
BRANCH   1  19
ATOM     17  C   UNL     1       5.787   4.513  14.642  0.00  0.00    +0.000 C 
ATOM     18  O   UNL     1       5.243   5.605  14.797  0.00  0.00    +0.000 OA
ATOM     19  N   UNL     1       6.032   3.626  15.687  0.00  0.00    +0.000 N 
ATOM     20  H   UNL     1       6.885   3.081  15.620  0.00  0.00    +0.000 HD
BRANCH  17  26
ATOM     21  C   UNL     1       8.219   5.688  13.125  0.00  0.00    +0.000 C 
ATOM     22  N   UNL     1       7.357   4.619  12.661  0.00  0.00    +0.000 N 
ATOM     23  C   UNL     1       7.512   4.005  11.444  0.00  0.00    +0.000 A 
ATOM     24  C   UNL     1       6.544   3.044  11.323  0.00  0.00    +0.000 A 
ATOM     25  C   UNL     1       5.770   3.078  12.504  0.00  0.00    +0.000 A 
ATOM     26  C   UNL     1       6.277   4.068  13.341  0.00  0.00    +0.000 A 
ENDBRANCH  17  26
ENDBRANCH   1  19
TORSDOF 4
ENDMDL
MODEL 8
REMARK VINA RESULT:      -6.7      1.498      7.342
REMARK  Name = 
REMARK  5 active torsions:
REMARK  status: ('A' for Active; 'I' for Inactive)
REMARK    1  A    between atoms: C_1  and  N_2
REMARK    2  A    between atoms: C_6  and  C_7
REMARK    3  A    between atoms: N_9  and  C_10
REMARK    4  A    between atoms: C_12  and  C_13
REMARK    5  A    between atoms: C_20  and  C_21
REMARK                            x       y       z     vdW  Elec       q    Type
REMARK                         _______ _______ _______ _____ _____    ______ ____
ROOT
ATOM      1  C   UNL     1       5.404   5.223  17.145  0.00  0.00    +0.000 A 
ATOM      2  S   UNL     1       3.856   4.540  17.327  0.00  0.00    +0.000 S 
ATOM      3  C   UNL     1       4.054   4.511  19.037  0.00  0.00    +0.000 A 
ATOM      4  N   UNL     1       5.212   4.978  19.467  0.00  0.00    +0.000 NA
ATOM      5  C   UNL     1       6.006   5.384  18.380  0.00  0.00    +0.000 A 
ENDROOT
BRANCH   3   6
ATOM      6  C   UNL     1       3.011   3.934  19.902  0.00  0.00    +0.000 A 
ATOM      7  C   UNL     1       3.371   3.022  20.899  0.00  0.00    +0.000 A 
ATOM      8  C   UNL     1       2.377   2.464  21.688  0.00  0.00    +0.000 A 
ATOM      9  N   UNL     1       1.067   2.756  21.559  0.00  0.00    +0.000 NA
ATOM     10  C   UNL     1       0.735   3.647  20.602  0.00  0.00    +0.000 A 
ATOM     11  C   UNL     1       1.656   4.256  19.765  0.00  0.00    +0.000 A 
ENDBRANCH   3   6
BRANCH   5  12
ATOM     12  C   UNL     1       7.314   5.992  18.596  0.00  0.00    +0.000 C 
ATOM     13  N   UNL     1       7.962   5.542  19.720  0.00  0.00    +0.000 N 
ATOM     14  O   UNL     1       7.796   6.853  17.867  0.00  0.00    +0.000 OA
ATOM     15  H   UNL     1       7.488   4.905  20.343  0.00  0.00    +0.000 HD
ATOM     16  H   UNL     1       8.807   6.010  20.016  0.00  0.00    +0.000 HD
ENDBRANCH   5  12
BRANCH   1  19
ATOM     17  C   UNL     1       6.356   4.355  15.093  0.00  0.00    +0.000 C 
ATOM     18  O   UNL     1       6.236   3.177  15.424  0.00  0.00    +0.000 OA
ATOM     19  N   UNL     1       5.892   5.418  15.862  0.00  0.00    +0.000 N 
ATOM     20  H   UNL     1       5.534   6.218  15.351  0.00  0.00    +0.000 HD
BRANCH  17  26
ATOM     21  C   UNL     1       5.632   3.185  12.316  0.00  0.00    +0.000 C 
ATOM     22  N   UNL     1       6.638   4.196  12.583  0.00  0.00    +0.000 N 
ATOM     23  C   UNL     1       7.426   4.747  11.605  0.00  0.00    +0.000 A 
ATOM     24  C   UNL     1       8.257   5.663  12.190  0.00  0.00    +0.000 A 
ATOM     25  C   UNL     1       7.968   5.667  13.573  0.00  0.00    +0.000 A 
ATOM     26  C   UNL     1       6.956   4.744  13.820  0.00  0.00    +0.000 A 
ENDBRANCH  17  26
ENDBRANCH   1  19
TORSDOF 4
ENDMDL
MODEL 9
REMARK VINA RESULT:      -6.7      4.185      8.192
REMARK  Name = 
REMARK  5 active torsions:
REMARK  status: ('A' for Active; 'I' for Inactive)
REMARK    1  A    between atoms: C_1  and  N_2
REMARK    2  A    between atoms: C_6  and  C_7
REMARK    3  A    between atoms: N_9  and  C_10
REMARK    4  A    between atoms: C_12  and  C_13
REMARK    5  A    between atoms: C_20  and  C_21
REMARK                            x       y       z     vdW  Elec       q    Type
REMARK                         _______ _______ _______ _____ _____    ______ ____
ROOT
ATOM      1  C   UNL     1       2.974   6.028  18.943  0.00  0.00    +0.000 A 
ATOM      2  S   UNL     1       2.526   7.667  18.835  0.00  0.00    +0.000 S 
ATOM      3  C   UNL     1       1.629   7.532  20.298  0.00  0.00    +0.000 A 
ATOM      4  N   UNL     1       1.648   6.333  20.851  0.00  0.00    +0.000 NA
ATOM      5  C   UNL     1       2.416   5.451  20.070  0.00  0.00    +0.000 A 
ENDROOT
BRANCH   3   6
ATOM      6  C   UNL     1       0.860   8.678  20.814  0.00  0.00    +0.000 A 
ATOM      7  C   UNL     1       0.640   8.795  22.190  0.00  0.00    +0.000 A 
ATOM      8  C   UNL     1      -0.109   9.862  22.659  0.00  0.00    +0.000 A 
ATOM      9  N   UNL     1      -0.639  10.814  21.864  0.00  0.00    +0.000 NA
ATOM     10  C   UNL     1      -0.407  10.696  20.541  0.00  0.00    +0.000 A 
ATOM     11  C   UNL     1       0.327   9.665  19.977  0.00  0.00    +0.000 A 
ENDBRANCH   3   6
BRANCH   5  12
ATOM     12  C   UNL     1       2.640   4.075  20.498  0.00  0.00    +0.000 C 
ATOM     13  N   UNL     1       2.041   3.756  21.692  0.00  0.00    +0.000 N 
ATOM     14  O   UNL     1       3.324   3.268  19.876  0.00  0.00    +0.000 OA
ATOM     15  H   UNL     1       1.569   4.477  22.217  0.00  0.00    +0.000 HD
ATOM     16  H   UNL     1       2.260   2.869  22.125  0.00  0.00    +0.000 HD
ENDBRANCH   5  12
BRANCH   1  19
ATOM     17  C   UNL     1       5.000   5.890  17.620  0.00  0.00    +0.000 C 
ATOM     18  O   UNL     1       5.636   6.654  18.343  0.00  0.00    +0.000 OA
ATOM     19  N   UNL     1       3.702   5.474  17.902  0.00  0.00    +0.000 N 
ATOM     20  H   UNL     1       3.468   4.523  17.633  0.00  0.00    +0.000 HD
BRANCH  17  26
ATOM     21  C   UNL     1       7.730   4.434  17.445  0.00  0.00    +0.000 C 
ATOM     22  N   UNL     1       6.814   4.670  16.346  0.00  0.00    +0.000 N 
ATOM     23  C   UNL     1       7.075   4.285  15.054  0.00  0.00    +0.000 A 
ATOM     24  C   UNL     1       6.012   4.651  14.275  0.00  0.00    +0.000 A 
ATOM     25  C   UNL     1       5.073   5.286  15.118  0.00  0.00    +0.000 A 
ATOM     26  C   UNL     1       5.578   5.301  16.415  0.00  0.00    +0.000 A 
ENDBRANCH  17  26
ENDBRANCH   1  19
TORSDOF 4
ENDMDL
