MODEL 1
REMARK VINA RESULT:      -6.5      0.000      0.000
REMARK  Name = 
REMARK  9 active torsions:
REMARK  status: ('A' for Active; 'I' for Inactive)
REMARK    1  A    between atoms: N_1  and  CA_2
REMARK    2  A    between atoms: CA_2  and  C_3
REMARK    3  A    between atoms: CA_2  and  C_5
REMARK    4  A    between atoms: C_3  and  O_4
REMARK    5  A    between atoms: N_7  and  C_8
REMARK    6  A    between atoms: C_8  and  C_9
REMARK    7  A    between atoms: C_9  and  N_10
REMARK    8  A    between atoms: C_9  and  C_11
REMARK    9  A    between atoms: C_11  and  C_12
REMARK                            x       y       z     vdW  Elec       q    Type
REMARK                         _______ _______ _______ _____ _____    ______ ____
ROOT
ATOM      1  C   UNL     1       6.241   6.164  18.000  0.00  0.00    +0.000 C 
ENDROOT
BRANCH   1   4
ATOM      2  C   UNL     1       6.968   5.110  15.890  0.00  0.00    +0.000 C 
ATOM      3  O   UNL     1       7.789   4.383  16.448  0.00  0.00    +0.000 OA
ATOM      4  N   UNL     1       6.128   5.958  16.572  0.00  0.00    +0.000 N 
ATOM      5  H   UNL     1       5.660   6.675  16.017  0.00  0.00    +0.000 HD
BRANCH   2   6
ATOM      6  CA  UNL     1       6.726   5.096  14.372  0.00  0.00    +0.000 C 
BRANCH   6   7
ATOM      7  N   UNL     1       7.975   5.427  13.628  0.00  0.00    +0.000 NA
ATOM      8  H1  UNL     1       8.062   4.723  12.888  0.00  0.00    +0.000 HD
ATOM      9  H2  UNL     1       8.770   5.234  14.239  0.00  0.00    +0.000 HD
ENDBRANCH   6   7
BRANCH   6  10
ATOM     10  C   UNL     1       6.154   3.746  13.920  0.00  0.00    +0.000 C 
BRANCH  10  11
ATOM     11  O   UNL     1       6.662   3.409  12.623  0.00  0.00    +0.000 OA
ATOM     12  H   UNL     1       6.881   2.460  12.643  0.00  0.00    +0.000 HD
ENDBRANCH  10  11
ENDBRANCH   6  10
ENDBRANCH   2   6
ENDBRANCH   1   4
BRANCH   1  13
ATOM     13  C   UNL     1       5.246   5.288  18.792  0.00  0.00    +0.000 C 
BRANCH  13  14
ATOM     14  N   UNL     1       5.810   3.932  18.972  0.00  0.00    +0.000 NA
ATOM     15  H   UNL     1       5.291   3.273  18.390  0.00  0.00    +0.000 HD
ATOM     16  H   UNL     1       5.640   3.633  19.935  0.00  0.00    +0.000 HD
ENDBRANCH  13  14
BRANCH  13  17
ATOM     17  C   UNL     1       3.881   5.276  18.069  0.00  0.00    +0.000 C 
BRANCH  17  18
ATOM     18  C   UNL     1       2.792   4.484  18.757  0.00  0.00    +0.000 A 
ATOM     19  C   UNL     1       2.440   4.738  20.089  0.00  0.00    +0.000 A 
ATOM     20  C   UNL     1       1.400   4.029  20.695  0.00  0.00    +0.000 A 
ATOM     21  C   UNL     1       0.697   3.062  19.977  0.00  0.00    +0.000 A 
ATOM     22  C   UNL     1       1.040   2.801  18.652  0.00  0.00    +0.000 A 
ATOM     23  C   UNL     1       2.079   3.509  18.044  0.00  0.00    +0.000 A 
ENDBRANCH  17  18
ENDBRANCH  13  17
ENDBRANCH   1  13
TORSDOF 9
ENDMDL
MODEL 2
REMARK VINA RESULT:      -6.5      0.352      1.206
REMARK  Name = 
REMARK  9 active torsions:
REMARK  status: ('A' for Active; 'I' for Inactive)
REMARK    1  A    between atoms: N_1  and  CA_2
REMARK    2  A    between atoms: CA_2  and  C_3
REMARK    3  A    between atoms: CA_2  and  C_5
REMARK    4  A    between atoms: C_3  and  O_4
REMARK    5  A    between atoms: N_7  and  C_8
REMARK    6  A    between atoms: C_8  and  C_9
REMARK    7  A    between atoms: C_9  and  N_10
REMARK    8  A    between atoms: C_9  and  C_11
REMARK    9  A    between atoms: C_11  and  C_12
REMARK                            x       y       z     vdW  Elec       q    Type
REMARK                         _______ _______ _______ _____ _____    ______ ____
ROOT
ATOM      1  C   UNL     1       6.453   6.007  18.315  0.00  0.00    +0.000 C 
ENDROOT
BRANCH   1   4
ATOM      2  C   UNL     1       7.064   5.052  16.123  0.00  0.00    +0.000 C 
ATOM      3  O   UNL     1       7.880   4.268  16.606  0.00  0.00    +0.000 OA
ATOM      4  N   UNL     1       6.279   5.886  16.883  0.00  0.00    +0.000 N 
ATOM      5  H   UNL     1       5.816   6.647  16.387  0.00  0.00    +0.000 HD
BRANCH   2   6
ATOM      6  CA  UNL     1       6.765   5.131  14.617  0.00  0.00    +0.000 C 
BRANCH   6   7
ATOM      7  N   UNL     1       7.975   5.548  13.852  0.00  0.00    +0.000 NA
ATOM      8  H1  UNL     1       8.542   4.702  13.732  0.00  0.00    +0.000 HD
ATOM      9  H2  UNL     1       8.547   6.138  14.458  0.00  0.00    +0.000 HD
ENDBRANCH   6   7
BRANCH   6  10
ATOM     10  C   UNL     1       6.212   3.798  14.096  0.00  0.00    +0.000 C 
BRANCH  10  11
ATOM     11  O   UNL     1       6.365   3.728  12.673  0.00  0.00    +0.000 OA
ATOM     12  H   UNL     1       6.134   4.605  12.319  0.00  0.00    +0.000 HD
ENDBRANCH  10  11
ENDBRANCH   6  10
ENDBRANCH   2   6
ENDBRANCH   1   4
BRANCH   1  13
ATOM     13  C   UNL     1       5.371   5.231  19.097  0.00  0.00    +0.000 C 
BRANCH  13  14
ATOM     14  N   UNL     1       5.586   3.776  18.933  0.00  0.00    +0.000 NA
ATOM     15  H   UNL     1       5.245   3.291  19.764  0.00  0.00    +0.000 HD
ATOM     16  H   UNL     1       6.592   3.596  18.911  0.00  0.00    +0.000 HD
ENDBRANCH  13  14
BRANCH  13  17
ATOM     17  C   UNL     1       3.971   5.684  18.628  0.00  0.00    +0.000 C 
BRANCH  17  18
ATOM     18  C   UNL     1       2.830   4.777  19.029  0.00  0.00    +0.000 A 
ATOM     19  C   UNL     1       2.183   3.965  18.088  0.00  0.00    +0.000 A 
ATOM     20  C   UNL     1       1.161   3.099  18.483  0.00  0.00    +0.000 A 
ATOM     21  C   UNL     1       0.776   3.030  19.821  0.00  0.00    +0.000 A 
ATOM     22  C   UNL     1       1.411   3.835  20.764  0.00  0.00    +0.000 A 
ATOM     23  C   UNL     1       2.433   4.701  20.372  0.00  0.00    +0.000 A 
ENDBRANCH  17  18
ENDBRANCH  13  17
ENDBRANCH   1  13
TORSDOF 9
ENDMDL
MODEL 3
REMARK VINA RESULT:      -6.4      2.330      3.286
REMARK  Name = 
REMARK  9 active torsions:
REMARK  status: ('A' for Active; 'I' for Inactive)
REMARK    1  A    between atoms: N_1  and  CA_2
REMARK    2  A    between atoms: CA_2  and  C_3
REMARK    3  A    between atoms: CA_2  and  C_5
REMARK    4  A    between atoms: C_3  and  O_4
REMARK    5  A    between atoms: N_7  and  C_8
REMARK    6  A    between atoms: C_8  and  C_9
REMARK    7  A    between atoms: C_9  and  N_10
REMARK    8  A    between atoms: C_9  and  C_11
REMARK    9  A    between atoms: C_11  and  C_12
REMARK                            x       y       z     vdW  Elec       q    Type
REMARK                         _______ _______ _______ _____ _____    ______ ____
ROOT
ATOM      1  C   UNL     1       4.344   7.080  16.981  0.00  0.00    +0.000 C 
ENDROOT
BRANCH   1   4
ATOM      2  C   UNL     1       6.685   6.667  17.644  0.00  0.00    +0.000 C 
ATOM      3  O   UNL     1       7.103   7.677  17.080  0.00  0.00    +0.000 OA
ATOM      4  N   UNL     1       5.353   6.334  17.703  0.00  0.00    +0.000 N 
ATOM      5  H   UNL     1       5.137   5.377  17.983  0.00  0.00    +0.000 HD
BRANCH   2   6
ATOM      6  CA  UNL     1       7.594   5.701  18.422  0.00  0.00    +0.000 C 
BRANCH   6   7
ATOM      7  N   UNL     1       7.057   5.445  19.789  0.00  0.00    +0.000 NA
ATOM      8  H1  UNL     1       7.499   6.136  20.403  0.00  0.00    +0.000 HD
ATOM      9  H2  UNL     1       7.434   4.554  20.116  0.00  0.00    +0.000 HD
ENDBRANCH   6   7
BRANCH   6  10
ATOM     10  C   UNL     1       7.791   4.390  17.649  0.00  0.00    +0.000 C 
BRANCH  10  11
ATOM     11  O   UNL     1       7.794   4.648  16.240  0.00  0.00    +0.000 OA
ATOM     12  H   UNL     1       7.134   5.345  16.078  0.00  0.00    +0.000 HD
ENDBRANCH  10  11
ENDBRANCH   6  10
ENDBRANCH   2   6
ENDBRANCH   1   4
BRANCH   1  13
ATOM     13  C   UNL     1       3.012   7.152  17.757  0.00  0.00    +0.000 C 
BRANCH  13  14
ATOM     14  N   UNL     1       2.601   8.565  17.912  0.00  0.00    +0.000 NA
ATOM     15  H   UNL     1       1.633   8.668  17.607  0.00  0.00    +0.000 HD
ATOM     16  H   UNL     1       3.149   9.136  17.266  0.00  0.00    +0.000 HD
ENDBRANCH  13  14
BRANCH  13  17
ATOM     17  C   UNL     1       3.162   6.422  19.110  0.00  0.00    +0.000 C 
BRANCH  17  18
ATOM     18  C   UNL     1       2.322   5.176  19.270  0.00  0.00    +0.000 A 
ATOM     19  C   UNL     1       2.005   4.368  18.171  0.00  0.00    +0.000 A 
ATOM     20  C   UNL     1       1.266   3.194  18.343  0.00  0.00    +0.000 A 
ATOM     21  C   UNL     1       0.841   2.812  19.615  0.00  0.00    +0.000 A 
ATOM     22  C   UNL     1       1.150   3.609  20.714  0.00  0.00    +0.000 A 
ATOM     23  C   UNL     1       1.888   4.782  20.545  0.00  0.00    +0.000 A 
ENDBRANCH  17  18
ENDBRANCH  13  17
ENDBRANCH   1  13
TORSDOF 9
ENDMDL
MODEL 4
REMARK VINA RESULT:      -6.4      2.345      3.504
REMARK  Name = 
REMARK  9 active torsions:
REMARK  status: ('A' for Active; 'I' for Inactive)
REMARK    1  A    between atoms: N_1  and  CA_2
REMARK    2  A    between atoms: CA_2  and  C_3
REMARK    3  A    between atoms: CA_2  and  C_5
REMARK    4  A    between atoms: C_3  and  O_4
REMARK    5  A    between atoms: N_7  and  C_8
REMARK    6  A    between atoms: C_8  and  C_9
REMARK    7  A    between atoms: C_9  and  N_10
REMARK    8  A    between atoms: C_9  and  C_11
REMARK    9  A    between atoms: C_11  and  C_12
REMARK                            x       y       z     vdW  Elec       q    Type
REMARK                         _______ _______ _______ _____ _____    ______ ____
ROOT
ATOM      1  C   UNL     1       5.271   4.097  16.606  0.00  0.00    +0.000 C 
ENDROOT
BRANCH   1   4
ATOM      2  C   UNL     1       7.184   5.016  17.865  0.00  0.00    +0.000 C 
ATOM      3  O   UNL     1       8.012   4.360  17.235  0.00  0.00    +0.000 OA
ATOM      4  N   UNL     1       5.838   5.001  17.583  0.00  0.00    +0.000 N 
ATOM      5  H   UNL     1       5.222   5.386  18.299  0.00  0.00    +0.000 HD
BRANCH   2   6
ATOM      6  CA  UNL     1       7.564   5.995  18.987  0.00  0.00    +0.000 C 
BRANCH   6   7
ATOM      7  N   UNL     1       8.505   5.361  19.955  0.00  0.00    +0.000 NA
ATOM      8  H1  UNL     1       8.228   4.376  20.018  0.00  0.00    +0.000 HD
ATOM      9  H2  UNL     1       8.300   5.729  20.885  0.00  0.00    +0.000 HD
ENDBRANCH   6   7
BRANCH   6  10
ATOM     10  C   UNL     1       8.153   7.290  18.411  0.00  0.00    +0.000 C 
BRANCH  10  11
ATOM     11  O   UNL     1       7.723   7.462  17.055  0.00  0.00    +0.000 OA
ATOM     12  H   UNL     1       7.428   6.589  16.739  0.00  0.00    +0.000 HD
ENDBRANCH  10  11
ENDBRANCH   6  10
ENDBRANCH   2   6
ENDBRANCH   1   4
BRANCH   1  13
ATOM     13  C   UNL     1       3.776   3.820  16.874  0.00  0.00    +0.000 C 
BRANCH  13  14
ATOM     14  N   UNL     1       3.159   4.998  17.523  0.00  0.00    +0.000 NA
ATOM     15  H   UNL     1       3.860   5.474  18.091  0.00  0.00    +0.000 HD
ATOM     16  H   UNL     1       2.452   4.671  18.186  0.00  0.00    +0.000 HD
ENDBRANCH  13  14
BRANCH  13  17
ATOM     17  C   UNL     1       3.633   2.532  17.715  0.00  0.00    +0.000 C 
BRANCH  17  18
ATOM     18  C   UNL     1       2.822   2.673  18.982  0.00  0.00    +0.000 A 
ATOM     19  C   UNL     1       1.426   2.785  18.943  0.00  0.00    +0.000 A 
ATOM     20  C   UNL     1       0.688   2.868  20.126  0.00  0.00    +0.000 A 
ATOM     21  C   UNL     1       1.334   2.836  21.362  0.00  0.00    +0.000 A 
ATOM     22  C   UNL     1       2.722   2.727  21.411  0.00  0.00    +0.000 A 
ATOM     23  C   UNL     1       3.461   2.643  20.231  0.00  0.00    +0.000 A 
ENDBRANCH  17  18
ENDBRANCH  13  17
ENDBRANCH   1  13
TORSDOF 9
ENDMDL
MODEL 5
REMARK VINA RESULT:      -6.3      1.301      1.784
REMARK  Name = 
REMARK  9 active torsions:
REMARK  status: ('A' for Active; 'I' for Inactive)
REMARK    1  A    between atoms: N_1  and  CA_2
REMARK    2  A    between atoms: CA_2  and  C_3
REMARK    3  A    between atoms: CA_2  and  C_5
REMARK    4  A    between atoms: C_3  and  O_4
REMARK    5  A    between atoms: N_7  and  C_8
REMARK    6  A    between atoms: C_8  and  C_9
REMARK    7  A    between atoms: C_9  and  N_10
REMARK    8  A    between atoms: C_9  and  C_11
REMARK    9  A    between atoms: C_11  and  C_12
REMARK                            x       y       z     vdW  Elec       q    Type
REMARK                         _______ _______ _______ _____ _____    ______ ____
ROOT
ATOM      1  C   UNL     1       6.051   6.464  17.079  0.00  0.00    +0.000 C 
ENDROOT
BRANCH   1   4
ATOM      2  C   UNL     1       6.994   4.839  15.478  0.00  0.00    +0.000 C 
ATOM      3  O   UNL     1       7.904   4.505  16.237  0.00  0.00    +0.000 OA
ATOM      4  N   UNL     1       6.012   5.734  15.830  0.00  0.00    +0.000 N 
ATOM      5  H   UNL     1       5.452   6.115  15.066  0.00  0.00    +0.000 HD
BRANCH   2   6
ATOM      6  CA  UNL     1       6.800   4.232  14.080  0.00  0.00    +0.000 C 
BRANCH   6   7
ATOM      7  N   UNL     1       5.353   4.151  13.728  0.00  0.00    +0.000 NA
ATOM      8  H1  UNL     1       4.928   3.518  14.413  0.00  0.00    +0.000 HD
ATOM      9  H2  UNL     1       5.269   3.643  12.846  0.00  0.00    +0.000 HD
ENDBRANCH   6   7
BRANCH   6  10
ATOM     10  C   UNL     1       7.583   5.024  13.024  0.00  0.00    +0.000 C 
BRANCH  10  11
ATOM     11  O   UNL     1       8.557   5.858  13.661  0.00  0.00    +0.000 OA
ATOM     12  H   UNL     1       8.466   5.718  14.620  0.00  0.00    +0.000 HD
ENDBRANCH  10  11
ENDBRANCH   6  10
ENDBRANCH   2   6
ENDBRANCH   1   4
BRANCH   1  13
ATOM     13  C   UNL     1       5.297   5.725  18.205  0.00  0.00    +0.000 C 
BRANCH  13  14
ATOM     14  N   UNL     1       6.234   4.844  18.937  0.00  0.00    +0.000 NA
ATOM     15  H   UNL     1       5.914   3.878  18.862  0.00  0.00    +0.000 HD
ATOM     16  H   UNL     1       6.180   5.068  19.933  0.00  0.00    +0.000 HD
ENDBRANCH  13  14
BRANCH  13  17
ATOM     17  C   UNL     1       4.099   4.956  17.606  0.00  0.00    +0.000 C 
BRANCH  17  18
ATOM     18  C   UNL     1       2.971   4.663  18.568  0.00  0.00    +0.000 A 
ATOM     19  C   UNL     1       2.054   3.634  18.319  0.00  0.00    +0.000 A 
ATOM     20  C   UNL     1       1.044   3.346  19.242  0.00  0.00    +0.000 A 
ATOM     21  C   UNL     1       0.943   4.079  20.424  0.00  0.00    +0.000 A 
ATOM     22  C   UNL     1       1.849   5.105  20.679  0.00  0.00    +0.000 A 
ATOM     23  C   UNL     1       2.858   5.395  19.760  0.00  0.00    +0.000 A 
ENDBRANCH  17  18
ENDBRANCH  13  17
ENDBRANCH   1  13
TORSDOF 9
ENDMDL
MODEL 6
REMARK VINA RESULT:      -6.3      1.914      2.627
REMARK  Name = 
REMARK  9 active torsions:
REMARK  status: ('A' for Active; 'I' for Inactive)
REMARK    1  A    between atoms: N_1  and  CA_2
REMARK    2  A    between atoms: CA_2  and  C_3
REMARK    3  A    between atoms: CA_2  and  C_5
REMARK    4  A    between atoms: C_3  and  O_4
REMARK    5  A    between atoms: N_7  and  C_8
REMARK    6  A    between atoms: C_8  and  C_9
REMARK    7  A    between atoms: C_9  and  N_10
REMARK    8  A    between atoms: C_9  and  C_11
REMARK    9  A    between atoms: C_11  and  C_12
REMARK                            x       y       z     vdW  Elec       q    Type
REMARK                         _______ _______ _______ _____ _____    ______ ____
ROOT
ATOM      1  C   UNL     1       4.486   7.289  17.410  0.00  0.00    +0.000 C 
ENDROOT
BRANCH   1   4
ATOM      2  C   UNL     1       6.321   5.880  16.551  0.00  0.00    +0.000 C 
ATOM      3  O   UNL     1       7.167   6.762  16.693  0.00  0.00    +0.000 OA
ATOM      4  N   UNL     1       5.009   6.026  16.935  0.00  0.00    +0.000 N 
ATOM      5  H   UNL     1       4.351   5.340  16.566  0.00  0.00    +0.000 HD
BRANCH   2   6
ATOM      6  CA  UNL     1       6.649   4.480  16.007  0.00  0.00    +0.000 C 
BRANCH   6   7
ATOM      7  N   UNL     1       5.616   3.489  16.423  0.00  0.00    +0.000 NA
ATOM      8  H1  UNL     1       4.803   3.652  15.820  0.00  0.00    +0.000 HD
ATOM      9  H2  UNL     1       5.283   3.748  17.353  0.00  0.00    +0.000 HD
ENDBRANCH   6   7
BRANCH   6  10
ATOM     10  C   UNL     1       6.807   4.507  14.480  0.00  0.00    +0.000 C 
BRANCH  10  11
ATOM     11  O   UNL     1       7.791   5.479  14.108  0.00  0.00    +0.000 OA
ATOM     12  H   UNL     1       7.363   6.352  14.161  0.00  0.00    +0.000 HD
ENDBRANCH  10  11
ENDBRANCH   6  10
ENDBRANCH   2   6
ENDBRANCH   1   4
BRANCH   1  13
ATOM     13  C   UNL     1       2.981   7.203  17.743  0.00  0.00    +0.000 C 
BRANCH  13  14
ATOM     14  N   UNL     1       2.351   8.527  17.545  0.00  0.00    +0.000 NA
ATOM     15  H   UNL     1       2.688   8.932  16.671  0.00  0.00    +0.000 HD
ATOM     16  H   UNL     1       2.681   9.158  18.279  0.00  0.00    +0.000 HD
ENDBRANCH  13  14
BRANCH  13  17
ATOM     17  C   UNL     1       2.800   6.665  19.179  0.00  0.00    +0.000 C 
BRANCH  17  18
ATOM     18  C   UNL     1       2.115   5.321  19.285  0.00  0.00    +0.000 A 
ATOM     19  C   UNL     1       1.915   4.518  18.155  0.00  0.00    +0.000 A 
ATOM     20  C   UNL     1       1.322   3.258  18.277  0.00  0.00    +0.000 A 
ATOM     21  C   UNL     1       0.927   2.786  19.528  0.00  0.00    +0.000 A 
ATOM     22  C   UNL     1       1.120   3.578  20.657  0.00  0.00    +0.000 A 
ATOM     23  C   UNL     1       1.713   4.836  20.538  0.00  0.00    +0.000 A 
ENDBRANCH  17  18
ENDBRANCH  13  17
ENDBRANCH   1  13
TORSDOF 9
ENDMDL
MODEL 7
REMARK VINA RESULT:      -6.3      1.021      1.562
REMARK  Name = 
REMARK  9 active torsions:
REMARK  status: ('A' for Active; 'I' for Inactive)
REMARK    1  A    between atoms: N_1  and  CA_2
REMARK    2  A    between atoms: CA_2  and  C_3
REMARK    3  A    between atoms: CA_2  and  C_5
REMARK    4  A    between atoms: C_3  and  O_4
REMARK    5  A    between atoms: N_7  and  C_8
REMARK    6  A    between atoms: C_8  and  C_9
REMARK    7  A    between atoms: C_9  and  N_10
REMARK    8  A    between atoms: C_9  and  C_11
REMARK    9  A    between atoms: C_11  and  C_12
REMARK                            x       y       z     vdW  Elec       q    Type
REMARK                         _______ _______ _______ _____ _____    ______ ____
ROOT
ATOM      1  C   UNL     1       5.058   6.265  18.108  0.00  0.00    +0.000 C 
ENDROOT
BRANCH   1   4
ATOM      2  C   UNL     1       6.482   5.849  16.136  0.00  0.00    +0.000 C 
ATOM      3  O   UNL     1       7.475   6.363  16.649  0.00  0.00    +0.000 OA
ATOM      4  N   UNL     1       5.285   5.699  16.796  0.00  0.00    +0.000 N 
ATOM      5  H   UNL     1       4.474   5.482  16.217  0.00  0.00    +0.000 HD
BRANCH   2   6
ATOM      6  CA  UNL     1       6.486   5.238  14.725  0.00  0.00    +0.000 C 
BRANCH   6   7
ATOM      7  N   UNL     1       7.793   5.466  14.046  0.00  0.00    +0.000 NA
ATOM      8  H1  UNL     1       8.131   4.541  13.758  0.00  0.00    +0.000 HD
ATOM      9  H2  UNL     1       8.470   5.761  14.752  0.00  0.00    +0.000 HD
ENDBRANCH   6   7
BRANCH   6  10
ATOM     10  C   UNL     1       6.140   3.743  14.773  0.00  0.00    +0.000 C 
BRANCH  10  11
ATOM     11  O   UNL     1       6.301   3.162  13.474  0.00  0.00    +0.000 OA
ATOM     12  H   UNL     1       7.255   3.004  13.350  0.00  0.00    +0.000 HD
ENDBRANCH  10  11
ENDBRANCH   6  10
ENDBRANCH   2   6
ENDBRANCH   1   4
BRANCH   1  13
ATOM     13  C   UNL     1       5.295   5.232  19.232  0.00  0.00    +0.000 C 
BRANCH  13  14
ATOM     14  N   UNL     1       6.729   5.211  19.595  0.00  0.00    +0.000 NA
ATOM     15  H   UNL     1       6.835   5.523  20.561  0.00  0.00    +0.000 HD
ATOM     16  H   UNL     1       7.218   5.910  19.032  0.00  0.00    +0.000 HD
ENDBRANCH  13  14
BRANCH  13  17
ATOM     17  C   UNL     1       4.773   3.850  18.781  0.00  0.00    +0.000 C 
BRANCH  17  18
ATOM     18  C   UNL     1       3.325   3.567  19.108  0.00  0.00    +0.000 A 
ATOM     19  C   UNL     1       2.586   2.627  18.378  0.00  0.00    +0.000 A 
ATOM     20  C   UNL     1       1.262   2.343  18.722  0.00  0.00    +0.000 A 
ATOM     21  C   UNL     1       0.662   2.991  19.802  0.00  0.00    +0.000 A 
ATOM     22  C   UNL     1       1.388   3.929  20.533  0.00  0.00    +0.000 A 
ATOM     23  C   UNL     1       2.711   4.213  20.191  0.00  0.00    +0.000 A 
ENDBRANCH  17  18
ENDBRANCH  13  17
ENDBRANCH   1  13
TORSDOF 9
ENDMDL
MODEL 8
REMARK VINA RESULT:      -6.3      2.904      3.993
REMARK  Name = 
REMARK  9 active torsions:
REMARK  status: ('A' for Active; 'I' for Inactive)
REMARK    1  A    between atoms: N_1  and  CA_2
REMARK    2  A    between atoms: CA_2  and  C_3
REMARK    3  A    between atoms: CA_2  and  C_5
REMARK    4  A    between atoms: C_3  and  O_4
REMARK    5  A    between atoms: N_7  and  C_8
REMARK    6  A    between atoms: C_8  and  C_9
REMARK    7  A    between atoms: C_9  and  N_10
REMARK    8  A    between atoms: C_9  and  C_11
REMARK    9  A    between atoms: C_11  and  C_12
REMARK                            x       y       z     vdW  Elec       q    Type
REMARK                         _______ _______ _______ _____ _____    ______ ____
ROOT
ATOM      1  C   UNL     1       4.171   2.842  19.819  0.00  0.00    +0.000 C 
ENDROOT
BRANCH   1   4
ATOM      2  C   UNL     1       5.738   4.618  19.123  0.00  0.00    +0.000 C 
ATOM      3  O   UNL     1       5.178   5.481  19.797  0.00  0.00    +0.000 OA
ATOM      4  N   UNL     1       5.357   3.297  19.126  0.00  0.00    +0.000 N 
ATOM      5  H   UNL     1       5.725   2.718  18.370  0.00  0.00    +0.000 HD
BRANCH   2   6
ATOM      6  CA  UNL     1       6.981   4.896  18.264  0.00  0.00    +0.000 C 
BRANCH   6   7
ATOM      7  N   UNL     1       6.602   5.489  16.950  0.00  0.00    +0.000 NA
ATOM      8  H1  UNL     1       6.569   4.710  16.284  0.00  0.00    +0.000 HD
ATOM      9  H2  UNL     1       7.384   6.056  16.619  0.00  0.00    +0.000 HD
ENDBRANCH   6   7
BRANCH   6  10
ATOM     10  C   UNL     1       7.975   5.797  19.011  0.00  0.00    +0.000 C 
BRANCH  10  11
ATOM     11  O   UNL     1       7.994   5.454  20.402  0.00  0.00    +0.000 OA
ATOM     12  H   UNL     1       7.133   5.048  20.606  0.00  0.00    +0.000 HD
ENDBRANCH  10  11
ENDBRANCH   6  10
ENDBRANCH   2   6
ENDBRANCH   1   4
BRANCH   1  13
ATOM     13  C   UNL     1       3.214   2.071  18.885  0.00  0.00    +0.000 C 
BRANCH  13  14
ATOM     14  N   UNL     1       3.845   1.899  17.558  0.00  0.00    +0.000 NA
ATOM     15  H   UNL     1       4.340   1.006  17.534  0.00  0.00    +0.000 HD
ATOM     16  H   UNL     1       4.570   2.611  17.447  0.00  0.00    +0.000 HD
ENDBRANCH  13  14
BRANCH  13  17
ATOM     17  C   UNL     1       1.859   2.808  18.810  0.00  0.00    +0.000 C 
BRANCH  17  18
ATOM     18  C   UNL     1       1.919   4.299  19.047  0.00  0.00    +0.000 A 
ATOM     19  C   UNL     1       1.693   4.842  20.319  0.00  0.00    +0.000 A 
ATOM     20  C   UNL     1       1.798   6.219  20.531  0.00  0.00    +0.000 A 
ATOM     21  C   UNL     1       2.134   7.068  19.477  0.00  0.00    +0.000 A 
ATOM     22  C   UNL     1       2.358   6.539  18.209  0.00  0.00    +0.000 A 
ATOM     23  C   UNL     1       2.255   5.163  17.995  0.00  0.00    +0.000 A 
ENDBRANCH  17  18
ENDBRANCH  13  17
ENDBRANCH   1  13
TORSDOF 9
ENDMDL
MODEL 9
REMARK VINA RESULT:      -6.2      2.278      3.463
REMARK  Name = 
REMARK  9 active torsions:
REMARK  status: ('A' for Active; 'I' for Inactive)
REMARK    1  A    between atoms: N_1  and  CA_2
REMARK    2  A    between atoms: CA_2  and  C_3
REMARK    3  A    between atoms: CA_2  and  C_5
REMARK    4  A    between atoms: C_3  and  O_4
REMARK    5  A    between atoms: N_7  and  C_8
REMARK    6  A    between atoms: C_8  and  C_9
REMARK    7  A    between atoms: C_9  and  N_10
REMARK    8  A    between atoms: C_9  and  C_11
REMARK    9  A    between atoms: C_11  and  C_12
REMARK                            x       y       z     vdW  Elec       q    Type
REMARK                         _______ _______ _______ _____ _____    ______ ____
ROOT
ATOM      1  C   UNL     1       4.263   2.747  19.466  0.00  0.00    +0.000 C 
ENDROOT
BRANCH   1   4
ATOM      2  C   UNL     1       5.900   4.368  18.579  0.00  0.00    +0.000 C 
ATOM      3  O   UNL     1       6.096   4.885  19.678  0.00  0.00    +0.000 OA
ATOM      4  N   UNL     1       5.077   3.282  18.395  0.00  0.00    +0.000 N 
ATOM      5  H   UNL     1       4.802   3.081  17.433  0.00  0.00    +0.000 HD
BRANCH   2   6
ATOM      6  CA  UNL     1       6.615   4.820  17.296  0.00  0.00    +0.000 C 
BRANCH   6   7
ATOM      7  N   UNL     1       7.982   4.230  17.209  0.00  0.00    +0.000 NA
ATOM      8  H1  UNL     1       8.280   4.344  16.235  0.00  0.00    +0.000 HD
ATOM      9  H2  UNL     1       7.898   3.218  17.320  0.00  0.00    +0.000 HD
ENDBRANCH   6   7
BRANCH   6  10
ATOM     10  C   UNL     1       5.783   4.477  16.053  0.00  0.00    +0.000 C 
BRANCH  10  11
ATOM     11  O   UNL     1       6.126   3.169  15.581  0.00  0.00    +0.000 OA
ATOM     12  H   UNL     1       5.785   3.097  14.672  0.00  0.00    +0.000 HD
ENDBRANCH  10  11
ENDBRANCH   6  10
ENDBRANCH   2   6
ENDBRANCH   1   4
BRANCH   1  13
ATOM     13  C   UNL     1       2.755   2.856  19.155  0.00  0.00    +0.000 C 
BRANCH  13  14
ATOM     14  N   UNL     1       2.256   1.560  18.644  0.00  0.00    +0.000 NA
ATOM     15  H   UNL     1       2.306   0.864  19.389  0.00  0.00    +0.000 HD
ATOM     16  H   UNL     1       2.898   1.226  17.921  0.00  0.00    +0.000 HD
ENDBRANCH  13  14
BRANCH  13  17
ATOM     17  C   UNL     1       2.513   4.019  18.168  0.00  0.00    +0.000 C 
BRANCH  17  18
ATOM     18  C   UNL     1       2.332   5.379  18.803  0.00  0.00    +0.000 A 
ATOM     19  C   UNL     1       2.552   6.555  18.074  0.00  0.00    +0.000 A 
ATOM     20  C   UNL     1       2.335   7.804  18.662  0.00  0.00    +0.000 A 
ATOM     21  C   UNL     1       1.893   7.893  19.981  0.00  0.00    +0.000 A 
ATOM     22  C   UNL     1       1.673   6.729  20.714  0.00  0.00    +0.000 A 
ATOM     23  C   UNL     1       1.889   5.480  20.130  0.00  0.00    +0.000 A 
ENDBRANCH  17  18
ENDBRANCH  13  17
ENDBRANCH   1  13
TORSDOF 9
ENDMDL
