MODEL 1
REMARK VINA RESULT:      -8.7      0.000      0.000
REMARK  Name = 
REMARK  5 active torsions:
REMARK  status: ('A' for Active; 'I' for Inactive)
REMARK    1  A    between atoms: C_2  and  C_20
REMARK    2  A    between atoms: N_3  and  C_4
REMARK    3  A    between atoms: C_7  and  S_8
REMARK    4  A    between atoms: S_8  and  N_11
REMARK    5  A    between atoms: N_11  and  C_12
REMARK                            x       y       z     vdW  Elec       q    Type
REMARK                         _______ _______ _______ _____ _____    ______ ____
ROOT
ATOM      1  C   UNL     1       7.894   8.439  17.874  0.00  0.00    +0.000 A 
ATOM      2  C   UNL     1       8.339   7.331  18.602  0.00  0.00    +0.000 A 
ATOM      3  C   UNL     1       7.610   6.142  18.618  0.00  0.00    +0.000 A 
ATOM      4  C   UNL     1       6.405   6.059  17.925  0.00  0.00    +0.000 A 
ATOM      5  C   UNL     1       5.943   7.150  17.183  0.00  0.00    +0.000 A 
ATOM      6  C   UNL     1       6.684   8.342  17.169  0.00  0.00    +0.000 A 
ENDROOT
BRANCH   1   9
ATOM      7  O   UNL     1       9.174   9.930  20.065  0.00  0.00    +0.000 OA
ATOM      8  C   UNL     1       9.163  10.322  18.903  0.00  0.00    +0.000 C 
ATOM      9  N   UNL     1       8.608   9.660  17.820  0.00  0.00    +0.000 N 
ATOM     10  H   UNL     1       8.770  10.045  16.895  0.00  0.00    +0.000 HD
BRANCH   8  11
ATOM     11  C   UNL     1       9.810  11.632  18.646  0.00  0.00    +0.000 A 
ATOM     12  C   UNL     1      10.783  11.691  17.635  0.00  0.00    +0.000 A 
ATOM     13  C   UNL     1      11.397  12.902  17.335  0.00  0.00    +0.000 A 
ATOM     14  F   UNL     1      12.333  12.929  16.375  0.00  0.00    +0.000 F 
ATOM     15  C   UNL     1      11.046  14.064  18.020  0.00  0.00    +0.000 A 
ATOM     16 CL   UNL     1      11.795  15.565  17.640  0.00  0.00    +0.000 Cl
ATOM     17  C   UNL     1      10.079  14.015  19.022  0.00  0.00    +0.000 A 
ATOM     18  C   UNL     1       9.471  12.798  19.332  0.00  0.00    +0.000 A 
ATOM     19  F   UNL     1       8.546  12.779  20.304  0.00  0.00    +0.000 F 
ENDBRANCH   8  11
ENDBRANCH   1   9
BRANCH   4  20
ATOM     20  S   UNL     1       5.500   4.525  17.959  0.00  0.00    +0.000 S 
ATOM     21  O   UNL     1       5.845   3.795  16.758  0.00  0.00    +0.000 OA
ATOM     22  O   UNL     1       5.669   3.936  19.269  0.00  0.00    +0.000 OA
BRANCH  20  23
ATOM     23  N   UNL     1       3.892   4.996  17.770  0.00  0.00    +0.000 N 
ATOM     24  H   UNL     1       3.777   5.983  17.556  0.00  0.00    +0.000 HD
BRANCH  23  25
ATOM     25  C   UNL     1       2.869   4.331  18.494  0.00  0.00    +0.000 A 
ATOM     26  C   UNL     1       2.373   3.111  18.034  0.00  0.00    +0.000 A 
ATOM     27  C   UNL     1       1.336   2.479  18.723  0.00  0.00    +0.000 A 
ATOM     28  C   UNL     1       0.816   3.054  19.881  0.00  0.00    +0.000 A 
ATOM     29  C   UNL     1       1.322   4.270  20.345  0.00  0.00    +0.000 A 
ATOM     30  C   UNL     1       2.340   4.917  19.643  0.00  0.00    +0.000 A 
ENDBRANCH  23  25
ENDBRANCH  20  23
ENDBRANCH   4  20
TORSDOF 5
ENDMDL
MODEL 2
REMARK VINA RESULT:      -8.7      1.006      1.407
REMARK  Name = 
REMARK  5 active torsions:
REMARK  status: ('A' for Active; 'I' for Inactive)
REMARK    1  A    between atoms: C_2  and  C_20
REMARK    2  A    between atoms: N_3  and  C_4
REMARK    3  A    between atoms: C_7  and  S_8
REMARK    4  A    between atoms: S_8  and  N_11
REMARK    5  A    between atoms: N_11  and  C_12
REMARK                            x       y       z     vdW  Elec       q    Type
REMARK                         _______ _______ _______ _____ _____    ______ ____
ROOT
ATOM      1  C   UNL     1       7.910   8.444  17.823  0.00  0.00    +0.000 A 
ATOM      2  C   UNL     1       8.339   7.358  18.591  0.00  0.00    +0.000 A 
ATOM      3  C   UNL     1       7.600   6.178  18.645  0.00  0.00    +0.000 A 
ATOM      4  C   UNL     1       6.398   6.081  17.948  0.00  0.00    +0.000 A 
ATOM      5  C   UNL     1       5.950   7.150  17.165  0.00  0.00    +0.000 A 
ATOM      6  C   UNL     1       6.703   8.334  17.113  0.00  0.00    +0.000 A 
ENDROOT
BRANCH   1   9
ATOM      7  O   UNL     1       9.116  10.044  19.978  0.00  0.00    +0.000 OA
ATOM      8  C   UNL     1       9.153  10.372  18.797  0.00  0.00    +0.000 C 
ATOM      9  N   UNL     1       8.635   9.655  17.730  0.00  0.00    +0.000 N 
ATOM     10  H   UNL     1       8.836   9.988  16.793  0.00  0.00    +0.000 HD
BRANCH   8  11
ATOM     11  C   UNL     1       9.821  11.662  18.494  0.00  0.00    +0.000 A 
ATOM     12  C   UNL     1       9.004  12.762  18.187  0.00  0.00    +0.000 A 
ATOM     13  C   UNL     1       9.580  14.000  17.925  0.00  0.00    +0.000 A 
ATOM     14  F   UNL     1       8.778  15.032  17.621  0.00  0.00    +0.000 F 
ATOM     15  C   UNL     1      10.963  14.165  17.978  0.00  0.00    +0.000 A 
ATOM     16 CL   UNL     1      11.676  15.699  17.667  0.00  0.00    +0.000 Cl
ATOM     17  C   UNL     1      11.781  13.079  18.285  0.00  0.00    +0.000 A 
ATOM     18  C   UNL     1      11.205  11.834  18.535  0.00  0.00    +0.000 A 
ATOM     19  F   UNL     1      12.016  10.805  18.825  0.00  0.00    +0.000 F 
ENDBRANCH   8  11
ENDBRANCH   1   9
BRANCH   4  20
ATOM     20  S   UNL     1       5.478   4.557  18.030  0.00  0.00    +0.000 S 
ATOM     21  O   UNL     1       5.765   3.816  16.822  0.00  0.00    +0.000 OA
ATOM     22  O   UNL     1       5.694   3.976  19.337  0.00  0.00    +0.000 OA
BRANCH  20  23
ATOM     23  N   UNL     1       3.869   5.046  17.903  0.00  0.00    +0.000 N 
ATOM     24  H   UNL     1       3.753   6.050  17.803  0.00  0.00    +0.000 HD
BRANCH  23  25
ATOM     25  C   UNL     1       2.850   4.302  18.552  0.00  0.00    +0.000 A 
ATOM     26  C   UNL     1       2.434   3.081  18.019  0.00  0.00    +0.000 A 
ATOM     27  C   UNL     1       1.402   2.370  18.633  0.00  0.00    +0.000 A 
ATOM     28  C   UNL     1       0.804   2.869  19.789  0.00  0.00    +0.000 A 
ATOM     29  C   UNL     1       1.230   4.085  20.327  0.00  0.00    +0.000 A 
ATOM     30  C   UNL     1       2.244   4.810  19.699  0.00  0.00    +0.000 A 
ENDBRANCH  23  25
ENDBRANCH  20  23
ENDBRANCH   4  20
TORSDOF 5
ENDMDL
MODEL 3
REMARK VINA RESULT:      -8.6      0.672      1.451
REMARK  Name = 
REMARK  5 active torsions:
REMARK  status: ('A' for Active; 'I' for Inactive)
REMARK    1  A    between atoms: C_2  and  C_20
REMARK    2  A    between atoms: N_3  and  C_4
REMARK    3  A    between atoms: C_7  and  S_8
REMARK    4  A    between atoms: S_8  and  N_11
REMARK    5  A    between atoms: N_11  and  C_12
REMARK                            x       y       z     vdW  Elec       q    Type
REMARK                         _______ _______ _______ _____ _____    ______ ____
ROOT
ATOM      1  C   UNL     1       8.025   8.423  17.985  0.00  0.00    +0.000 A 
ATOM      2  C   UNL     1       6.863   8.343  17.213  0.00  0.00    +0.000 A 
ATOM      3  C   UNL     1       6.085   7.186  17.202  0.00  0.00    +0.000 A 
ATOM      4  C   UNL     1       6.483   6.078  17.946  0.00  0.00    +0.000 A 
ATOM      5  C   UNL     1       7.637   6.135  18.733  0.00  0.00    +0.000 A 
ATOM      6  C   UNL     1       8.412   7.305  18.741  0.00  0.00    +0.000 A 
ENDROOT
BRANCH   1   9
ATOM      7  O   UNL     1       8.962   9.921  20.339  0.00  0.00    +0.000 OA
ATOM      8  C   UNL     1       9.218  10.253  19.186  0.00  0.00    +0.000 C 
ATOM      9  N   UNL     1       8.837   9.582  18.036  0.00  0.00    +0.000 N 
ATOM     10  H   UNL     1       9.213   9.906  17.151  0.00  0.00    +0.000 HD
BRANCH   8  11
ATOM     11  C   UNL     1      10.013  11.494  19.022  0.00  0.00    +0.000 A 
ATOM     12  C   UNL     1      10.403  11.851  17.721  0.00  0.00    +0.000 A 
ATOM     13  C   UNL     1      11.124  13.022  17.510  0.00  0.00    +0.000 A 
ATOM     14  F   UNL     1      11.496  13.333  16.259  0.00  0.00    +0.000 F 
ATOM     15  C   UNL     1      11.453  13.854  18.579  0.00  0.00    +0.000 A 
ATOM     16 CL   UNL     1      12.333  15.309  18.318  0.00  0.00    +0.000 Cl
ATOM     17  C   UNL     1      11.068  13.509  19.873  0.00  0.00    +0.000 A 
ATOM     18  C   UNL     1      10.356  12.329  20.086  0.00  0.00    +0.000 A 
ATOM     19  F   UNL     1      10.000  12.019  21.343  0.00  0.00    +0.000 F 
ENDBRANCH   8  11
ENDBRANCH   1   9
BRANCH   4  20
ATOM     20  S   UNL     1       5.465   4.615  17.917  0.00  0.00    +0.000 S 
ATOM     21  O   UNL     1       5.756   3.913  16.686  0.00  0.00    +0.000 OA
ATOM     22  O   UNL     1       5.587   3.961  19.201  0.00  0.00    +0.000 OA
BRANCH  20  23
ATOM     23  N   UNL     1       3.898   5.214  17.749  0.00  0.00    +0.000 N 
ATOM     24  H   UNL     1       3.860   6.185  17.450  0.00  0.00    +0.000 HD
BRANCH  23  25
ATOM     25  C   UNL     1       2.856   4.712  18.571  0.00  0.00    +0.000 A 
ATOM     26  C   UNL     1       2.561   5.342  19.781  0.00  0.00    +0.000 A 
ATOM     27  C   UNL     1       1.566   4.822  20.610  0.00  0.00    +0.000 A 
ATOM     28  C   UNL     1       0.852   3.690  20.218  0.00  0.00    +0.000 A 
ATOM     29  C   UNL     1       1.142   3.069  19.002  0.00  0.00    +0.000 A 
ATOM     30  C   UNL     1       2.155   3.572  18.183  0.00  0.00    +0.000 A 
ENDBRANCH  23  25
ENDBRANCH  20  23
ENDBRANCH   4  20
TORSDOF 5
ENDMDL
MODEL 4
REMARK VINA RESULT:      -8.6      1.083      1.702
REMARK  Name = 
REMARK  5 active torsions:
REMARK  status: ('A' for Active; 'I' for Inactive)
REMARK    1  A    between atoms: C_2  and  C_20
REMARK    2  A    between atoms: N_3  and  C_4
REMARK    3  A    between atoms: C_7  and  S_8
REMARK    4  A    between atoms: S_8  and  N_11
REMARK    5  A    between atoms: N_11  and  C_12
REMARK                            x       y       z     vdW  Elec       q    Type
REMARK                         _______ _______ _______ _____ _____    ______ ____
ROOT
ATOM      1  C   UNL     1       7.958   8.512  17.870  0.00  0.00    +0.000 A 
ATOM      2  C   UNL     1       8.396   7.421  18.625  0.00  0.00    +0.000 A 
ATOM      3  C   UNL     1       7.678   6.226  18.645  0.00  0.00    +0.000 A 
ATOM      4  C   UNL     1       6.489   6.121  17.928  0.00  0.00    +0.000 A 
ATOM      5  C   UNL     1       6.033   7.195  17.158  0.00  0.00    +0.000 A 
ATOM      6  C   UNL     1       6.764   8.393  17.140  0.00  0.00    +0.000 A 
ENDROOT
BRANCH   1   9
ATOM      7  O   UNL     1       9.068  10.113  20.075  0.00  0.00    +0.000 OA
ATOM      8  C   UNL     1       9.134  10.454  18.899  0.00  0.00    +0.000 C 
ATOM      9  N   UNL     1       8.661   9.739  17.811  0.00  0.00    +0.000 N 
ATOM     10  H   UNL     1       8.883  10.086  16.884  0.00  0.00    +0.000 HD
BRANCH   8  11
ATOM     11  C   UNL     1       9.784  11.760  18.630  0.00  0.00    +0.000 A 
ATOM     12  C   UNL     1       8.959  12.835  18.260  0.00  0.00    +0.000 A 
ATOM     13  C   UNL     1       9.517  14.087  18.025  0.00  0.00    +0.000 A 
ATOM     14  F   UNL     1       8.709  15.094  17.660  0.00  0.00    +0.000 F 
ATOM     15  C   UNL     1      10.889  14.290  18.167  0.00  0.00    +0.000 A 
ATOM     16 CL   UNL     1      11.578  15.842  17.891  0.00  0.00    +0.000 Cl
ATOM     17  C   UNL     1      11.714  13.230  18.537  0.00  0.00    +0.000 A 
ATOM     18  C   UNL     1      11.157  11.971  18.760  0.00  0.00    +0.000 A 
ATOM     19  F   UNL     1      11.975  10.967  19.112  0.00  0.00    +0.000 F 
ENDBRANCH   8  11
ENDBRANCH   1   9
BRANCH   4  20
ATOM     20  S   UNL     1       5.597   4.578  17.968  0.00  0.00    +0.000 S 
ATOM     21  O   UNL     1       6.021   3.807  16.820  0.00  0.00    +0.000 OA
ATOM     22  O   UNL     1       5.691   4.043  19.308  0.00  0.00    +0.000 OA
BRANCH  20  23
ATOM     23  N   UNL     1       4.000   5.024  17.663  0.00  0.00    +0.000 N 
ATOM     24  H   UNL     1       3.909   5.880  17.123  0.00  0.00    +0.000 HD
BRANCH  23  25
ATOM     25  C   UNL     1       2.982   4.694  18.595  0.00  0.00    +0.000 A 
ATOM     26  C   UNL     1       2.727   5.542  19.674  0.00  0.00    +0.000 A 
ATOM     27  C   UNL     1       1.755   5.195  20.615  0.00  0.00    +0.000 A 
ATOM     28  C   UNL     1       1.026   4.017  20.462  0.00  0.00    +0.000 A 
ATOM     29  C   UNL     1       1.277   3.176  19.377  0.00  0.00    +0.000 A 
ATOM     30  C   UNL     1       2.266   3.508  18.449  0.00  0.00    +0.000 A 
ENDBRANCH  23  25
ENDBRANCH  20  23
ENDBRANCH   4  20
TORSDOF 5
ENDMDL
MODEL 5
REMARK VINA RESULT:      -8.5      5.953      8.425
REMARK  Name = 
REMARK  5 active torsions:
REMARK  status: ('A' for Active; 'I' for Inactive)
REMARK    1  A    between atoms: C_2  and  C_20
REMARK    2  A    between atoms: N_3  and  C_4
REMARK    3  A    between atoms: C_7  and  S_8
REMARK    4  A    between atoms: S_8  and  N_11
REMARK    5  A    between atoms: N_11  and  C_12
REMARK                            x       y       z     vdW  Elec       q    Type
REMARK                         _______ _______ _______ _____ _____    ______ ____
ROOT
ATOM      1  C   UNL     1       1.875   7.337  20.046  0.00  0.00    +0.000 A 
ATOM      2  C   UNL     1       1.834   6.201  20.859  0.00  0.00    +0.000 A 
ATOM      3  C   UNL     1       2.375   4.990  20.429  0.00  0.00    +0.000 A 
ATOM      4  C   UNL     1       2.941   4.896  19.160  0.00  0.00    +0.000 A 
ATOM      5  C   UNL     1       3.003   6.020  18.331  0.00  0.00    +0.000 A 
ATOM      6  C   UNL     1       2.459   7.236  18.773  0.00  0.00    +0.000 A 
ENDROOT
BRANCH   1   9
ATOM      7  O   UNL     1      -0.611   7.913  21.510  0.00  0.00    +0.000 OA
ATOM      8  C   UNL     1       0.151   8.787  21.113  0.00  0.00    +0.000 C 
ATOM      9  N   UNL     1       1.350   8.589  20.447  0.00  0.00    +0.000 N 
ATOM     10  H   UNL     1       1.937   9.398  20.276  0.00  0.00    +0.000 HD
BRANCH   8  11
ATOM     11  C   UNL     1      -0.259  10.188  21.379  0.00  0.00    +0.000 A 
ATOM     12  C   UNL     1      -0.337  11.063  20.284  0.00  0.00    +0.000 A 
ATOM     13  C   UNL     1      -0.745  12.379  20.477  0.00  0.00    +0.000 A 
ATOM     14  F   UNL     1      -0.797  13.199  19.416  0.00  0.00    +0.000 F 
ATOM     15  C   UNL     1      -1.094  12.835  21.747  0.00  0.00    +0.000 A 
ATOM     16 CL   UNL     1      -1.613  14.457  21.985  0.00  0.00    +0.000 Cl
ATOM     17  C   UNL     1      -1.023  11.971  22.839  0.00  0.00    +0.000 A 
ATOM     18  C   UNL     1      -0.601  10.655  22.648  0.00  0.00    +0.000 A 
ATOM     19  F   UNL     1      -0.539   9.847  23.718  0.00  0.00    +0.000 F 
ENDBRANCH   8  11
ENDBRANCH   1   9
BRANCH   4  20
ATOM     20  S   UNL     1       3.631   3.336  18.642  0.00  0.00    +0.000 S 
ATOM     21  O   UNL     1       3.139   2.325  19.553  0.00  0.00    +0.000 OA
ATOM     22  O   UNL     1       3.439   3.216  17.214  0.00  0.00    +0.000 OA
BRANCH  20  23
ATOM     23  N   UNL     1       5.277   3.492  18.967  0.00  0.00    +0.000 N 
ATOM     24  H   UNL     1       5.539   3.204  19.906  0.00  0.00    +0.000 HD
BRANCH  23  25
ATOM     25  C   UNL     1       6.031   4.511  18.330  0.00  0.00    +0.000 A 
ATOM     26  C   UNL     1       6.679   5.480  19.099  0.00  0.00    +0.000 A 
ATOM     27  C   UNL     1       7.384   6.507  18.471  0.00  0.00    +0.000 A 
ATOM     28  C   UNL     1       7.461   6.551  17.079  0.00  0.00    +0.000 A 
ATOM     29  C   UNL     1       6.822   5.575  16.314  0.00  0.00    +0.000 A 
ATOM     30  C   UNL     1       6.093   4.561  16.939  0.00  0.00    +0.000 A 
ENDBRANCH  23  25
ENDBRANCH  20  23
ENDBRANCH   4  20
TORSDOF 5
ENDMDL
MODEL 6
REMARK VINA RESULT:      -8.5      6.018      8.447
REMARK  Name = 
REMARK  5 active torsions:
REMARK  status: ('A' for Active; 'I' for Inactive)
REMARK    1  A    between atoms: C_2  and  C_20
REMARK    2  A    between atoms: N_3  and  C_4
REMARK    3  A    between atoms: C_7  and  S_8
REMARK    4  A    between atoms: S_8  and  N_11
REMARK    5  A    between atoms: N_11  and  C_12
REMARK                            x       y       z     vdW  Elec       q    Type
REMARK                         _______ _______ _______ _____ _____    ______ ____
ROOT
ATOM      1  C   UNL     1       1.875   7.360  19.951  0.00  0.00    +0.000 A 
ATOM      2  C   UNL     1       2.438   7.174  18.685  0.00  0.00    +0.000 A 
ATOM      3  C   UNL     1       2.955   5.937  18.303  0.00  0.00    +0.000 A 
ATOM      4  C   UNL     1       2.941   4.873  19.202  0.00  0.00    +0.000 A 
ATOM      5  C   UNL     1       2.376   5.031  20.471  0.00  0.00    +0.000 A 
ATOM      6  C   UNL     1       1.854   6.279  20.846  0.00  0.00    +0.000 A 
ENDROOT
BRANCH   1   9
ATOM      7  O   UNL     1      -0.579   7.859  21.497  0.00  0.00    +0.000 OA
ATOM      8  C   UNL     1       0.147   8.756  21.081  0.00  0.00    +0.000 C 
ATOM      9  N   UNL     1       1.328   8.595  20.375  0.00  0.00    +0.000 N 
ATOM     10  H   UNL     1       1.887   9.421  20.191  0.00  0.00    +0.000 HD
BRANCH   8  11
ATOM     11  C   UNL     1      -0.293  10.143  21.368  0.00  0.00    +0.000 A 
ATOM     12  C   UNL     1      -0.457  11.014  20.279  0.00  0.00    +0.000 A 
ATOM     13  C   UNL     1      -0.896  12.316  20.493  0.00  0.00    +0.000 A 
ATOM     14  F   UNL     1      -1.031  13.133  19.437  0.00  0.00    +0.000 F 
ATOM     15  C   UNL     1      -1.191  12.763  21.781  0.00  0.00    +0.000 A 
ATOM     16 CL   UNL     1      -1.748  14.369  22.045  0.00  0.00    +0.000 Cl
ATOM     17  C   UNL     1      -1.035  11.904  22.867  0.00  0.00    +0.000 A 
ATOM     18  C   UNL     1      -0.582  10.602  22.654  0.00  0.00    +0.000 A 
ATOM     19  F   UNL     1      -0.437   9.797  23.718  0.00  0.00    +0.000 F 
ENDBRANCH   8  11
ENDBRANCH   1   9
BRANCH   4  20
ATOM     20  S   UNL     1       3.603   3.302  18.683  0.00  0.00    +0.000 S 
ATOM     21  O   UNL     1       3.137   2.307  19.623  0.00  0.00    +0.000 OA
ATOM     22  O   UNL     1       3.362   3.164  17.263  0.00  0.00    +0.000 OA
BRANCH  20  23
ATOM     23  N   UNL     1       5.261   3.451  18.949  0.00  0.00    +0.000 N 
ATOM     24  H   UNL     1       5.559   3.129  19.866  0.00  0.00    +0.000 HD
BRANCH  23  25
ATOM     25  C   UNL     1       5.987   4.497  18.323  0.00  0.00    +0.000 A 
ATOM     26  C   UNL     1       6.062   4.555  16.931  0.00  0.00    +0.000 A 
ATOM     27  C   UNL     1       6.813   5.559  16.317  0.00  0.00    +0.000 A 
ATOM     28  C   UNL     1       7.466   6.515  17.093  0.00  0.00    +0.000 A 
ATOM     29  C   UNL     1       7.380   6.461  18.485  0.00  0.00    +0.000 A 
ATOM     30  C   UNL     1       6.652   5.442  19.103  0.00  0.00    +0.000 A 
ENDBRANCH  23  25
ENDBRANCH  20  23
ENDBRANCH   4  20
TORSDOF 5
ENDMDL
MODEL 7
REMARK VINA RESULT:      -8.4      6.419      8.117
REMARK  Name = 
REMARK  5 active torsions:
REMARK  status: ('A' for Active; 'I' for Inactive)
REMARK    1  A    between atoms: C_2  and  C_20
REMARK    2  A    between atoms: N_3  and  C_4
REMARK    3  A    between atoms: C_7  and  S_8
REMARK    4  A    between atoms: S_8  and  N_11
REMARK    5  A    between atoms: N_11  and  C_12
REMARK                            x       y       z     vdW  Elec       q    Type
REMARK                         _______ _______ _______ _____ _____    ______ ____
ROOT
ATOM      1  C   UNL     1       2.358   7.514  18.396  0.00  0.00    +0.000 A 
ATOM      2  C   UNL     1       3.293   7.495  17.357  0.00  0.00    +0.000 A 
ATOM      3  C   UNL     1       4.448   6.718  17.442  0.00  0.00    +0.000 A 
ATOM      4  C   UNL     1       4.695   5.970  18.591  0.00  0.00    +0.000 A 
ATOM      5  C   UNL     1       3.772   5.965  19.641  0.00  0.00    +0.000 A 
ATOM      6  C   UNL     1       2.610   6.748  19.545  0.00  0.00    +0.000 A 
ENDROOT
BRANCH   1   9
ATOM      7  O   UNL     1       2.042  10.421  18.068  0.00  0.00    +0.000 OA
ATOM      8  C   UNL     1       1.095   9.656  18.216  0.00  0.00    +0.000 C 
ATOM      9  N   UNL     1       1.168   8.278  18.345  0.00  0.00    +0.000 N 
ATOM     10  H   UNL     1       0.298   7.756  18.348  0.00  0.00    +0.000 HD
BRANCH   8  11
ATOM     11  C   UNL     1      -0.251  10.276  18.258  0.00  0.00    +0.000 A 
ATOM     12  C   UNL     1      -1.230   9.769  17.388  0.00  0.00    +0.000 A 
ATOM     13  C   UNL     1      -2.517  10.297  17.410  0.00  0.00    +0.000 A 
ATOM     14  F   UNL     1      -3.430   9.804  16.559  0.00  0.00    +0.000 F 
ATOM     15  C   UNL     1      -2.850  11.318  18.299  0.00  0.00    +0.000 A 
ATOM     16 CL   UNL     1      -4.444  11.962  18.337  0.00  0.00    +0.000 Cl
ATOM     17  C   UNL     1      -1.885  11.824  19.169  0.00  0.00    +0.000 A 
ATOM     18  C   UNL     1      -0.592  11.304  19.138  0.00  0.00    +0.000 A 
ATOM     19  F   UNL     1       0.318  11.813  19.983  0.00  0.00    +0.000 F 
ENDBRANCH   8  11
ENDBRANCH   1   9
BRANCH   4  20
ATOM     20  S   UNL     1       6.176   4.982  18.668  0.00  0.00    +0.000 S 
ATOM     21  O   UNL     1       6.799   5.039  17.364  0.00  0.00    +0.000 OA
ATOM     22  O   UNL     1       6.900   5.356  19.863  0.00  0.00    +0.000 OA
BRANCH  20  23
ATOM     23  N   UNL     1       5.604   3.405  18.841  0.00  0.00    +0.000 N 
ATOM     24  H   UNL     1       6.266   2.694  18.540  0.00  0.00    +0.000 HD
BRANCH  23  25
ATOM     25  C   UNL     1       4.216   3.139  18.724  0.00  0.00    +0.000 A 
ATOM     26  C   UNL     1       3.484   2.759  19.850  0.00  0.00    +0.000 A 
ATOM     27  C   UNL     1       2.127   2.455  19.727  0.00  0.00    +0.000 A 
ATOM     28  C   UNL     1       1.501   2.554  18.485  0.00  0.00    +0.000 A 
ATOM     29  C   UNL     1       2.233   2.944  17.363  0.00  0.00    +0.000 A 
ATOM     30  C   UNL     1       3.596   3.223  17.479  0.00  0.00    +0.000 A 
ENDBRANCH  23  25
ENDBRANCH  20  23
ENDBRANCH   4  20
TORSDOF 5
ENDMDL
MODEL 8
REMARK VINA RESULT:      -8.4      7.107      8.811
REMARK  Name = 
REMARK  5 active torsions:
REMARK  status: ('A' for Active; 'I' for Inactive)
REMARK    1  A    between atoms: C_2  and  C_20
REMARK    2  A    between atoms: N_3  and  C_4
REMARK    3  A    between atoms: C_7  and  S_8
REMARK    4  A    between atoms: S_8  and  N_11
REMARK    5  A    between atoms: N_11  and  C_12
REMARK                            x       y       z     vdW  Elec       q    Type
REMARK                         _______ _______ _______ _____ _____    ______ ____
ROOT
ATOM      1  C   UNL     1       1.088   8.897  19.645  0.00  0.00    +0.000 A 
ATOM      2  C   UNL     1       1.623   9.128  18.374  0.00  0.00    +0.000 A 
ATOM      3  C   UNL     1       2.612   8.299  17.849  0.00  0.00    +0.000 A 
ATOM      4  C   UNL     1       3.101   7.238  18.607  0.00  0.00    +0.000 A 
ATOM      5  C   UNL     1       2.577   6.979  19.877  0.00  0.00    +0.000 A 
ATOM      6  C   UNL     1       1.578   7.818  20.398  0.00  0.00    +0.000 A 
ENDROOT
BRANCH   1   9
ATOM      7  O   UNL     1       1.364  11.349  21.248  0.00  0.00    +0.000 OA
ATOM      8  C   UNL     1       0.281  10.839  20.983  0.00  0.00    +0.000 C 
ATOM      9  N   UNL     1       0.075   9.706  20.212  0.00  0.00    +0.000 N 
ATOM     10  H   UNL     1      -0.881   9.459  19.979  0.00  0.00    +0.000 HD
BRANCH   8  11
ATOM     11  C   UNL     1      -0.916  11.508  21.548  0.00  0.00    +0.000 A 
ATOM     12  C   UNL     1      -1.601  12.420  20.729  0.00  0.00    +0.000 A 
ATOM     13  C   UNL     1      -2.747  13.051  21.202  0.00  0.00    +0.000 A 
ATOM     14  F   UNL     1      -3.375  13.928  20.404  0.00  0.00    +0.000 F 
ATOM     15  C   UNL     1      -3.232  12.777  22.480  0.00  0.00    +0.000 A 
ATOM     16 CL   UNL     1      -4.656  13.546  23.061  0.00  0.00    +0.000 Cl
ATOM     17  C   UNL     1      -2.560  11.871  23.298  0.00  0.00    +0.000 A 
ATOM     18  C   UNL     1      -1.404  11.247  22.829  0.00  0.00    +0.000 A 
ATOM     19  F   UNL     1      -0.775  10.382  23.640  0.00  0.00    +0.000 F 
ENDBRANCH   8  11
ENDBRANCH   1   9
BRANCH   4  20
ATOM     20  S   UNL     1       4.361   6.190  17.906  0.00  0.00    +0.000 S 
ATOM     21  O   UNL     1       5.074   6.976  16.923  0.00  0.00    +0.000 OA
ATOM     22  O   UNL     1       5.056   5.538  18.994  0.00  0.00    +0.000 OA
BRANCH  20  23
ATOM     23  N   UNL     1       3.492   5.037  17.036  0.00  0.00    +0.000 N 
ATOM     24  H   UNL     1       3.043   5.405  16.202  0.00  0.00    +0.000 HD
BRANCH  23  25
ATOM     25  C   UNL     1       2.886   3.947  17.714  0.00  0.00    +0.000 A 
ATOM     26  C   UNL     1       3.625   2.793  17.974  0.00  0.00    +0.000 A 
ATOM     27  C   UNL     1       3.016   1.705  18.602  0.00  0.00    +0.000 A 
ATOM     28  C   UNL     1       1.679   1.782  18.989  0.00  0.00    +0.000 A 
ATOM     29  C   UNL     1       0.945   2.942  18.736  0.00  0.00    +0.000 A 
ATOM     30  C   UNL     1       1.544   4.022  18.085  0.00  0.00    +0.000 A 
ENDBRANCH  23  25
ENDBRANCH  20  23
ENDBRANCH   4  20
TORSDOF 5
ENDMDL
MODEL 9
REMARK VINA RESULT:      -8.4      7.147      8.744
REMARK  Name = 
REMARK  5 active torsions:
REMARK  status: ('A' for Active; 'I' for Inactive)
REMARK    1  A    between atoms: C_2  and  C_20
REMARK    2  A    between atoms: N_3  and  C_4
REMARK    3  A    between atoms: C_7  and  S_8
REMARK    4  A    between atoms: S_8  and  N_11
REMARK    5  A    between atoms: N_11  and  C_12
REMARK                            x       y       z     vdW  Elec       q    Type
REMARK                         _______ _______ _______ _____ _____    ______ ____
ROOT
ATOM      1  C   UNL     1       1.080   8.829  19.647  0.00  0.00    +0.000 A 
ATOM      2  C   UNL     1       1.557   9.005  18.345  0.00  0.00    +0.000 A 
ATOM      3  C   UNL     1       2.518   8.149  17.810  0.00  0.00    +0.000 A 
ATOM      4  C   UNL     1       3.037   7.118  18.588  0.00  0.00    +0.000 A 
ATOM      5  C   UNL     1       2.571   6.915  19.891  0.00  0.00    +0.000 A 
ATOM      6  C   UNL     1       1.601   7.780  20.421  0.00  0.00    +0.000 A 
ENDROOT
BRANCH   1   9
ATOM      7  O   UNL     1       1.445  11.253  21.276  0.00  0.00    +0.000 OA
ATOM      8  C   UNL     1       0.344  10.783  21.009  0.00  0.00    +0.000 C 
ATOM      9  N   UNL     1       0.097   9.667  20.226  0.00  0.00    +0.000 N 
ATOM     10  H   UNL     1      -0.867   9.455  19.994  0.00  0.00    +0.000 HD
BRANCH   8  11
ATOM     11  C   UNL     1      -0.828  11.487  21.585  0.00  0.00    +0.000 A 
ATOM     12  C   UNL     1      -1.460  12.458  20.792  0.00  0.00    +0.000 A 
ATOM     13  C   UNL     1      -2.581  13.124  21.275  0.00  0.00    +0.000 A 
ATOM     14  F   UNL     1      -3.158  14.057  20.502  0.00  0.00    +0.000 F 
ATOM     15  C   UNL     1      -3.094  12.828  22.537  0.00  0.00    +0.000 A 
ATOM     16 CL   UNL     1      -4.488  13.642  23.130  0.00  0.00    +0.000 Cl
ATOM     17  C   UNL     1      -2.474  11.864  23.330  0.00  0.00    +0.000 A 
ATOM     18  C   UNL     1      -1.343  11.204  22.851  0.00  0.00    +0.000 A 
ATOM     19  F   UNL     1      -0.764  10.282  23.636  0.00  0.00    +0.000 F 
ENDBRANCH   8  11
ENDBRANCH   1   9
BRANCH   4  20
ATOM     20  S   UNL     1       4.260   6.036  17.874  0.00  0.00    +0.000 S 
ATOM     21  O   UNL     1       4.601   6.572  16.574  0.00  0.00    +0.000 OA
ATOM     22  O   UNL     1       5.275   5.787  18.873  0.00  0.00    +0.000 OA
BRANCH  20  23
ATOM     23  N   UNL     1       3.415   4.607  17.579  0.00  0.00    +0.000 N 
ATOM     24  H   UNL     1       3.012   4.554  16.647  0.00  0.00    +0.000 HD
BRANCH  23  25
ATOM     25  C   UNL     1       2.759   3.939  18.645  0.00  0.00    +0.000 A 
ATOM     26  C   UNL     1       1.369   3.815  18.637  0.00  0.00    +0.000 A 
ATOM     27  C   UNL     1       0.721   3.196  19.707  0.00  0.00    +0.000 A 
ATOM     28  C   UNL     1       1.463   2.683  20.769  0.00  0.00    +0.000 A 
ATOM     29  C   UNL     1       2.854   2.799  20.770  0.00  0.00    +0.000 A 
ATOM     30  C   UNL     1       3.503   3.441  19.713  0.00  0.00    +0.000 A 
ENDBRANCH  23  25
ENDBRANCH  20  23
ENDBRANCH   4  20
TORSDOF 5
ENDMDL
