MODEL 1
REMARK VINA RESULT:      -8.6      0.000      0.000
REMARK  Name = 
REMARK  11 active torsions:
REMARK  status: ('A' for Active; 'I' for Inactive)
REMARK    1  A    between atoms: C_1  and  C_2
REMARK    2  A    between atoms: C_2  and  C_28
REMARK    3  A    between atoms: N_3  and  N_4
REMARK    4  A    between atoms: C_10  and  N_11
REMARK    5  A    between atoms: N_11  and  C_12
REMARK    6  A    between atoms: C_16  and  N_17
REMARK    7  A    between atoms: C_18  and  C_20
REMARK    8  A    between atoms: C_21  and  C_22
REMARK    9  A    between atoms: C_22  and  N_23
REMARK   10  A    between atoms: N_23  and  C_24
REMARK   11  A    between atoms: N_23  and  C_25
REMARK                            x       y       z     vdW  Elec       q    Type
REMARK                         _______ _______ _______ _____ _____    ______ ____
ROOT
ATOM      1  N   UNL     1       1.494   8.960  19.436  0.00  0.00    +0.000 N 
ATOM      2  C   UNL     1       1.753   7.589  19.604  0.00  0.00    +0.000 A 
ATOM      3  N   UNL     1       1.429   6.962  20.746  0.00  0.00    +0.000 NA
ATOM      4  C   UNL     1       1.793   5.670  20.856  0.00  0.00    +0.000 A 
ATOM      5  C   UNL     1       2.427   4.965  19.860  0.00  0.00    +0.000 A 
ATOM      6 CL   UNL     1       2.839   3.313  20.089  0.00  0.00    +0.000 Cl
ATOM      7  C   UNL     1       2.680   5.663  18.690  0.00  0.00    +0.000 A 
ATOM      8  N   UNL     1       2.388   6.980  18.588  0.00  0.00    +0.000 NA
ATOM      9  H   UNL     1       2.374   9.405  19.199  0.00  0.00    +0.000 HD
ENDROOT
BRANCH   1  12
ATOM     10  C   UNL     1       1.267  11.770  19.258  0.00  0.00    +0.000 C 
ATOM     11  C   UNL     1       0.417  10.863  20.127  0.00  0.00    +0.000 C 
ATOM     12  N   UNL     1       0.579   9.574  20.225  0.00  0.00    +0.000 NA
BRANCH  11  13
ATOM     13  C   UNL     1      -0.724  11.479  20.893  0.00  0.00    +0.000 A 
ATOM     14  C   UNL     1      -0.739  11.359  22.295  0.00  0.00    +0.000 A 
ATOM     15  C   UNL     1      -1.810  11.862  23.042  0.00  0.00    +0.000 A 
ATOM     16  C   UNL     1      -2.867  12.485  22.391  0.00  0.00    +0.000 A 
ATOM     17  F   UNL     1      -3.897  12.958  23.104  0.00  0.00    +0.000 F 
ATOM     18  C   UNL     1      -2.873  12.620  21.011  0.00  0.00    +0.000 A 
ATOM     19  C   UNL     1      -1.804  12.117  20.271  0.00  0.00    +0.000 A 
ATOM     20  F   UNL     1      -1.867  12.260  18.939  0.00  0.00    +0.000 F 
ENDBRANCH  11  13
ENDBRANCH   1  12
BRANCH   7  21
ATOM     21  N   UNL     1       3.219   4.999  17.559  0.00  0.00    +0.000 N 
ATOM     22  H   UNL     1       2.655   4.213  17.264  0.00  0.00    +0.000 HD
BRANCH  21  23
ATOM     23  C   UNL     1       4.585   4.948  17.204  0.00  0.00    +0.000 A 
ATOM     24  C   UNL     1       5.008   4.082  16.185  0.00  0.00    +0.000 A 
ATOM     25  C   UNL     1       6.334   4.054  15.775  0.00  0.00    +0.000 A 
ATOM     26  C   UNL     1       7.261   4.896  16.381  0.00  0.00    +0.000 A 
ATOM     27  C   UNL     1       6.886   5.754  17.421  0.00  0.00    +0.000 A 
ATOM     28  C   UNL     1       5.539   5.775  17.824  0.00  0.00    +0.000 A 
BRANCH  27  29
ATOM     29  N   UNL     1       7.809   6.638  18.045  0.00  0.00    +0.000 N 
ATOM     30  C   UNL     1       7.860   8.000  17.833  0.00  0.00    +0.000 C 
ATOM     31  O   UNL     1       7.247   8.624  16.977  0.00  0.00    +0.000 OA
ATOM     32  H   UNL     1       8.491   6.219  18.664  0.00  0.00    +0.000 HD
BRANCH  30  33
ATOM     33  C   UNL     1       8.776   8.727  18.767  0.00  0.00    +0.000 C 
ATOM     34  C   UNL     1       8.816  10.070  18.689  0.00  0.00    +0.000 C 
BRANCH  34  35
ATOM     35  C   UNL     1       9.608  10.987  19.570  0.00  0.00    +0.000 C 
BRANCH  35  36
ATOM     36  N   UNL     1      10.965  11.212  19.048  0.00  0.00    +0.000 NA
ATOM     37  C   UNL     1      10.953  11.847  17.729  0.00  0.00    +0.000 C 
ATOM     38  C   UNL     1      11.738  12.030  19.985  0.00  0.00    +0.000 C 
ENDBRANCH  35  36
ENDBRANCH  34  35
ENDBRANCH  30  33
ENDBRANCH  27  29
ENDBRANCH  21  23
ENDBRANCH   7  21
TORSDOF 8
ENDMDL
MODEL 2
REMARK VINA RESULT:      -8.5      1.787      2.277
REMARK  Name = 
REMARK  11 active torsions:
REMARK  status: ('A' for Active; 'I' for Inactive)
REMARK    1  A    between atoms: C_1  and  C_2
REMARK    2  A    between atoms: C_2  and  C_28
REMARK    3  A    between atoms: N_3  and  N_4
REMARK    4  A    between atoms: C_10  and  N_11
REMARK    5  A    between atoms: N_11  and  C_12
REMARK    6  A    between atoms: C_16  and  N_17
REMARK    7  A    between atoms: C_18  and  C_20
REMARK    8  A    between atoms: C_21  and  C_22
REMARK    9  A    between atoms: C_22  and  N_23
REMARK   10  A    between atoms: N_23  and  C_24
REMARK   11  A    between atoms: N_23  and  C_25
REMARK                            x       y       z     vdW  Elec       q    Type
REMARK                         _______ _______ _______ _____ _____    ______ ____
ROOT
ATOM      1  N   UNL     1       2.166   8.061  19.375  0.00  0.00    +0.000 N 
ATOM      2  C   UNL     1       2.246   6.720  19.788  0.00  0.00    +0.000 A 
ATOM      3  N   UNL     1       1.274   6.171  20.533  0.00  0.00    +0.000 NA
ATOM      4  C   UNL     1       1.473   4.908  20.960  0.00  0.00    +0.000 A 
ATOM      5  C   UNL     1       2.579   4.156  20.638  0.00  0.00    +0.000 A 
ATOM      6 CL   UNL     1       2.736   2.547  21.218  0.00  0.00    +0.000 Cl
ATOM      7  C   UNL     1       3.513   4.771  19.820  0.00  0.00    +0.000 A 
ATOM      8  N   UNL     1       3.366   6.062  19.443  0.00  0.00    +0.000 NA
ATOM      9  H   UNL     1       3.009   8.524  19.696  0.00  0.00    +0.000 HD
ENDROOT
BRANCH   1  12
ATOM     10  C   UNL     1       1.956  10.482  17.936  0.00  0.00    +0.000 C 
ATOM     11  C   UNL     1       0.827   9.785  18.672  0.00  0.00    +0.000 C 
ATOM     12  N   UNL     1       0.967   8.693  19.369  0.00  0.00    +0.000 NA
BRANCH  11  13
ATOM     13  C   UNL     1      -0.559  10.359  18.554  0.00  0.00    +0.000 A 
ATOM     14  C   UNL     1      -1.388   9.916  17.507  0.00  0.00    +0.000 A 
ATOM     15  C   UNL     1      -2.661  10.466  17.323  0.00  0.00    +0.000 A 
ATOM     16  C   UNL     1      -3.109  11.461  18.183  0.00  0.00    +0.000 A 
ATOM     17  F   UNL     1      -4.322  11.996  18.002  0.00  0.00    +0.000 F 
ATOM     18  C   UNL     1      -2.313  11.912  19.225  0.00  0.00    +0.000 A 
ATOM     19  C   UNL     1      -1.045  11.360  19.404  0.00  0.00    +0.000 A 
ATOM     20  F   UNL     1      -0.310  11.843  20.416  0.00  0.00    +0.000 F 
ENDBRANCH  11  13
ENDBRANCH   1  12
BRANCH   7  21
ATOM     21  N   UNL     1       4.629   4.046  19.331  0.00  0.00    +0.000 N 
ATOM     22  H   UNL     1       4.899   3.289  19.945  0.00  0.00    +0.000 HD
BRANCH  21  23
ATOM     23  C   UNL     1       5.644   4.556  18.493  0.00  0.00    +0.000 A 
ATOM     24  C   UNL     1       5.795   4.052  17.193  0.00  0.00    +0.000 A 
ATOM     25  C   UNL     1       6.746   4.577  16.328  0.00  0.00    +0.000 A 
ATOM     26  C   UNL     1       7.565   5.618  16.753  0.00  0.00    +0.000 A 
ATOM     27  C   UNL     1       7.467   6.129  18.053  0.00  0.00    +0.000 A 
ATOM     28  C   UNL     1       6.498   5.592  18.917  0.00  0.00    +0.000 A 
BRANCH  27  29
ATOM     29  N   UNL     1       8.279   7.205  18.507  0.00  0.00    +0.000 N 
ATOM     30  C   UNL     1       8.128   8.521  18.124  0.00  0.00    +0.000 C 
ATOM     31  O   UNL     1       7.400   8.938  17.233  0.00  0.00    +0.000 OA
ATOM     32  H   UNL     1       9.038   6.967  19.134  0.00  0.00    +0.000 HD
BRANCH  30  33
ATOM     33  C   UNL     1       8.968   9.482  18.905  0.00  0.00    +0.000 C 
ATOM     34  C   UNL     1       9.394  10.596  18.281  0.00  0.00    +0.000 C 
BRANCH  34  35
ATOM     35  C   UNL     1      10.182  11.712  18.895  0.00  0.00    +0.000 C 
BRANCH  35  36
ATOM     36  N   UNL     1      10.379  12.826  17.955  0.00  0.00    +0.000 NA
ATOM     37  C   UNL     1       9.680  14.040  18.381  0.00  0.00    +0.000 C 
ATOM     38  C   UNL     1      11.807  13.106  17.793  0.00  0.00    +0.000 C 
ENDBRANCH  35  36
ENDBRANCH  34  35
ENDBRANCH  30  33
ENDBRANCH  27  29
ENDBRANCH  21  23
ENDBRANCH   7  21
TORSDOF 8
ENDMDL
MODEL 3
REMARK VINA RESULT:      -8.4      1.557      2.031
REMARK  Name = 
REMARK  11 active torsions:
REMARK  status: ('A' for Active; 'I' for Inactive)
REMARK    1  A    between atoms: C_1  and  C_2
REMARK    2  A    between atoms: C_2  and  C_28
REMARK    3  A    between atoms: N_3  and  N_4
REMARK    4  A    between atoms: C_10  and  N_11
REMARK    5  A    between atoms: N_11  and  C_12
REMARK    6  A    between atoms: C_16  and  N_17
REMARK    7  A    between atoms: C_18  and  C_20
REMARK    8  A    between atoms: C_21  and  C_22
REMARK    9  A    between atoms: C_22  and  N_23
REMARK   10  A    between atoms: N_23  and  C_24
REMARK   11  A    between atoms: N_23  and  C_25
REMARK                            x       y       z     vdW  Elec       q    Type
REMARK                         _______ _______ _______ _____ _____    ______ ____
ROOT
ATOM      1  N   UNL     1       2.357   7.920  19.996  0.00  0.00    +0.000 N 
ATOM      2  C   UNL     1       2.181   6.526  19.938  0.00  0.00    +0.000 A 
ATOM      3  N   UNL     1       1.068   5.953  20.421  0.00  0.00    +0.000 NA
ATOM      4  C   UNL     1       1.021   4.606  20.405  0.00  0.00    +0.000 A 
ATOM      5  C   UNL     1       2.017   3.810  19.889  0.00  0.00    +0.000 A 
ATOM      6 CL   UNL     1       1.859   2.100  19.901  0.00  0.00    +0.000 Cl
ATOM      7  C   UNL     1       3.110   4.476  19.358  0.00  0.00    +0.000 A 
ATOM      8  N   UNL     1       3.208   5.823  19.431  0.00  0.00    +0.000 NA
ATOM      9  H   UNL     1       3.229   8.092  20.483  0.00  0.00    +0.000 HD
ENDROOT
BRANCH   1  12
ATOM     10  C   UNL     1       1.902   9.925  18.060  0.00  0.00    +0.000 C 
ATOM     11  C   UNL     1       1.017   9.627  19.256  0.00  0.00    +0.000 C 
ATOM     12  N   UNL     1       1.281   8.727  20.161  0.00  0.00    +0.000 NA
BRANCH  11  13
ATOM     13  C   UNL     1      -0.277  10.385  19.388  0.00  0.00    +0.000 A 
ATOM     14  C   UNL     1      -1.233  10.275  18.361  0.00  0.00    +0.000 A 
ATOM     15  C   UNL     1      -2.423  11.008  18.414  0.00  0.00    +0.000 A 
ATOM     16  C   UNL     1      -2.662  11.853  19.490  0.00  0.00    +0.000 A 
ATOM     17  F   UNL     1      -3.795  12.563  19.536  0.00  0.00    +0.000 F 
ATOM     18  C   UNL     1      -1.738  11.975  20.517  0.00  0.00    +0.000 A 
ATOM     19  C   UNL     1      -0.553  11.242  20.460  0.00  0.00    +0.000 A 
ATOM     20  F   UNL     1       0.313  11.409  21.470  0.00  0.00    +0.000 F 
ENDBRANCH  11  13
ENDBRANCH   1  12
BRANCH   7  21
ATOM     21  N   UNL     1       4.136   3.757  18.693  0.00  0.00    +0.000 N 
ATOM     22  H   UNL     1       4.467   2.967  19.231  0.00  0.00    +0.000 HD
BRANCH  21  23
ATOM     23  C   UNL     1       5.044   4.291  17.754  0.00  0.00    +0.000 A 
ATOM     24  C   UNL     1       5.461   3.510  16.666  0.00  0.00    +0.000 A 
ATOM     25  C   UNL     1       6.307   4.030  15.695  0.00  0.00    +0.000 A 
ATOM     26  C   UNL     1       6.751   5.344  15.798  0.00  0.00    +0.000 A 
ATOM     27  C   UNL     1       6.382   6.147  16.884  0.00  0.00    +0.000 A 
ATOM     28  C   UNL     1       5.522   5.610  17.858  0.00  0.00    +0.000 A 
BRANCH  27  29
ATOM     29  N   UNL     1       6.806   7.500  17.005  0.00  0.00    +0.000 N 
ATOM     30  C   UNL     1       7.808   7.938  17.845  0.00  0.00    +0.000 C 
ATOM     31  O   UNL     1       8.364   7.280  18.715  0.00  0.00    +0.000 OA
ATOM     32  H   UNL     1       6.306   8.183  16.451  0.00  0.00    +0.000 HD
BRANCH  30  33
ATOM     33  C   UNL     1       8.202   9.364  17.629  0.00  0.00    +0.000 C 
ATOM     34  C   UNL     1       9.010   9.938  18.540  0.00  0.00    +0.000 C 
BRANCH  34  35
ATOM     35  C   UNL     1       9.575  11.324  18.479  0.00  0.00    +0.000 C 
BRANCH  35  36
ATOM     36  N   UNL     1       9.867  11.857  19.818  0.00  0.00    +0.000 NA
ATOM     37  C   UNL     1       9.389  13.231  19.984  0.00  0.00    +0.000 C 
ATOM     38  C   UNL     1       9.275  10.999  20.846  0.00  0.00    +0.000 C 
ENDBRANCH  35  36
ENDBRANCH  34  35
ENDBRANCH  30  33
ENDBRANCH  27  29
ENDBRANCH  21  23
ENDBRANCH   7  21
TORSDOF 8
ENDMDL
MODEL 4
REMARK VINA RESULT:      -8.4      0.915      1.094
REMARK  Name = 
REMARK  11 active torsions:
REMARK  status: ('A' for Active; 'I' for Inactive)
REMARK    1  A    between atoms: C_1  and  C_2
REMARK    2  A    between atoms: C_2  and  C_28
REMARK    3  A    between atoms: N_3  and  N_4
REMARK    4  A    between atoms: C_10  and  N_11
REMARK    5  A    between atoms: N_11  and  C_12
REMARK    6  A    between atoms: C_16  and  N_17
REMARK    7  A    between atoms: C_18  and  C_20
REMARK    8  A    between atoms: C_21  and  C_22
REMARK    9  A    between atoms: C_22  and  N_23
REMARK   10  A    between atoms: N_23  and  C_24
REMARK   11  A    between atoms: N_23  and  C_25
REMARK                            x       y       z     vdW  Elec       q    Type
REMARK                         _______ _______ _______ _____ _____    ______ ____
ROOT
ATOM      1  N   UNL     1       1.681   8.643  19.691  0.00  0.00    +0.000 N 
ATOM      2  C   UNL     1       1.827   7.249  19.792  0.00  0.00    +0.000 A 
ATOM      3  N   UNL     1       1.393   6.588  20.876  0.00  0.00    +0.000 NA
ATOM      4  C   UNL     1       1.652   5.267  20.928  0.00  0.00    +0.000 A 
ATOM      5  C   UNL     1       2.286   4.570  19.926  0.00  0.00    +0.000 A 
ATOM      6 CL   UNL     1       2.559   2.881  20.079  0.00  0.00    +0.000 Cl
ATOM      7  C   UNL     1       2.656   5.309  18.814  0.00  0.00    +0.000 A 
ATOM      8  N   UNL     1       2.470   6.648  18.775  0.00  0.00    +0.000 NA
ATOM      9  H   UNL     1       2.604   9.030  19.527  0.00  0.00    +0.000 HD
ENDROOT
BRANCH   1  12
ATOM     10  C   UNL     1       1.380  11.430  19.350  0.00  0.00    +0.000 C 
ATOM     11  C   UNL     1       0.575  10.559  20.295  0.00  0.00    +0.000 C 
ATOM     12  N   UNL     1       0.772   9.282  20.467  0.00  0.00    +0.000 NA
BRANCH  11  13
ATOM     13  C   UNL     1      -0.560  11.193  21.054  0.00  0.00    +0.000 A 
ATOM     14  C   UNL     1      -0.639  10.993  22.445  0.00  0.00    +0.000 A 
ATOM     15  C   UNL     1      -1.710  11.513  23.180  0.00  0.00    +0.000 A 
ATOM     16  C   UNL     1      -2.704  12.233  22.529  0.00  0.00    +0.000 A 
ATOM     17  F   UNL     1      -3.734  12.722  23.230  0.00  0.00    +0.000 F 
ATOM     18  C   UNL     1      -2.646  12.448  21.160  0.00  0.00    +0.000 A 
ATOM     19  C   UNL     1      -1.577  11.928  20.432  0.00  0.00    +0.000 A 
ATOM     20  F   UNL     1      -1.578  12.152  19.110  0.00  0.00    +0.000 F 
ENDBRANCH  11  13
ENDBRANCH   1  12
BRANCH   7  21
ATOM     21  N   UNL     1       3.206   4.668  17.676  0.00  0.00    +0.000 N 
ATOM     22  H   UNL     1       2.852   3.729  17.549  0.00  0.00    +0.000 HD
BRANCH  21  23
ATOM     23  C   UNL     1       4.472   4.933  17.109  0.00  0.00    +0.000 A 
ATOM     24  C   UNL     1       5.074   3.982  16.272  0.00  0.00    +0.000 A 
ATOM     25  C   UNL     1       6.290   4.240  15.654  0.00  0.00    +0.000 A 
ATOM     26  C   UNL     1       6.925   5.460  15.865  0.00  0.00    +0.000 A 
ATOM     27  C   UNL     1       6.373   6.424  16.716  0.00  0.00    +0.000 A 
ATOM     28  C   UNL     1       5.139   6.151  17.332  0.00  0.00    +0.000 A 
BRANCH  27  29
ATOM     29  N   UNL     1       6.991   7.686  16.935  0.00  0.00    +0.000 N 
ATOM     30  C   UNL     1       7.937   7.941  17.906  0.00  0.00    +0.000 C 
ATOM     31  O   UNL     1       8.264   7.189  18.814  0.00  0.00    +0.000 OA
ATOM     32  H   UNL     1       6.684   8.451  16.347  0.00  0.00    +0.000 HD
BRANCH  30  33
ATOM     33  C   UNL     1       8.581   9.286  17.789  0.00  0.00    +0.000 C 
ATOM     34  C   UNL     1       9.143   9.812  18.894  0.00  0.00    +0.000 C 
BRANCH  34  35
ATOM     35  C   UNL     1       9.894  11.105  18.978  0.00  0.00    +0.000 C 
BRANCH  35  36
ATOM     36  N   UNL     1       9.252  12.053  19.902  0.00  0.00    +0.000 NA
ATOM     37  C   UNL     1       9.095  11.495  21.247  0.00  0.00    +0.000 C 
ATOM     38  C   UNL     1      10.022  13.297  19.968  0.00  0.00    +0.000 C 
ENDBRANCH  35  36
ENDBRANCH  34  35
ENDBRANCH  30  33
ENDBRANCH  27  29
ENDBRANCH  21  23
ENDBRANCH   7  21
TORSDOF 8
ENDMDL
MODEL 5
REMARK VINA RESULT:      -8.4      1.535      1.975
REMARK  Name = 
REMARK  11 active torsions:
REMARK  status: ('A' for Active; 'I' for Inactive)
REMARK    1  A    between atoms: C_1  and  C_2
REMARK    2  A    between atoms: C_2  and  C_28
REMARK    3  A    between atoms: N_3  and  N_4
REMARK    4  A    between atoms: C_10  and  N_11
REMARK    5  A    between atoms: N_11  and  C_12
REMARK    6  A    between atoms: C_16  and  N_17
REMARK    7  A    between atoms: C_18  and  C_20
REMARK    8  A    between atoms: C_21  and  C_22
REMARK    9  A    between atoms: C_22  and  N_23
REMARK   10  A    between atoms: N_23  and  C_24
REMARK   11  A    between atoms: N_23  and  C_25
REMARK                            x       y       z     vdW  Elec       q    Type
REMARK                         _______ _______ _______ _____ _____    ______ ____
ROOT
ATOM      1  N   UNL     1       2.288   7.998  20.222  0.00  0.00    +0.000 N 
ATOM      2  C   UNL     1       2.163   6.597  20.197  0.00  0.00    +0.000 A 
ATOM      3  N   UNL     1       1.007   6.003  20.530  0.00  0.00    +0.000 NA
ATOM      4  C   UNL     1       1.002   4.656  20.563  0.00  0.00    +0.000 A 
ATOM      5  C   UNL     1       2.088   3.877  20.237  0.00  0.00    +0.000 A 
ATOM      6 CL   UNL     1       1.980   2.164  20.296  0.00  0.00    +0.000 Cl
ATOM      7  C   UNL     1       3.230   4.561  19.849  0.00  0.00    +0.000 A 
ATOM      8  N   UNL     1       3.276   5.912  19.880  0.00  0.00    +0.000 NA
ATOM      9  H   UNL     1       3.070   8.218  20.828  0.00  0.00    +0.000 HD
ENDROOT
BRANCH   1  12
ATOM     10  C   UNL     1       2.109   9.966  18.205  0.00  0.00    +0.000 C 
ATOM     11  C   UNL     1       1.043   9.653  19.238  0.00  0.00    +0.000 C 
ATOM     12  N   UNL     1       1.175   8.772  20.189  0.00  0.00    +0.000 NA
BRANCH  11  13
ATOM     13  C   UNL     1      -0.277  10.370  19.137  0.00  0.00    +0.000 A 
ATOM     14  C   UNL     1      -0.659  11.235  20.179  0.00  0.00    +0.000 A 
ATOM     15  C   UNL     1      -1.903  11.874  20.156  0.00  0.00    +0.000 A 
ATOM     16  C   UNL     1      -2.769  11.651  19.092  0.00  0.00    +0.000 A 
ATOM     17  F   UNL     1      -3.964  12.254  19.074  0.00  0.00    +0.000 F 
ATOM     18  C   UNL     1      -2.414  10.807  18.051  0.00  0.00    +0.000 A 
ATOM     19  C   UNL     1      -1.173  10.173  18.079  0.00  0.00    +0.000 A 
ATOM     20  F   UNL     1      -0.886   9.355  17.055  0.00  0.00    +0.000 F 
ENDBRANCH  11  13
ENDBRANCH   1  12
BRANCH   7  21
ATOM     21  N   UNL     1       4.365   3.855  19.378  0.00  0.00    +0.000 N 
ATOM     22  H   UNL     1       4.731   3.207  20.063  0.00  0.00    +0.000 HD
BRANCH  21  23
ATOM     23  C   UNL     1       5.283   4.317  18.410  0.00  0.00    +0.000 A 
ATOM     24  C   UNL     1       5.252   3.790  17.111  0.00  0.00    +0.000 A 
ATOM     25  C   UNL     1       6.103   4.268  16.123  0.00  0.00    +0.000 A 
ATOM     26  C   UNL     1       7.003   5.286  16.423  0.00  0.00    +0.000 A 
ATOM     27  C   UNL     1       7.087   5.819  17.714  0.00  0.00    +0.000 A 
ATOM     28  C   UNL     1       6.217   5.329  18.703  0.00  0.00    +0.000 A 
BRANCH  27  29
ATOM     29  N   UNL     1       7.984   6.872  18.043  0.00  0.00    +0.000 N 
ATOM     30  C   UNL     1       7.764   8.207  17.774  0.00  0.00    +0.000 C 
ATOM     31  O   UNL     1       6.865   8.668  17.083  0.00  0.00    +0.000 OA
ATOM     32  H   UNL     1       8.858   6.604  18.479  0.00  0.00    +0.000 HD
BRANCH  30  33
ATOM     33  C   UNL     1       8.758   9.127  18.409  0.00  0.00    +0.000 C 
ATOM     34  C   UNL     1       8.634  10.446  18.171  0.00  0.00    +0.000 C 
BRANCH  34  35
ATOM     35  C   UNL     1       9.476  11.537  18.759  0.00  0.00    +0.000 C 
BRANCH  35  36
ATOM     36  N   UNL     1       9.994  11.175  20.087  0.00  0.00    +0.000 NA
ATOM     37  C   UNL     1      11.278  11.817  20.375  0.00  0.00    +0.000 C 
ATOM     38  C   UNL     1       9.021  11.526  21.123  0.00  0.00    +0.000 C 
ENDBRANCH  35  36
ENDBRANCH  34  35
ENDBRANCH  30  33
ENDBRANCH  27  29
ENDBRANCH  21  23
ENDBRANCH   7  21
TORSDOF 8
ENDMDL
MODEL 6
REMARK VINA RESULT:      -8.3      1.095      1.226
REMARK  Name = 
REMARK  11 active torsions:
REMARK  status: ('A' for Active; 'I' for Inactive)
REMARK    1  A    between atoms: C_1  and  C_2
REMARK    2  A    between atoms: C_2  and  C_28
REMARK    3  A    between atoms: N_3  and  N_4
REMARK    4  A    between atoms: C_10  and  N_11
REMARK    5  A    between atoms: N_11  and  C_12
REMARK    6  A    between atoms: C_16  and  N_17
REMARK    7  A    between atoms: C_18  and  C_20
REMARK    8  A    between atoms: C_21  and  C_22
REMARK    9  A    between atoms: C_22  and  N_23
REMARK   10  A    between atoms: N_23  and  C_24
REMARK   11  A    between atoms: N_23  and  C_25
REMARK                            x       y       z     vdW  Elec       q    Type
REMARK                         _______ _______ _______ _____ _____    ______ ____
ROOT
ATOM      1  N   UNL     1       1.528   9.809  18.632  0.00  0.00    +0.000 N 
ATOM      2  C   UNL     1       1.723   8.507  19.124  0.00  0.00    +0.000 A 
ATOM      3  N   UNL     1       1.397   8.192  20.387  0.00  0.00    +0.000 NA
ATOM      4  C   UNL     1       1.699   6.947  20.802  0.00  0.00    +0.000 A 
ATOM      5  C   UNL     1       2.272   5.989  19.997  0.00  0.00    +0.000 A 
ATOM      6 CL   UNL     1       2.607   4.421  20.614  0.00  0.00    +0.000 Cl
ATOM      7  C   UNL     1       2.529   6.370  18.690  0.00  0.00    +0.000 A 
ATOM      8  N   UNL     1       2.300   7.637  18.277  0.00  0.00    +0.000 NA
ATOM      9  H   UNL     1       2.423  10.135  18.284  0.00  0.00    +0.000 HD
ENDROOT
BRANCH   1  12
ATOM     10  C   UNL     1      -1.113   9.969  17.643  0.00  0.00    +0.000 C 
ATOM     11  C   UNL     1      -0.574  10.698  18.859  0.00  0.00    +0.000 C 
ATOM     12  N   UNL     1       0.665  10.644  19.261  0.00  0.00    +0.000 NA
BRANCH  11  13
ATOM     13  C   UNL     1      -1.537  11.503  19.689  0.00  0.00    +0.000 A 
ATOM     14  C   UNL     1      -1.242  11.721  21.048  0.00  0.00    +0.000 A 
ATOM     15  C   UNL     1      -2.138  12.410  21.871  0.00  0.00    +0.000 A 
ATOM     16  C   UNL     1      -3.331  12.885  21.340  0.00  0.00    +0.000 A 
ATOM     17  F   UNL     1      -4.194  13.536  22.129  0.00  0.00    +0.000 F 
ATOM     18  C   UNL     1      -3.643  12.688  20.003  0.00  0.00    +0.000 A 
ATOM     19  C   UNL     1      -2.747  12.000  19.187  0.00  0.00    +0.000 A 
ATOM     20  F   UNL     1      -3.104  11.824  17.907  0.00  0.00    +0.000 F 
ENDBRANCH  11  13
ENDBRANCH   1  12
BRANCH   7  21
ATOM     21  N   UNL     1       3.006   5.425  17.747  0.00  0.00    +0.000 N 
ATOM     22  H   UNL     1       2.398   4.621  17.661  0.00  0.00    +0.000 HD
BRANCH  21  23
ATOM     23  C   UNL     1       4.357   5.219  17.393  0.00  0.00    +0.000 A 
ATOM     24  C   UNL     1       4.690   4.225  16.462  0.00  0.00    +0.000 A 
ATOM     25  C   UNL     1       6.004   4.041  16.051  0.00  0.00    +0.000 A 
ATOM     26  C   UNL     1       7.008   4.853  16.568  0.00  0.00    +0.000 A 
ATOM     27  C   UNL     1       6.722   5.837  17.521  0.00  0.00    +0.000 A 
ATOM     28  C   UNL     1       5.388   6.015  17.926  0.00  0.00    +0.000 A 
BRANCH  27  29
ATOM     29  N   UNL     1       7.727   6.693  18.053  0.00  0.00    +0.000 N 
ATOM     30  C   UNL     1       7.796   8.053  17.837  0.00  0.00    +0.000 C 
ATOM     31  O   UNL     1       7.121   8.697  17.044  0.00  0.00    +0.000 OA
ATOM     32  H   UNL     1       8.453   6.252  18.603  0.00  0.00    +0.000 HD
BRANCH  30  33
ATOM     33  C   UNL     1       8.819   8.750  18.677  0.00  0.00    +0.000 C 
ATOM     34  C   UNL     1       8.962  10.079  18.518  0.00  0.00    +0.000 C 
BRANCH  34  35
ATOM     35  C   UNL     1       9.874  10.974  19.301  0.00  0.00    +0.000 C 
BRANCH  35  36
ATOM     36  N   UNL     1      10.304  12.140  18.516  0.00  0.00    +0.000 NA
ATOM     37  C   UNL     1      10.149  13.394  19.256  0.00  0.00    +0.000 C 
ATOM     38  C   UNL     1      11.698  11.982  18.096  0.00  0.00    +0.000 C 
ENDBRANCH  35  36
ENDBRANCH  34  35
ENDBRANCH  30  33
ENDBRANCH  27  29
ENDBRANCH  21  23
ENDBRANCH   7  21
TORSDOF 8
ENDMDL
MODEL 7
REMARK VINA RESULT:      -8.3      1.433      1.771
REMARK  Name = 
REMARK  11 active torsions:
REMARK  status: ('A' for Active; 'I' for Inactive)
REMARK    1  A    between atoms: C_1  and  C_2
REMARK    2  A    between atoms: C_2  and  C_28
REMARK    3  A    between atoms: N_3  and  N_4
REMARK    4  A    between atoms: C_10  and  N_11
REMARK    5  A    between atoms: N_11  and  C_12
REMARK    6  A    between atoms: C_16  and  N_17
REMARK    7  A    between atoms: C_18  and  C_20
REMARK    8  A    between atoms: C_21  and  C_22
REMARK    9  A    between atoms: C_22  and  N_23
REMARK   10  A    between atoms: N_23  and  C_24
REMARK   11  A    between atoms: N_23  and  C_25
REMARK                            x       y       z     vdW  Elec       q    Type
REMARK                         _______ _______ _______ _____ _____    ______ ____
ROOT
ATOM      1  N   UNL     1       2.265   8.018  18.908  0.00  0.00    +0.000 N 
ATOM      2  C   UNL     1       2.364   6.712  19.418  0.00  0.00    +0.000 A 
ATOM      3  N   UNL     1       1.619   6.324  20.465  0.00  0.00    +0.000 NA
ATOM      4  C   UNL     1       1.841   5.085  20.944  0.00  0.00    +0.000 A 
ATOM      5  C   UNL     1       2.744   4.202  20.398  0.00  0.00    +0.000 A 
ATOM      6 CL   UNL     1       2.946   2.635  21.072  0.00  0.00    +0.000 Cl
ATOM      7  C   UNL     1       3.436   4.653  19.286  0.00  0.00    +0.000 A 
ATOM      8  N   UNL     1       3.280   5.919  18.836  0.00  0.00    +0.000 NA
ATOM      9  H   UNL     1       3.197   8.417  18.923  0.00  0.00    +0.000 HD
ENDROOT
BRANCH   1  12
ATOM     10  C   UNL     1       2.192  10.665  17.926  0.00  0.00    +0.000 C 
ATOM     11  C   UNL     1       1.085   9.973  18.699  0.00  0.00    +0.000 C 
ATOM     12  N   UNL     1       1.168   8.766  19.183  0.00  0.00    +0.000 NA
BRANCH  11  13
ATOM     13  C   UNL     1      -0.218  10.705  18.882  0.00  0.00    +0.000 A 
ATOM     14  C   UNL     1      -0.347  11.597  19.962  0.00  0.00    +0.000 A 
ATOM     15  C   UNL     1      -1.559  12.251  20.206  0.00  0.00    +0.000 A 
ATOM     16  C   UNL     1      -2.645  12.016  19.372  0.00  0.00    +0.000 A 
ATOM     17  F   UNL     1      -3.809  12.634  19.610  0.00  0.00    +0.000 F 
ATOM     18  C   UNL     1      -2.542  11.145  18.298  0.00  0.00    +0.000 A 
ATOM     19  C   UNL     1      -1.332  10.496  18.059  0.00  0.00    +0.000 A 
ATOM     20  F   UNL     1      -1.291   9.652  17.017  0.00  0.00    +0.000 F 
ENDBRANCH  11  13
ENDBRANCH   1  12
BRANCH   7  21
ATOM     21  N   UNL     1       4.300   3.783  18.575  0.00  0.00    +0.000 N 
ATOM     22  H   UNL     1       4.575   2.978  19.121  0.00  0.00    +0.000 HD
BRANCH  21  23
ATOM     23  C   UNL     1       5.183   4.158  17.539  0.00  0.00    +0.000 A 
ATOM     24  C   UNL     1       5.113   3.514  16.295  0.00  0.00    +0.000 A 
ATOM     25  C   UNL     1       5.927   3.903  15.240  0.00  0.00    +0.000 A 
ATOM     26  C   UNL     1       6.829   4.949  15.415  0.00  0.00    +0.000 A 
ATOM     27  C   UNL     1       6.951   5.598  16.648  0.00  0.00    +0.000 A 
ATOM     28  C   UNL     1       6.117   5.197  17.707  0.00  0.00    +0.000 A 
BRANCH  27  29
ATOM     29  N   UNL     1       7.851   6.682  16.849  0.00  0.00    +0.000 N 
ATOM     30  C   UNL     1       7.505   7.902  17.393  0.00  0.00    +0.000 C 
ATOM     31  O   UNL     1       6.370   8.294  17.630  0.00  0.00    +0.000 OA
ATOM     32  H   UNL     1       8.804   6.544  16.538  0.00  0.00    +0.000 HD
BRANCH  30  33
ATOM     33  C   UNL     1       8.673   8.787  17.691  0.00  0.00    +0.000 C 
ATOM     34  C   UNL     1       8.479   9.823  18.528  0.00  0.00    +0.000 C 
BRANCH  34  35
ATOM     35  C   UNL     1       9.522  10.784  19.008  0.00  0.00    +0.000 C 
BRANCH  35  36
ATOM     36  N   UNL     1      10.106  11.558  17.902  0.00  0.00    +0.000 NA
ATOM     37  C   UNL     1       9.372  12.800  17.647  0.00  0.00    +0.000 C 
ATOM     38  C   UNL     1      11.511  11.861  18.182  0.00  0.00    +0.000 C 
ENDBRANCH  35  36
ENDBRANCH  34  35
ENDBRANCH  30  33
ENDBRANCH  27  29
ENDBRANCH  21  23
ENDBRANCH   7  21
TORSDOF 8
ENDMDL
MODEL 8
REMARK VINA RESULT:      -8.2      1.568      1.928
REMARK  Name = 
REMARK  11 active torsions:
REMARK  status: ('A' for Active; 'I' for Inactive)
REMARK    1  A    between atoms: C_1  and  C_2
REMARK    2  A    between atoms: C_2  and  C_28
REMARK    3  A    between atoms: N_3  and  N_4
REMARK    4  A    between atoms: C_10  and  N_11
REMARK    5  A    between atoms: N_11  and  C_12
REMARK    6  A    between atoms: C_16  and  N_17
REMARK    7  A    between atoms: C_18  and  C_20
REMARK    8  A    between atoms: C_21  and  C_22
REMARK    9  A    between atoms: C_22  and  N_23
REMARK   10  A    between atoms: N_23  and  C_24
REMARK   11  A    between atoms: N_23  and  C_25
REMARK                            x       y       z     vdW  Elec       q    Type
REMARK                         _______ _______ _______ _____ _____    ______ ____
ROOT
ATOM      1  N   UNL     1       2.207   7.785  19.828  0.00  0.00    +0.000 N 
ATOM      2  C   UNL     1       2.106   6.383  19.825  0.00  0.00    +0.000 A 
ATOM      3  N   UNL     1       1.139   5.761  20.517  0.00  0.00    +0.000 NA
ATOM      4  C   UNL     1       1.170   4.415  20.532  0.00  0.00    +0.000 A 
ATOM      5  C   UNL     1       2.098   3.662  19.850  0.00  0.00    +0.000 A 
ATOM      6 CL   UNL     1       2.047   1.946  19.918  0.00  0.00    +0.000 Cl
ATOM      7  C   UNL     1       3.032   4.373  19.114  0.00  0.00    +0.000 A 
ATOM      8  N   UNL     1       3.061   5.724  19.146  0.00  0.00    +0.000 NA
ATOM      9  H   UNL     1       3.143   8.018  20.141  0.00  0.00    +0.000 HD
ENDROOT
BRANCH   1  12
ATOM     10  C   UNL     1       2.229   9.010  22.372  0.00  0.00    +0.000 C 
ATOM     11  C   UNL     1       1.140   9.154  21.326  0.00  0.00    +0.000 C 
ATOM     12  N   UNL     1       1.134   8.536  20.179  0.00  0.00    +0.000 NA
BRANCH  11  13
ATOM     13  C   UNL     1       0.011  10.111  21.603  0.00  0.00    +0.000 A 
ATOM     14  C   UNL     1      -0.442  10.942  20.562  0.00  0.00    +0.000 A 
ATOM     15  C   UNL     1      -1.447  11.888  20.791  0.00  0.00    +0.000 A 
ATOM     16  C   UNL     1      -2.001  12.007  22.059  0.00  0.00    +0.000 A 
ATOM     17  F   UNL     1      -2.956  12.919  22.282  0.00  0.00    +0.000 F 
ATOM     18  C   UNL     1      -1.576  11.196  23.100  0.00  0.00    +0.000 A 
ATOM     19  C   UNL     1      -0.574  10.255  22.867  0.00  0.00    +0.000 A 
ATOM     20  F   UNL     1      -0.189   9.508  23.912  0.00  0.00    +0.000 F 
ENDBRANCH  11  13
ENDBRANCH   1  12
BRANCH   7  21
ATOM     21  N   UNL     1       3.957   3.695  18.280  0.00  0.00    +0.000 N 
ATOM     22  H   UNL     1       4.198   2.778  18.633  0.00  0.00    +0.000 HD
BRANCH  21  23
ATOM     23  C   UNL     1       4.911   4.304  17.437  0.00  0.00    +0.000 A 
ATOM     24  C   UNL     1       5.387   3.616  16.311  0.00  0.00    +0.000 A 
ATOM     25  C   UNL     1       6.280   4.214  15.431  0.00  0.00    +0.000 A 
ATOM     26  C   UNL     1       6.713   5.515  15.667  0.00  0.00    +0.000 A 
ATOM     27  C   UNL     1       6.286   6.225  16.795  0.00  0.00    +0.000 A 
ATOM     28  C   UNL     1       5.378   5.610  17.675  0.00  0.00    +0.000 A 
BRANCH  27  29
ATOM     29  N   UNL     1       6.698   7.563  17.051  0.00  0.00    +0.000 N 
ATOM     30  C   UNL     1       7.745   7.919  17.875  0.00  0.00    +0.000 C 
ATOM     31  O   UNL     1       8.363   7.175  18.626  0.00  0.00    +0.000 OA
ATOM     32  H   UNL     1       6.156   8.296  16.613  0.00  0.00    +0.000 HD
BRANCH  30  33
ATOM     33  C   UNL     1       8.106   9.369  17.807  0.00  0.00    +0.000 C 
ATOM     34  C   UNL     1       8.934   9.856  18.750  0.00  0.00    +0.000 C 
BRANCH  34  35
ATOM     35  C   UNL     1       9.470  11.252  18.826  0.00  0.00    +0.000 C 
BRANCH  35  36
ATOM     36  N   UNL     1      10.801  11.295  19.452  0.00  0.00    +0.000 NA
ATOM     37  C   UNL     1      11.841  11.721  18.514  0.00  0.00    +0.000 C 
ATOM     38  C   UNL     1      10.785  12.187  20.613  0.00  0.00    +0.000 C 
ENDBRANCH  35  36
ENDBRANCH  34  35
ENDBRANCH  30  33
ENDBRANCH  27  29
ENDBRANCH  21  23
ENDBRANCH   7  21
TORSDOF 8
ENDMDL
MODEL 9
REMARK VINA RESULT:      -8.1      1.389      1.808
REMARK  Name = 
REMARK  11 active torsions:
REMARK  status: ('A' for Active; 'I' for Inactive)
REMARK    1  A    between atoms: C_1  and  C_2
REMARK    2  A    between atoms: C_2  and  C_28
REMARK    3  A    between atoms: N_3  and  N_4
REMARK    4  A    between atoms: C_10  and  N_11
REMARK    5  A    between atoms: N_11  and  C_12
REMARK    6  A    between atoms: C_16  and  N_17
REMARK    7  A    between atoms: C_18  and  C_20
REMARK    8  A    between atoms: C_21  and  C_22
REMARK    9  A    between atoms: C_22  and  N_23
REMARK   10  A    between atoms: N_23  and  C_24
REMARK   11  A    between atoms: N_23  and  C_25
REMARK                            x       y       z     vdW  Elec       q    Type
REMARK                         _______ _______ _______ _____ _____    ______ ____
ROOT
ATOM      1  N   UNL     1       1.207   9.998  18.106  0.00  0.00    +0.000 N 
ATOM      2  C   UNL     1       1.546   8.776  18.714  0.00  0.00    +0.000 A 
ATOM      3  N   UNL     1       1.317   8.570  20.020  0.00  0.00    +0.000 NA
ATOM      4  C   UNL     1       1.754   7.406  20.538  0.00  0.00    +0.000 A 
ATOM      5  C   UNL     1       2.370   6.421  19.801  0.00  0.00    +0.000 A 
ATOM      6 CL   UNL     1       2.880   4.962  20.550  0.00  0.00    +0.000 Cl
ATOM      7  C   UNL     1       2.522   6.683  18.449  0.00  0.00    +0.000 A 
ATOM      8  N   UNL     1       2.156   7.875  17.925  0.00  0.00    +0.000 NA
ATOM      9  H   UNL     1       2.048  10.361  17.673  0.00  0.00    +0.000 HD
ENDROOT
BRANCH   1  12
ATOM     10  C   UNL     1      -1.477   9.859  17.237  0.00  0.00    +0.000 C 
ATOM     11  C   UNL     1      -0.950  10.737  18.355  0.00  0.00    +0.000 C 
ATOM     12  N   UNL     1       0.304  10.816  18.701  0.00  0.00    +0.000 NA
BRANCH  11  13
ATOM     13  C   UNL     1      -1.941  11.537  19.157  0.00  0.00    +0.000 A 
ATOM     14  C   UNL     1      -3.262  11.647  18.684  0.00  0.00    +0.000 A 
ATOM     15  C   UNL     1      -4.200  12.431  19.364  0.00  0.00    +0.000 A 
ATOM     16  C   UNL     1      -3.822  13.106  20.518  0.00  0.00    +0.000 A 
ATOM     17  F   UNL     1      -4.716  13.865  21.164  0.00  0.00    +0.000 F 
ATOM     18  C   UNL     1      -2.528  13.010  21.007  0.00  0.00    +0.000 A 
ATOM     19  C   UNL     1      -1.597  12.228  20.326  0.00  0.00    +0.000 A 
ATOM     20  F   UNL     1      -0.357  12.181  20.832  0.00  0.00    +0.000 F 
ENDBRANCH  11  13
ENDBRANCH   1  12
BRANCH   7  21
ATOM     21  N   UNL     1       3.034   5.688  17.577  0.00  0.00    +0.000 N 
ATOM     22  H   UNL     1       2.405   4.902  17.474  0.00  0.00    +0.000 HD
BRANCH  21  23
ATOM     23  C   UNL     1       4.399   5.425  17.334  0.00  0.00    +0.000 A 
ATOM     24  C   UNL     1       4.765   4.391  16.460  0.00  0.00    +0.000 A 
ATOM     25  C   UNL     1       6.098   4.149  16.156  0.00  0.00    +0.000 A 
ATOM     26  C   UNL     1       7.090   4.941  16.726  0.00  0.00    +0.000 A 
ATOM     27  C   UNL     1       6.769   5.963  17.626  0.00  0.00    +0.000 A 
ATOM     28  C   UNL     1       5.416   6.201  17.922  0.00  0.00    +0.000 A 
BRANCH  27  29
ATOM     29  N   UNL     1       7.761   6.800  18.209  0.00  0.00    +0.000 N 
ATOM     30  C   UNL     1       7.938   8.135  17.912  0.00  0.00    +0.000 C 
ATOM     31  O   UNL     1       7.395   8.754  17.006  0.00  0.00    +0.000 OA
ATOM     32  H   UNL     1       8.395   6.362  18.866  0.00  0.00    +0.000 HD
BRANCH  30  33
ATOM     33  C   UNL     1       8.906   8.835  18.813  0.00  0.00    +0.000 C 
ATOM     34  C   UNL     1       8.933  10.181  18.781  0.00  0.00    +0.000 C 
BRANCH  34  35
ATOM     35  C   UNL     1       9.772  11.072  19.645  0.00  0.00    +0.000 C 
BRANCH  35  36
ATOM     36  N   UNL     1      10.422  12.137  18.865  0.00  0.00    +0.000 NA
ATOM     37  C   UNL     1      10.456  13.410  19.588  0.00  0.00    +0.000 C 
ATOM     38  C   UNL     1      11.782  11.738  18.499  0.00  0.00    +0.000 C 
ENDBRANCH  35  36
ENDBRANCH  34  35
ENDBRANCH  30  33
ENDBRANCH  27  29
ENDBRANCH  21  23
ENDBRANCH   7  21
TORSDOF 8
ENDMDL
