MODEL 1
REMARK VINA RESULT:      -8.3      0.000      0.000
REMARK  Name = 
REMARK  13 active torsions:
REMARK  status: ('A' for Active; 'I' for Inactive)
REMARK    1  A    between atoms: C_1  and  C_2
REMARK    2  A    between atoms: C_6  and  C_7
REMARK    3  A    between atoms: C_8  and  O_9
REMARK    4  A    between atoms: O_9  and  C_10
REMARK    5  A    between atoms: C_10  and  C_11
REMARK    6  A    between atoms: C_11  and  C_12
REMARK    7  A    between atoms: C_11  and  N_13
REMARK    8  A    between atoms: N_13  and  C_14
REMARK    9  A    between atoms: C_14  and  C_15
REMARK   10  A    between atoms: C_21  and  C_22
REMARK   11  A    between atoms: C_21  and  C_23
REMARK   12  A    between atoms: C_26  and  C_27
REMARK   13  A    between atoms: C_26  and  C_28
REMARK                            x       y       z     vdW  Elec       q    Type
REMARK                         _______ _______ _______ _____ _____    ______ ____
ROOT
ATOM      1  C   UNL     1       4.061   6.608  17.284  0.00  0.00    +0.000 C 
ENDROOT
BRANCH   1   2
ATOM      2  C   UNL     1       3.141   7.107  18.377  0.00  0.00    +0.000 A 
ATOM      3  C   UNL     1       2.911   6.454  19.603  0.00  0.00    +0.000 A 
ATOM      4  C   UNL     1       2.091   7.035  20.585  0.00  0.00    +0.000 A 
ATOM      5  C   UNL     1       1.493   8.266  20.333  0.00  0.00    +0.000 A 
ATOM      6  C   UNL     1       1.680   8.902  19.103  0.00  0.00    +0.000 A 
ATOM      7  C   UNL     1       2.493   8.336  18.131  0.00  0.00    +0.000 A 
ATOM      8  C   UNL     1       0.872  10.194  19.064  0.00  0.00    +0.000 C 
ATOM      9  C   UNL     1       1.666  11.358  18.444  0.00  0.00    +0.000 C 
ATOM     10  C   UNL     1      -0.378   9.924  18.189  0.00  0.00    +0.000 C 
ATOM     11  N   UNL     1       0.648  10.456  20.516  0.00  0.00    +0.000 NA
ATOM     12  O   UNL     1      -0.460  11.261  20.774  0.00  0.00    +0.000 OA
ATOM     13  C   UNL     1       0.621   9.141  21.230  0.00  0.00    +0.000 C 
ATOM     14  C   UNL     1      -0.769   8.489  21.413  0.00  0.00    +0.000 C 
ATOM     15  C   UNL     1       1.279   9.303  22.615  0.00  0.00    +0.000 C 
ENDBRANCH   1   2
BRANCH   1  16
ATOM     16  N   UNL     1       5.181   5.735  17.673  0.00  0.00    +0.000 NA
ATOM     17  H   UNL     1       6.048   6.271  17.622  0.00  0.00    +0.000 HD
BRANCH  16  18
ATOM     18  C   UNL     1       5.255   4.550  16.788  0.00  0.00    +0.000 C 
ATOM     19  C   UNL     1       5.499   5.000  15.344  0.00  0.00    +0.000 C 
BRANCH  18  20
ATOM     20  C   UNL     1       3.998   3.634  16.841  0.00  0.00    +0.000 C 
BRANCH  20  21
ATOM     21  O   UNL     1       4.003   2.873  18.044  0.00  0.00    +0.000 OA
BRANCH  21  29
ATOM     22  C   UNL     1       1.107   4.056  17.545  0.00  0.00    +0.000 C 
ATOM     23  C   UNL     1       1.693   3.493  18.811  0.00  0.00    +0.000 A 
ATOM     24  C   UNL     1       0.823   3.483  19.925  0.00  0.00    +0.000 A 
ATOM     25  C   UNL     1       1.227   3.016  21.171  0.00  0.00    +0.000 A 
ATOM     26  C   UNL     1       2.521   2.552  21.339  0.00  0.00    +0.000 A 
ATOM     27  C   UNL     1       3.413   2.539  20.259  0.00  0.00    +0.000 A 
ATOM     28  C   UNL     1       4.819   2.054  20.498  0.00  0.00    +0.000 C 
ATOM     29  C   UNL     1       3.003   2.997  18.976  0.00  0.00    +0.000 A 
ENDBRANCH  21  29
ENDBRANCH  20  21
ENDBRANCH  18  20
ENDBRANCH  16  18
ENDBRANCH   1  16
TORSDOF 6
ENDMDL
MODEL 2
REMARK VINA RESULT:      -8.1      0.973      2.347
REMARK  Name = 
REMARK  13 active torsions:
REMARK  status: ('A' for Active; 'I' for Inactive)
REMARK    1  A    between atoms: C_1  and  C_2
REMARK    2  A    between atoms: C_6  and  C_7
REMARK    3  A    between atoms: C_8  and  O_9
REMARK    4  A    between atoms: O_9  and  C_10
REMARK    5  A    between atoms: C_10  and  C_11
REMARK    6  A    between atoms: C_11  and  C_12
REMARK    7  A    between atoms: C_11  and  N_13
REMARK    8  A    between atoms: N_13  and  C_14
REMARK    9  A    between atoms: C_14  and  C_15
REMARK   10  A    between atoms: C_21  and  C_22
REMARK   11  A    between atoms: C_21  and  C_23
REMARK   12  A    between atoms: C_26  and  C_27
REMARK   13  A    between atoms: C_26  and  C_28
REMARK                            x       y       z     vdW  Elec       q    Type
REMARK                         _______ _______ _______ _____ _____    ______ ____
ROOT
ATOM      1  C   UNL     1       3.664   6.255  19.040  0.00  0.00    +0.000 C 
ENDROOT
BRANCH   1   2
ATOM      2  C   UNL     1       2.750   7.448  18.866  0.00  0.00    +0.000 A 
ATOM      3  C   UNL     1       2.578   8.169  17.669  0.00  0.00    +0.000 A 
ATOM      4  C   UNL     1       1.649   9.221  17.589  0.00  0.00    +0.000 A 
ATOM      5  C   UNL     1       0.901   9.556  18.713  0.00  0.00    +0.000 A 
ATOM      6  C   UNL     1       1.094   8.875  19.918  0.00  0.00    +0.000 A 
ATOM      7  C   UNL     1       2.005   7.832  20.002  0.00  0.00    +0.000 A 
ATOM      8  C   UNL     1       0.200   9.476  20.997  0.00  0.00    +0.000 C 
ATOM      9  C   UNL     1      -0.470   8.394  21.864  0.00  0.00    +0.000 C 
ATOM     10  C   UNL     1       1.102  10.350  21.903  0.00  0.00    +0.000 C 
ATOM     11  N   UNL     1      -0.834  10.176  20.179  0.00  0.00    +0.000 NA
ATOM     12  O   UNL     1      -1.474  11.212  20.858  0.00  0.00    +0.000 OA
ATOM     13  C   UNL     1      -0.205  10.595  18.888  0.00  0.00    +0.000 C 
ATOM     14  C   UNL     1       0.398  12.018  18.849  0.00  0.00    +0.000 C 
ATOM     15  C   UNL     1      -1.241  10.463  17.754  0.00  0.00    +0.000 C 
ENDBRANCH   1   2
BRANCH   1  16
ATOM     16  N   UNL     1       4.671   6.002  17.997  0.00  0.00    +0.000 NA
ATOM     17  H   UNL     1       4.238   6.131  17.084  0.00  0.00    +0.000 HD
BRANCH  16  18
ATOM     18  C   UNL     1       5.220   4.631  18.119  0.00  0.00    +0.000 C 
ATOM     19  C   UNL     1       6.717   4.645  17.791  0.00  0.00    +0.000 C 
BRANCH  18  20
ATOM     20  C   UNL     1       4.504   3.576  17.228  0.00  0.00    +0.000 C 
BRANCH  20  21
ATOM     21  O   UNL     1       3.902   2.579  18.046  0.00  0.00    +0.000 OA
BRANCH  21  29
ATOM     22  C   UNL     1       1.172   4.110  17.560  0.00  0.00    +0.000 C 
ATOM     23  C   UNL     1       1.730   3.557  18.843  0.00  0.00    +0.000 A 
ATOM     24  C   UNL     1       0.915   3.740  19.983  0.00  0.00    +0.000 A 
ATOM     25  C   UNL     1       1.306   3.306  21.245  0.00  0.00    +0.000 A 
ATOM     26  C   UNL     1       2.532   2.682  21.403  0.00  0.00    +0.000 A 
ATOM     27  C   UNL     1       3.368   2.476  20.297  0.00  0.00    +0.000 A 
ATOM     28  C   UNL     1       4.705   1.820  20.524  0.00  0.00    +0.000 C 
ATOM     29  C   UNL     1       2.968   2.900  19.000  0.00  0.00    +0.000 A 
ENDBRANCH  21  29
ENDBRANCH  20  21
ENDBRANCH  18  20
ENDBRANCH  16  18
ENDBRANCH   1  16
TORSDOF 6
ENDMDL
MODEL 3
REMARK VINA RESULT:      -8.0      0.736      1.896
REMARK  Name = 
REMARK  13 active torsions:
REMARK  status: ('A' for Active; 'I' for Inactive)
REMARK    1  A    between atoms: C_1  and  C_2
REMARK    2  A    between atoms: C_6  and  C_7
REMARK    3  A    between atoms: C_8  and  O_9
REMARK    4  A    between atoms: O_9  and  C_10
REMARK    5  A    between atoms: C_10  and  C_11
REMARK    6  A    between atoms: C_11  and  C_12
REMARK    7  A    between atoms: C_11  and  N_13
REMARK    8  A    between atoms: N_13  and  C_14
REMARK    9  A    between atoms: C_14  and  C_15
REMARK   10  A    between atoms: C_21  and  C_22
REMARK   11  A    between atoms: C_21  and  C_23
REMARK   12  A    between atoms: C_26  and  C_27
REMARK   13  A    between atoms: C_26  and  C_28
REMARK                            x       y       z     vdW  Elec       q    Type
REMARK                         _______ _______ _______ _____ _____    ______ ____
ROOT
ATOM      1  C   UNL     1       3.623   6.801  17.194  0.00  0.00    +0.000 C 
ENDROOT
BRANCH   1   2
ATOM      2  C   UNL     1       2.810   7.308  18.366  0.00  0.00    +0.000 A 
ATOM      3  C   UNL     1       2.653   6.638  19.593  0.00  0.00    +0.000 A 
ATOM      4  C   UNL     1       1.935   7.227  20.648  0.00  0.00    +0.000 A 
ATOM      5  C   UNL     1       1.364   8.483  20.466  0.00  0.00    +0.000 A 
ATOM      6  C   UNL     1       1.477   9.138  19.237  0.00  0.00    +0.000 A 
ATOM      7  C   UNL     1       2.191   8.564  18.194  0.00  0.00    +0.000 A 
ATOM      8  C   UNL     1       0.717  10.458  19.286  0.00  0.00    +0.000 C 
ATOM      9  C   UNL     1       1.502  11.606  18.626  0.00  0.00    +0.000 C 
ATOM     10  C   UNL     1      -0.606  10.251  18.508  0.00  0.00    +0.000 C 
ATOM     11  N   UNL     1       0.617  10.697  20.756  0.00  0.00    +0.000 NA
ATOM     12  O   UNL     1      -0.437  11.535  21.115  0.00  0.00    +0.000 OA
ATOM     13  C   UNL     1       0.598   9.369  21.446  0.00  0.00    +0.000 C 
ATOM     14  C   UNL     1      -0.796   8.763  21.726  0.00  0.00    +0.000 C 
ATOM     15  C   UNL     1       1.369   9.479  22.777  0.00  0.00    +0.000 C 
ENDBRANCH   1   2
BRANCH   1  16
ATOM     16  N   UNL     1       5.001   6.352  17.456  0.00  0.00    +0.000 NA
ATOM     17  H   UNL     1       5.442   6.112  16.568  0.00  0.00    +0.000 HD
BRANCH  16  18
ATOM     18  C   UNL     1       5.009   5.185  18.368  0.00  0.00    +0.000 C 
ATOM     19  C   UNL     1       6.196   5.293  19.331  0.00  0.00    +0.000 C 
BRANCH  18  20
ATOM     20  C   UNL     1       5.052   3.809  17.644  0.00  0.00    +0.000 C 
BRANCH  20  21
ATOM     21  O   UNL     1       3.772   3.190  17.702  0.00  0.00    +0.000 OA
BRANCH  21  29
ATOM     22  C   UNL     1       4.848   1.972  20.421  0.00  0.00    +0.000 C 
ATOM     23  C   UNL     1       3.504   2.580  20.124  0.00  0.00    +0.000 A 
ATOM     24  C   UNL     1       2.606   2.620  21.215  0.00  0.00    +0.000 A 
ATOM     25  C   UNL     1       1.319   3.130  21.091  0.00  0.00    +0.000 A 
ATOM     26  C   UNL     1       0.890   3.608  19.864  0.00  0.00    +0.000 A 
ATOM     27  C   UNL     1       1.750   3.591  18.758  0.00  0.00    +0.000 A 
ATOM     28  C   UNL     1       1.228   4.094  17.438  0.00  0.00    +0.000 C 
ATOM     29  C   UNL     1       3.075   3.089  18.880  0.00  0.00    +0.000 A 
ENDBRANCH  21  29
ENDBRANCH  20  21
ENDBRANCH  18  20
ENDBRANCH  16  18
ENDBRANCH   1  16
TORSDOF 6
ENDMDL
MODEL 4
REMARK VINA RESULT:      -7.8      1.976      8.021
REMARK  Name = 
REMARK  13 active torsions:
REMARK  status: ('A' for Active; 'I' for Inactive)
REMARK    1  A    between atoms: C_1  and  C_2
REMARK    2  A    between atoms: C_6  and  C_7
REMARK    3  A    between atoms: C_8  and  O_9
REMARK    4  A    between atoms: O_9  and  C_10
REMARK    5  A    between atoms: C_10  and  C_11
REMARK    6  A    between atoms: C_11  and  C_12
REMARK    7  A    between atoms: C_11  and  N_13
REMARK    8  A    between atoms: N_13  and  C_14
REMARK    9  A    between atoms: C_14  and  C_15
REMARK   10  A    between atoms: C_21  and  C_22
REMARK   11  A    between atoms: C_21  and  C_23
REMARK   12  A    between atoms: C_26  and  C_27
REMARK   13  A    between atoms: C_26  and  C_28
REMARK                            x       y       z     vdW  Elec       q    Type
REMARK                         _______ _______ _______ _____ _____    ______ ____
ROOT
ATOM      1  C   UNL     1       0.818   7.905  21.190  0.00  0.00    +0.000 C 
ENDROOT
BRANCH   1   2
ATOM      2  C   UNL     1       1.665   6.977  20.346  0.00  0.00    +0.000 A 
ATOM      3  C   UNL     1       2.524   7.384  19.308  0.00  0.00    +0.000 A 
ATOM      4  C   UNL     1       3.325   6.450  18.629  0.00  0.00    +0.000 A 
ATOM      5  C   UNL     1       3.255   5.107  18.984  0.00  0.00    +0.000 A 
ATOM      6  C   UNL     1       2.374   4.686  19.984  0.00  0.00    +0.000 A 
ATOM      7  C   UNL     1       1.585   5.604  20.662  0.00  0.00    +0.000 A 
ATOM      8  C   UNL     1       2.451   3.171  20.131  0.00  0.00    +0.000 C 
ATOM      9  C   UNL     1       2.461   2.731  21.607  0.00  0.00    +0.000 C 
ATOM     10  C   UNL     1       1.194   2.581  19.446  0.00  0.00    +0.000 C 
ATOM     11  N   UNL     1       3.774   2.871  19.510  0.00  0.00    +0.000 NA
ATOM     12  O   UNL     1       3.891   1.561  19.049  0.00  0.00    +0.000 OA
ATOM     13  C   UNL     1       4.046   3.908  18.465  0.00  0.00    +0.000 C 
ATOM     14  C   UNL     1       3.598   3.563  17.026  0.00  0.00    +0.000 C 
ATOM     15  C   UNL     1       5.553   4.231  18.452  0.00  0.00    +0.000 C 
ENDBRANCH   1   2
BRANCH   1  16
ATOM     16  N   UNL     1       1.510   8.823  22.109  0.00  0.00    +0.000 NA
ATOM     17  H   UNL     1       1.445   8.451  23.056  0.00  0.00    +0.000 HD
BRANCH  16  18
ATOM     18  C   UNL     1       0.914  10.178  22.045  0.00  0.00    +0.000 C 
ATOM     19  C   UNL     1      -0.467  10.165  22.708  0.00  0.00    +0.000 C 
BRANCH  18  20
ATOM     20  C   UNL     1       0.793  10.756  20.606  0.00  0.00    +0.000 C 
BRANCH  20  21
ATOM     21  O   UNL     1      -0.468  11.394  20.444  0.00  0.00    +0.000 OA
BRANCH  21  29
ATOM     22  C   UNL     1       0.307   9.648  17.917  0.00  0.00    +0.000 C 
ATOM     23  C   UNL     1      -0.979  10.374  18.206  0.00  0.00    +0.000 A 
ATOM     24  C   UNL     1      -1.978  10.248  17.214  0.00  0.00    +0.000 A 
ATOM     25  C   UNL     1      -3.211  10.881  17.326  0.00  0.00    +0.000 A 
ATOM     26  C   UNL     1      -3.475  11.668  18.434  0.00  0.00    +0.000 A 
ATOM     27  C   UNL     1      -2.514  11.815  19.443  0.00  0.00    +0.000 A 
ATOM     28  C   UNL     1      -2.836  12.706  20.614  0.00  0.00    +0.000 C 
ATOM     29  C   UNL     1      -1.257  11.156  19.346  0.00  0.00    +0.000 A 
ENDBRANCH  21  29
ENDBRANCH  20  21
ENDBRANCH  18  20
ENDBRANCH  16  18
ENDBRANCH   1  16
TORSDOF 6
ENDMDL
MODEL 5
REMARK VINA RESULT:      -7.8      2.288      8.201
REMARK  Name = 
REMARK  13 active torsions:
REMARK  status: ('A' for Active; 'I' for Inactive)
REMARK    1  A    between atoms: C_1  and  C_2
REMARK    2  A    between atoms: C_6  and  C_7
REMARK    3  A    between atoms: C_8  and  O_9
REMARK    4  A    between atoms: O_9  and  C_10
REMARK    5  A    between atoms: C_10  and  C_11
REMARK    6  A    between atoms: C_11  and  C_12
REMARK    7  A    between atoms: C_11  and  N_13
REMARK    8  A    between atoms: N_13  and  C_14
REMARK    9  A    between atoms: C_14  and  C_15
REMARK   10  A    between atoms: C_21  and  C_22
REMARK   11  A    between atoms: C_21  and  C_23
REMARK   12  A    between atoms: C_26  and  C_27
REMARK   13  A    between atoms: C_26  and  C_28
REMARK                            x       y       z     vdW  Elec       q    Type
REMARK                         _______ _______ _______ _____ _____    ______ ____
ROOT
ATOM      1  C   UNL     1       1.244   8.631  21.084  0.00  0.00    +0.000 C 
ENDROOT
BRANCH   1   2
ATOM      2  C   UNL     1       1.768   7.527  20.191  0.00  0.00    +0.000 A 
ATOM      3  C   UNL     1       2.404   7.721  18.951  0.00  0.00    +0.000 A 
ATOM      4  C   UNL     1       2.921   6.632  18.228  0.00  0.00    +0.000 A 
ATOM      5  C   UNL     1       2.788   5.347  18.745  0.00  0.00    +0.000 A 
ATOM      6  C   UNL     1       2.120   5.139  19.955  0.00  0.00    +0.000 A 
ATOM      7  C   UNL     1       1.613   6.211  20.676  0.00  0.00    +0.000 A 
ATOM      8  C   UNL     1       2.062   3.647  20.259  0.00  0.00    +0.000 C 
ATOM      9  C   UNL     1       2.363   3.344  21.738  0.00  0.00    +0.000 C 
ATOM     10  C   UNL     1       0.624   3.170  19.937  0.00  0.00    +0.000 C 
ATOM     11  N   UNL     1       3.166   3.119  19.404  0.00  0.00    +0.000 NA
ATOM     12  O   UNL     1       3.029   1.769  19.086  0.00  0.00    +0.000 OA
ATOM     13  C   UNL     1       3.302   4.012  18.211  0.00  0.00    +0.000 C 
ATOM     14  C   UNL     1       2.500   3.603  16.954  0.00  0.00    +0.000 C 
ATOM     15  C   UNL     1       4.792   4.130  17.833  0.00  0.00    +0.000 C 
ENDBRANCH   1   2
BRANCH   1  16
ATOM     16  N   UNL     1      -0.062   9.224  20.751  0.00  0.00    +0.000 NA
ATOM     17  H   UNL     1      -0.230   9.108  19.752  0.00  0.00    +0.000 HD
BRANCH  16  18
ATOM     18  C   UNL     1      -0.095  10.660  21.115  0.00  0.00    +0.000 C 
ATOM     19  C   UNL     1      -0.747  10.826  22.492  0.00  0.00    +0.000 C 
BRANCH  18  20
ATOM     20  C   UNL     1      -0.826  11.564  20.082  0.00  0.00    +0.000 C 
BRANCH  20  21
ATOM     21  O   UNL     1      -2.082  10.990  19.738  0.00  0.00    +0.000 OA
BRANCH  21  29
ATOM     22  C   UNL     1      -0.532   9.533  17.391  0.00  0.00    +0.000 C 
ATOM     23  C   UNL     1      -1.861  10.239  17.351  0.00  0.00    +0.000 A 
ATOM     24  C   UNL     1      -2.506  10.239  16.094  0.00  0.00    +0.000 A 
ATOM     25  C   UNL     1      -3.728  10.871  15.893  0.00  0.00    +0.000 A 
ATOM     26  C   UNL     1      -4.336  11.530  16.948  0.00  0.00    +0.000 A 
ATOM     27  C   UNL     1      -3.733  11.549  18.213  0.00  0.00    +0.000 A 
ATOM     28  C   UNL     1      -4.418  12.304  19.321  0.00  0.00    +0.000 C 
ATOM     29  C   UNL     1      -2.492  10.889  18.432  0.00  0.00    +0.000 A 
ENDBRANCH  21  29
ENDBRANCH  20  21
ENDBRANCH  18  20
ENDBRANCH  16  18
ENDBRANCH   1  16
TORSDOF 6
ENDMDL
MODEL 6
REMARK VINA RESULT:      -7.8      0.995      2.891
REMARK  Name = 
REMARK  13 active torsions:
REMARK  status: ('A' for Active; 'I' for Inactive)
REMARK    1  A    between atoms: C_1  and  C_2
REMARK    2  A    between atoms: C_6  and  C_7
REMARK    3  A    between atoms: C_8  and  O_9
REMARK    4  A    between atoms: O_9  and  C_10
REMARK    5  A    between atoms: C_10  and  C_11
REMARK    6  A    between atoms: C_11  and  C_12
REMARK    7  A    between atoms: C_11  and  N_13
REMARK    8  A    between atoms: N_13  and  C_14
REMARK    9  A    between atoms: C_14  and  C_15
REMARK   10  A    between atoms: C_21  and  C_22
REMARK   11  A    between atoms: C_21  and  C_23
REMARK   12  A    between atoms: C_26  and  C_27
REMARK   13  A    between atoms: C_26  and  C_28
REMARK                            x       y       z     vdW  Elec       q    Type
REMARK                         _______ _______ _______ _____ _____    ______ ____
ROOT
ATOM      1  C   UNL     1       3.515   6.225  19.247  0.00  0.00    +0.000 C 
ENDROOT
BRANCH   1   2
ATOM      2  C   UNL     1       2.627   7.430  19.019  0.00  0.00    +0.000 A 
ATOM      3  C   UNL     1       2.458   8.091  17.789  0.00  0.00    +0.000 A 
ATOM      4  C   UNL     1       1.553   9.159  17.664  0.00  0.00    +0.000 A 
ATOM      5  C   UNL     1       0.827   9.570  18.777  0.00  0.00    +0.000 A 
ATOM      6  C   UNL     1       1.018   8.948  20.014  0.00  0.00    +0.000 A 
ATOM      7  C   UNL     1       1.906   7.889  20.142  0.00  0.00    +0.000 A 
ATOM      8  C   UNL     1       0.152   9.626  21.068  0.00  0.00    +0.000 C 
ATOM      9  C   UNL     1      -0.533   8.607  21.998  0.00  0.00    +0.000 C 
ATOM     10  C   UNL     1       1.085  10.524  21.918  0.00  0.00    +0.000 C 
ATOM     11  N   UNL     1      -0.876  10.307  20.227  0.00  0.00    +0.000 NA
ATOM     12  O   UNL     1      -1.483  11.392  20.857  0.00  0.00    +0.000 OA
ATOM     13  C   UNL     1      -0.252  10.643  18.908  0.00  0.00    +0.000 C 
ATOM     14  C   UNL     1       0.383  12.047  18.789  0.00  0.00    +0.000 C 
ATOM     15  C   UNL     1      -1.304  10.477  17.794  0.00  0.00    +0.000 C 
ENDBRANCH   1   2
BRANCH   1  16
ATOM     16  N   UNL     1       4.726   6.097  18.419  0.00  0.00    +0.000 NA
ATOM     17  H   UNL     1       4.545   6.516  17.506  0.00  0.00    +0.000 HD
BRANCH  16  18
ATOM     18  C   UNL     1       5.111   4.675  18.267  0.00  0.00    +0.000 C 
ATOM     19  C   UNL     1       6.610   4.576  17.965  0.00  0.00    +0.000 C 
BRANCH  18  20
ATOM     20  C   UNL     1       4.310   3.910  17.174  0.00  0.00    +0.000 C 
BRANCH  20  21
ATOM     21  O   UNL     1       3.646   2.792  17.753  0.00  0.00    +0.000 OA
BRANCH  21  29
ATOM     22  C   UNL     1       4.745   1.765  20.540  0.00  0.00    +0.000 C 
ATOM     23  C   UNL     1       3.450   2.467  20.236  0.00  0.00    +0.000 A 
ATOM     24  C   UNL     1       2.618   2.709  21.353  0.00  0.00    +0.000 A 
ATOM     25  C   UNL     1       1.379   3.327  21.228  0.00  0.00    +0.000 A 
ATOM     26  C   UNL     1       0.933   3.714  19.976  0.00  0.00    +0.000 A 
ATOM     27  C   UNL     1       1.729   3.498  18.843  0.00  0.00    +0.000 A 
ATOM     28  C   UNL     1       1.187   3.910  17.499  0.00  0.00    +0.000 C 
ATOM     29  C   UNL     1       3.006   2.884  18.963  0.00  0.00    +0.000 A 
ENDBRANCH  21  29
ENDBRANCH  20  21
ENDBRANCH  18  20
ENDBRANCH  16  18
ENDBRANCH   1  16
TORSDOF 6
ENDMDL
MODEL 7
REMARK VINA RESULT:      -7.8      2.552      8.279
REMARK  Name = 
REMARK  13 active torsions:
REMARK  status: ('A' for Active; 'I' for Inactive)
REMARK    1  A    between atoms: C_1  and  C_2
REMARK    2  A    between atoms: C_6  and  C_7
REMARK    3  A    between atoms: C_8  and  O_9
REMARK    4  A    between atoms: O_9  and  C_10
REMARK    5  A    between atoms: C_10  and  C_11
REMARK    6  A    between atoms: C_11  and  C_12
REMARK    7  A    between atoms: C_11  and  N_13
REMARK    8  A    between atoms: N_13  and  C_14
REMARK    9  A    between atoms: C_14  and  C_15
REMARK   10  A    between atoms: C_21  and  C_22
REMARK   11  A    between atoms: C_21  and  C_23
REMARK   12  A    between atoms: C_26  and  C_27
REMARK   13  A    between atoms: C_26  and  C_28
REMARK                            x       y       z     vdW  Elec       q    Type
REMARK                         _______ _______ _______ _____ _____    ______ ____
ROOT
ATOM      1  C   UNL     1       1.090   8.198  21.173  0.00  0.00    +0.000 C 
ENDROOT
BRANCH   1   2
ATOM      2  C   UNL     1       1.773   7.188  20.277  0.00  0.00    +0.000 A 
ATOM      3  C   UNL     1       2.552   7.502  19.149  0.00  0.00    +0.000 A 
ATOM      4  C   UNL     1       3.206   6.493  18.421  0.00  0.00    +0.000 A 
ATOM      5  C   UNL     1       3.067   5.167  18.819  0.00  0.00    +0.000 A 
ATOM      6  C   UNL     1       2.261   4.840  19.913  0.00  0.00    +0.000 A 
ATOM      7  C   UNL     1       1.618   5.832  20.639  0.00  0.00    +0.000 A 
ATOM      8  C   UNL     1       2.233   3.327  20.095  0.00  0.00    +0.000 C 
ATOM      9  C   UNL     1       2.356   2.919  21.575  0.00  0.00    +0.000 C 
ATOM     10  C   UNL     1       0.871   2.827  19.554  0.00  0.00    +0.000 C 
ATOM     11  N   UNL     1       3.460   2.909  19.355  0.00  0.00    +0.000 NA
ATOM     12  O   UNL     1       3.426   1.584  18.923  0.00  0.00    +0.000 OA
ATOM     13  C   UNL     1       3.706   3.898  18.260  0.00  0.00    +0.000 C 
ATOM     14  C   UNL     1       3.090   3.561  16.882  0.00  0.00    +0.000 C 
ATOM     15  C   UNL     1       5.224   4.098  18.089  0.00  0.00    +0.000 C 
ENDBRANCH   1   2
BRANCH   1  16
ATOM     16  N   UNL     1       1.253   9.625  20.850  0.00  0.00    +0.000 NA
ATOM     17  H   UNL     1       1.118  10.171  21.701  0.00  0.00    +0.000 HD
BRANCH  16  18
ATOM     18  C   UNL     1       0.284  10.043  19.811  0.00  0.00    +0.000 C 
ATOM     19  C   UNL     1       1.000  10.881  18.747  0.00  0.00    +0.000 C 
BRANCH  18  20
ATOM     20  C   UNL     1      -0.939  10.834  20.358  0.00  0.00    +0.000 C 
BRANCH  20  21
ATOM     21  O   UNL     1      -1.429  11.722  19.359  0.00  0.00    +0.000 OA
BRANCH  21  29
ATOM     22  C   UNL     1      -2.139   9.904  16.865  0.00  0.00    +0.000 C 
ATOM     23  C   UNL     1      -3.054  10.751  17.708  0.00  0.00    +0.000 A 
ATOM     24  C   UNL     1      -4.418  10.718  17.338  0.00  0.00    +0.000 A 
ATOM     25  C   UNL     1      -5.380  11.466  18.007  0.00  0.00    +0.000 A 
ATOM     26  C   UNL     1      -5.001  12.277  19.063  0.00  0.00    +0.000 A 
ATOM     27  C   UNL     1      -3.660  12.334  19.466  0.00  0.00    +0.000 A 
ATOM     28  C   UNL     1      -3.292  13.254  20.600  0.00  0.00    +0.000 C 
ATOM     29  C   UNL     1      -2.671  11.558  18.800  0.00  0.00    +0.000 A 
ENDBRANCH  21  29
ENDBRANCH  20  21
ENDBRANCH  18  20
ENDBRANCH  16  18
ENDBRANCH   1  16
TORSDOF 6
ENDMDL
MODEL 8
REMARK VINA RESULT:      -7.7      2.186      8.041
REMARK  Name = 
REMARK  13 active torsions:
REMARK  status: ('A' for Active; 'I' for Inactive)
REMARK    1  A    between atoms: C_1  and  C_2
REMARK    2  A    between atoms: C_6  and  C_7
REMARK    3  A    between atoms: C_8  and  O_9
REMARK    4  A    between atoms: O_9  and  C_10
REMARK    5  A    between atoms: C_10  and  C_11
REMARK    6  A    between atoms: C_11  and  C_12
REMARK    7  A    between atoms: C_11  and  N_13
REMARK    8  A    between atoms: N_13  and  C_14
REMARK    9  A    between atoms: C_14  and  C_15
REMARK   10  A    between atoms: C_21  and  C_22
REMARK   11  A    between atoms: C_21  and  C_23
REMARK   12  A    between atoms: C_26  and  C_27
REMARK   13  A    between atoms: C_26  and  C_28
REMARK                            x       y       z     vdW  Elec       q    Type
REMARK                         _______ _______ _______ _____ _____    ______ ____
ROOT
ATOM      1  C   UNL     1       1.446   8.700  21.178  0.00  0.00    +0.000 C 
ENDROOT
BRANCH   1   2
ATOM      2  C   UNL     1       1.847   7.576  20.247  0.00  0.00    +0.000 A 
ATOM      3  C   UNL     1       2.392   7.745  18.961  0.00  0.00    +0.000 A 
ATOM      4  C   UNL     1       2.801   6.636  18.200  0.00  0.00    +0.000 A 
ATOM      5  C   UNL     1       2.653   5.357  18.727  0.00  0.00    +0.000 A 
ATOM      6  C   UNL     1       2.074   5.175  19.987  0.00  0.00    +0.000 A 
ATOM      7  C   UNL     1       1.674   6.267  20.744  0.00  0.00    +0.000 A 
ATOM      8  C   UNL     1       1.974   3.686  20.296  0.00  0.00    +0.000 C 
ATOM      9  C   UNL     1       2.377   3.367  21.747  0.00  0.00    +0.000 C 
ATOM     10  C   UNL     1       0.496   3.275  20.090  0.00  0.00    +0.000 C 
ATOM     11  N   UNL     1       2.983   3.112  19.357  0.00  0.00    +0.000 NA
ATOM     12  O   UNL     1       2.762   1.770  19.053  0.00  0.00    +0.000 OA
ATOM     13  C   UNL     1       3.063   4.001  18.156  0.00  0.00    +0.000 C 
ATOM     14  C   UNL     1       2.147   3.631  16.967  0.00  0.00    +0.000 C 
ATOM     15  C   UNL     1       4.522   4.054  17.662  0.00  0.00    +0.000 C 
ENDBRANCH   1   2
BRANCH   1  16
ATOM     16  N   UNL     1       0.085   9.247  21.048  0.00  0.00    +0.000 NA
ATOM     17  H   UNL     1      -0.109   9.415  20.061  0.00  0.00    +0.000 HD
BRANCH  16  18
ATOM     18  C   UNL     1      -0.052  10.503  21.821  0.00  0.00    +0.000 C 
ATOM     19  C   UNL     1      -0.867  10.240  23.092  0.00  0.00    +0.000 C 
BRANCH  18  20
ATOM     20  C   UNL     1      -0.696  11.676  21.026  0.00  0.00    +0.000 C 
BRANCH  20  21
ATOM     21  O   UNL     1      -0.695  11.376  19.635  0.00  0.00    +0.000 OA
BRANCH  21  29
ATOM     22  C   UNL     1      -3.431  12.859  20.223  0.00  0.00    +0.000 C 
ATOM     23  C   UNL     1      -3.103  11.881  19.128  0.00  0.00    +0.000 A 
ATOM     24  C   UNL     1      -4.161  11.598  18.235  0.00  0.00    +0.000 A 
ATOM     25  C   UNL     1      -4.019  10.696  17.186  0.00  0.00    +0.000 A 
ATOM     26  C   UNL     1      -2.810  10.044  17.007  0.00  0.00    +0.000 A 
ATOM     27  C   UNL     1      -1.733  10.301  17.866  0.00  0.00    +0.000 A 
ATOM     28  C   UNL     1      -0.449   9.545  17.648  0.00  0.00    +0.000 C 
ATOM     29  C   UNL     1      -1.864  11.236  18.929  0.00  0.00    +0.000 A 
ENDBRANCH  21  29
ENDBRANCH  20  21
ENDBRANCH  18  20
ENDBRANCH  16  18
ENDBRANCH   1  16
TORSDOF 6
ENDMDL
MODEL 9
REMARK VINA RESULT:      -7.7      2.302      6.928
REMARK  Name = 
REMARK  13 active torsions:
REMARK  status: ('A' for Active; 'I' for Inactive)
REMARK    1  A    between atoms: C_1  and  C_2
REMARK    2  A    between atoms: C_6  and  C_7
REMARK    3  A    between atoms: C_8  and  O_9
REMARK    4  A    between atoms: O_9  and  C_10
REMARK    5  A    between atoms: C_10  and  C_11
REMARK    6  A    between atoms: C_11  and  C_12
REMARK    7  A    between atoms: C_11  and  N_13
REMARK    8  A    between atoms: N_13  and  C_14
REMARK    9  A    between atoms: C_14  and  C_15
REMARK   10  A    between atoms: C_21  and  C_22
REMARK   11  A    between atoms: C_21  and  C_23
REMARK   12  A    between atoms: C_26  and  C_27
REMARK   13  A    between atoms: C_26  and  C_28
REMARK                            x       y       z     vdW  Elec       q    Type
REMARK                         _______ _______ _______ _____ _____    ______ ____
ROOT
ATOM      1  C   UNL     1       2.180   2.610  18.410  0.00  0.00    +0.000 C 
ENDROOT
BRANCH   1   2
ATOM      2  C   UNL     1       3.494   3.353  18.294  0.00  0.00    +0.000 A 
ATOM      3  C   UNL     1       4.315   3.721  19.375  0.00  0.00    +0.000 A 
ATOM      4  C   UNL     1       5.555   4.347  19.158  0.00  0.00    +0.000 A 
ATOM      5  C   UNL     1       5.964   4.614  17.855  0.00  0.00    +0.000 A 
ATOM      6  C   UNL     1       5.137   4.291  16.776  0.00  0.00    +0.000 A 
ATOM      7  C   UNL     1       3.915   3.667  16.984  0.00  0.00    +0.000 A 
ATOM      8  C   UNL     1       5.791   4.741  15.475  0.00  0.00    +0.000 C 
ATOM      9  C   UNL     1       5.658   3.685  14.362  0.00  0.00    +0.000 C 
ATOM     10  C   UNL     1       5.067   6.033  15.023  0.00  0.00    +0.000 C 
ATOM     11  N   UNL     1       7.222   4.865  15.881  0.00  0.00    +0.000 NA
ATOM     12  O   UNL     1       7.961   5.724  15.069  0.00  0.00    +0.000 OA
ATOM     13  C   UNL     1       7.267   5.216  17.335  0.00  0.00    +0.000 C 
ATOM     14  C   UNL     1       7.324   6.723  17.674  0.00  0.00    +0.000 C 
ATOM     15  C   UNL     1       8.474   4.514  17.989  0.00  0.00    +0.000 C 
ENDBRANCH   1   2
BRANCH   1  16
ATOM     16  N   UNL     1       1.068   3.284  19.100  0.00  0.00    +0.000 NA
ATOM     17  H   UNL     1       0.568   3.864  18.426  0.00  0.00    +0.000 HD
BRANCH  16  18
ATOM     18  C   UNL     1       1.568   4.111  20.222  0.00  0.00    +0.000 C 
ATOM     19  C   UNL     1       1.517   3.301  21.521  0.00  0.00    +0.000 C 
BRANCH  18  20
ATOM     20  C   UNL     1       0.806   5.453  20.416  0.00  0.00    +0.000 C 
BRANCH  20  21
ATOM     21  O   UNL     1       1.731   6.506  20.659  0.00  0.00    +0.000 OA
BRANCH  21  29
ATOM     22  C   UNL     1       3.072   7.034  17.839  0.00  0.00    +0.000 C 
ATOM     23  C   UNL     1       2.245   7.967  18.682  0.00  0.00    +0.000 A 
ATOM     24  C   UNL     1       2.032   9.250  18.128  0.00  0.00    +0.000 A 
ATOM     25  C   UNL     1       1.309  10.230  18.799  0.00  0.00    +0.000 A 
ATOM     26  C   UNL     1       0.784   9.954  20.050  0.00  0.00    +0.000 A 
ATOM     27  C   UNL     1       0.967   8.692  20.632  0.00  0.00    +0.000 A 
ATOM     28  C   UNL     1       0.404   8.450  22.008  0.00  0.00    +0.000 C 
ATOM     29  C   UNL     1       1.690   7.678  19.946  0.00  0.00    +0.000 A 
ENDBRANCH  21  29
ENDBRANCH  20  21
ENDBRANCH  18  20
ENDBRANCH  16  18
ENDBRANCH   1  16
TORSDOF 6
ENDMDL
