MODEL 1
REMARK VINA RESULT:      -7.5      0.000      0.000
REMARK  Name = 
REMARK  5 active torsions:
REMARK  status: ('A' for Active; 'I' for Inactive)
REMARK    1  A    between atoms: C_1  and  O_2
REMARK    2  A    between atoms: O_2  and  C_3
REMARK    3  A    between atoms: C_6  and  C_7
REMARK    4  A    between atoms: C_7  and  C_8
REMARK    5  A    between atoms: C_10  and  C_11
REMARK                            x       y       z     vdW  Elec       q    Type
REMARK                         _______ _______ _______ _____ _____    ______ ____
ROOT
ATOM      1  C   UNL     1       5.371   5.458  15.931  0.00  0.00    +0.000 A 
ATOM      2  C   UNL     1       5.081   4.783  14.804  0.00  0.00    +0.000 A 
ATOM      3  C   UNL     1       6.115   4.357  13.888  0.00  0.00    +0.000 A 
ATOM      4  C   UNL     1       7.373   4.706  14.180  0.00  0.00    +0.000 A 
ATOM      5  O   UNL     1       7.736   5.411  15.335  0.00  0.00    +0.000 OA
ATOM      6  C   UNL     1       6.788   5.784  16.251  0.00  0.00    +0.000 A 
ATOM      7  O   UNL     1       7.095   6.389  17.274  0.00  0.00    +0.000 OA
ENDROOT
BRANCH   3   8
ATOM      8  C   UNL     1       5.766   3.587  12.645  0.00  0.00    +0.000 C 
ATOM      9  F   UNL     1       6.062   2.265  12.744  0.00  0.00    +0.000 F 
ATOM     10  F   UNL     1       4.442   3.671  12.360  0.00  0.00    +0.000 F 
ATOM     11  F   UNL     1       6.432   4.059  11.560  0.00  0.00    +0.000 F 
ENDBRANCH   3   8
BRANCH   1  12
ATOM     12  C   UNL     1       4.317   6.024  16.843  0.00  0.00    +0.000 C 
BRANCH  12  16
ATOM     13  C   UNL     1       2.488   3.079  19.432  0.00  0.00    +0.000 A 
ATOM     14  C   UNL     1       1.699   3.979  18.717  0.00  0.00    +0.000 A 
ATOM     15  C   UNL     1       2.286   4.941  17.892  0.00  0.00    +0.000 A 
ATOM     16  C   UNL     1       3.680   5.025  17.780  0.00  0.00    +0.000 A 
ATOM     17  C   UNL     1       4.468   4.146  18.534  0.00  0.00    +0.000 A 
ATOM     18  C   UNL     1       3.877   3.176  19.353  0.00  0.00    +0.000 A 
BRANCH  13  20
ATOM     19  C   UNL     1       1.500   2.597  21.525  0.00  0.00    +0.000 C 
ATOM     20  O   UNL     1       1.800   2.177  20.198  0.00  0.00    +0.000 OA
ENDBRANCH  13  20
ENDBRANCH  12  16
ENDBRANCH   1  12
TORSDOF 4
ENDMDL
MODEL 2
REMARK VINA RESULT:      -7.5      0.368      1.075
REMARK  Name = 
REMARK  5 active torsions:
REMARK  status: ('A' for Active; 'I' for Inactive)
REMARK    1  A    between atoms: C_1  and  O_2
REMARK    2  A    between atoms: O_2  and  C_3
REMARK    3  A    between atoms: C_6  and  C_7
REMARK    4  A    between atoms: C_7  and  C_8
REMARK    5  A    between atoms: C_10  and  C_11
REMARK                            x       y       z     vdW  Elec       q    Type
REMARK                         _______ _______ _______ _____ _____    ______ ____
ROOT
ATOM      1  C   UNL     1       5.316   5.490  16.139  0.00  0.00    +0.000 A 
ATOM      2  C   UNL     1       5.055   4.830  14.997  0.00  0.00    +0.000 A 
ATOM      3  C   UNL     1       6.112   4.424  14.097  0.00  0.00    +0.000 A 
ATOM      4  C   UNL     1       7.361   4.776  14.421  0.00  0.00    +0.000 A 
ATOM      5  O   UNL     1       7.693   5.468  15.593  0.00  0.00    +0.000 OA
ATOM      6  C   UNL     1       6.723   5.821  16.494  0.00  0.00    +0.000 A 
ATOM      7  O   UNL     1       7.004   6.413  17.532  0.00  0.00    +0.000 OA
ENDROOT
BRANCH   3   8
ATOM      8  C   UNL     1       5.795   3.669  12.837  0.00  0.00    +0.000 C 
ATOM      9  F   UNL     1       6.011   2.333  12.953  0.00  0.00    +0.000 F 
ATOM     10  F   UNL     1       4.497   3.825  12.473  0.00  0.00    +0.000 F 
ATOM     11  F   UNL     1       6.549   4.099  11.793  0.00  0.00    +0.000 F 
ENDBRANCH   3   8
BRANCH   1  12
ATOM     12  C   UNL     1       4.239   6.036  17.036  0.00  0.00    +0.000 C 
BRANCH  12  16
ATOM     13  C   UNL     1       2.119   3.171  19.489  0.00  0.00    +0.000 A 
ATOM     14  C   UNL     1       3.409   3.575  19.830  0.00  0.00    +0.000 A 
ATOM     15  C   UNL     1       4.103   4.488  19.031  0.00  0.00    +0.000 A 
ATOM     16  C   UNL     1       3.516   5.003  17.868  0.00  0.00    +0.000 A 
ATOM     17  C   UNL     1       2.236   4.560  17.509  0.00  0.00    +0.000 A 
ATOM     18  C   UNL     1       1.539   3.652  18.315  0.00  0.00    +0.000 A 
BRANCH  13  20
ATOM     19  C   UNL     1       1.676   2.582  21.736  0.00  0.00    +0.000 C 
ATOM     20  O   UNL     1       1.537   2.282  20.351  0.00  0.00    +0.000 OA
ENDBRANCH  13  20
ENDBRANCH  12  16
ENDBRANCH   1  12
TORSDOF 4
ENDMDL
MODEL 3
REMARK VINA RESULT:      -7.4      0.980      1.516
REMARK  Name = 
REMARK  5 active torsions:
REMARK  status: ('A' for Active; 'I' for Inactive)
REMARK    1  A    between atoms: C_1  and  O_2
REMARK    2  A    between atoms: O_2  and  C_3
REMARK    3  A    between atoms: C_6  and  C_7
REMARK    4  A    between atoms: C_7  and  C_8
REMARK    5  A    between atoms: C_10  and  C_11
REMARK                            x       y       z     vdW  Elec       q    Type
REMARK                         _______ _______ _______ _____ _____    ______ ____
ROOT
ATOM      1  C   UNL     1       5.177   5.652  16.451  0.00  0.00    +0.000 A 
ATOM      2  C   UNL     1       5.042   5.085  15.239  0.00  0.00    +0.000 A 
ATOM      3  C   UNL     1       6.177   4.551  14.521  0.00  0.00    +0.000 A 
ATOM      4  C   UNL     1       7.381   4.689  15.088  0.00  0.00    +0.000 A 
ATOM      5  O   UNL     1       7.584   5.274  16.345  0.00  0.00    +0.000 OA
ATOM      6  C   UNL     1       6.525   5.741  17.077  0.00  0.00    +0.000 A 
ATOM      7  O   UNL     1       6.689   6.241  18.186  0.00  0.00    +0.000 OA
ENDROOT
BRANCH   3   8
ATOM      8  C   UNL     1       5.997   3.905  13.176  0.00  0.00    +0.000 C 
ATOM      9  F   UNL     1       4.715   3.962  12.731  0.00  0.00    +0.000 F 
ATOM     10  F   UNL     1       6.767   4.498  12.229  0.00  0.00    +0.000 F 
ATOM     11  F   UNL     1       6.345   2.593  13.200  0.00  0.00    +0.000 F 
ENDBRANCH   3   8
BRANCH   1  12
ATOM     12  C   UNL     1       4.043   6.327  17.173  0.00  0.00    +0.000 C 
BRANCH  12  16
ATOM     13  C   UNL     1       1.643   3.839  19.776  0.00  0.00    +0.000 A 
ATOM     14  C   UNL     1       2.638   4.660  20.304  0.00  0.00    +0.000 A 
ATOM     15  C   UNL     1       3.426   5.453  19.466  0.00  0.00    +0.000 A 
ATOM     16  C   UNL     1       3.235   5.426  18.078  0.00  0.00    +0.000 A 
ATOM     17  C   UNL     1       2.262   4.566  17.551  0.00  0.00    +0.000 A 
ATOM     18  C   UNL     1       1.468   3.779  18.394  0.00  0.00    +0.000 A 
BRANCH  13  20
ATOM     19  C   UNL     1       1.668   2.659  21.825  0.00  0.00    +0.000 C 
ATOM     20  O   UNL     1       0.932   3.117  20.695  0.00  0.00    +0.000 OA
ENDBRANCH  13  20
ENDBRANCH  12  16
ENDBRANCH   1  12
TORSDOF 4
ENDMDL
MODEL 4
REMARK VINA RESULT:      -7.4      2.003      3.009
REMARK  Name = 
REMARK  5 active torsions:
REMARK  status: ('A' for Active; 'I' for Inactive)
REMARK    1  A    between atoms: C_1  and  O_2
REMARK    2  A    between atoms: O_2  and  C_3
REMARK    3  A    between atoms: C_6  and  C_7
REMARK    4  A    between atoms: C_7  and  C_8
REMARK    5  A    between atoms: C_10  and  C_11
REMARK                            x       y       z     vdW  Elec       q    Type
REMARK                         _______ _______ _______ _____ _____    ______ ____
ROOT
ATOM      1  C   UNL     1       5.904   4.154  16.031  0.00  0.00    +0.000 A 
ATOM      2  C   UNL     1       5.460   3.732  14.833  0.00  0.00    +0.000 A 
ATOM      3  C   UNL     1       6.185   4.012  13.614  0.00  0.00    +0.000 A 
ATOM      4  C   UNL     1       7.294   4.754  13.718  0.00  0.00    +0.000 A 
ATOM      5  O   UNL     1       7.802   5.225  14.935  0.00  0.00    +0.000 OA
ATOM      6  C   UNL     1       7.170   4.933  16.116  0.00  0.00    +0.000 A 
ATOM      7  O   UNL     1       7.614   5.326  17.190  0.00  0.00    +0.000 OA
ENDROOT
BRANCH   3   8
ATOM      8  C   UNL     1       5.678   3.513  12.291  0.00  0.00    +0.000 C 
ATOM      9  F   UNL     1       4.350   3.737  12.116  0.00  0.00    +0.000 F 
ATOM     10  F   UNL     1       6.316   4.111  11.253  0.00  0.00    +0.000 F 
ATOM     11  F   UNL     1       5.871   2.176  12.153  0.00  0.00    +0.000 F 
ENDBRANCH   3   8
BRANCH   1  12
ATOM     12  C   UNL     1       5.117   3.990  17.302  0.00  0.00    +0.000 C 
BRANCH  12  16
ATOM     13  C   UNL     1       2.622   7.351  18.399  0.00  0.00    +0.000 A 
ATOM     14  C   UNL     1       2.381   6.088  18.936  0.00  0.00    +0.000 A 
ATOM     15  C   UNL     1       3.174   4.997  18.572  0.00  0.00    +0.000 A 
ATOM     16  C   UNL     1       4.218   5.154  17.652  0.00  0.00    +0.000 A 
ATOM     17  C   UNL     1       4.427   6.417  17.083  0.00  0.00    +0.000 A 
ATOM     18  C   UNL     1       3.637   7.511  17.455  0.00  0.00    +0.000 A 
BRANCH  13  20
ATOM     19  C   UNL     1       1.626   9.450  17.955  0.00  0.00    +0.000 C 
ATOM     20  O   UNL     1       1.786   8.342  18.836  0.00  0.00    +0.000 OA
ENDBRANCH  13  20
ENDBRANCH  12  16
ENDBRANCH   1  12
TORSDOF 4
ENDMDL
MODEL 5
REMARK VINA RESULT:      -7.4      0.621      1.065
REMARK  Name = 
REMARK  5 active torsions:
REMARK  status: ('A' for Active; 'I' for Inactive)
REMARK    1  A    between atoms: C_1  and  O_2
REMARK    2  A    between atoms: O_2  and  C_3
REMARK    3  A    between atoms: C_6  and  C_7
REMARK    4  A    between atoms: C_7  and  C_8
REMARK    5  A    between atoms: C_10  and  C_11
REMARK                            x       y       z     vdW  Elec       q    Type
REMARK                         _______ _______ _______ _____ _____    ______ ____
ROOT
ATOM      1  C   UNL     1       5.284   5.823  16.360  0.00  0.00    +0.000 A 
ATOM      2  C   UNL     1       5.086   5.111  15.237  0.00  0.00    +0.000 A 
ATOM      3  C   UNL     1       6.190   4.685  14.405  0.00  0.00    +0.000 A 
ATOM      4  C   UNL     1       7.417   5.071  14.771  0.00  0.00    +0.000 A 
ATOM      5  O   UNL     1       7.684   5.816  15.927  0.00  0.00    +0.000 OA
ATOM      6  C   UNL     1       6.668   6.191  16.767  0.00  0.00    +0.000 A 
ATOM      7  O   UNL     1       6.891   6.830  17.790  0.00  0.00    +0.000 OA
ENDROOT
BRANCH   3   8
ATOM      8  C   UNL     1       5.944   3.874  13.164  0.00  0.00    +0.000 C 
ATOM      9  F   UNL     1       4.668   3.977  12.711  0.00  0.00    +0.000 F 
ATOM     10  F   UNL     1       6.754   4.260  12.146  0.00  0.00    +0.000 F 
ATOM     11  F   UNL     1       6.180   2.553  13.375  0.00  0.00    +0.000 F 
ENDBRANCH   3   8
BRANCH   1  12
ATOM     12  C   UNL     1       4.158   6.388  17.183  0.00  0.00    +0.000 C 
BRANCH  12  16
ATOM     13  C   UNL     1       2.155   3.430  19.623  0.00  0.00    +0.000 A 
ATOM     14  C   UNL     1       1.490   4.034  18.558  0.00  0.00    +0.000 A 
ATOM     15  C   UNL     1       2.128   5.002  17.778  0.00  0.00    +0.000 A 
ATOM     16  C   UNL     1       3.444   5.388  18.061  0.00  0.00    +0.000 A 
ATOM     17  C   UNL     1       4.092   4.807  19.160  0.00  0.00    +0.000 A 
ATOM     18  C   UNL     1       3.454   3.832  19.936  0.00  0.00    +0.000 A 
BRANCH  13  20
ATOM     19  C   UNL     1       1.485   2.587  21.729  0.00  0.00    +0.000 C 
ATOM     20  O   UNL     1       1.431   2.492  20.309  0.00  0.00    +0.000 OA
ENDBRANCH  13  20
ENDBRANCH  12  16
ENDBRANCH   1  12
TORSDOF 4
ENDMDL
MODEL 6
REMARK VINA RESULT:      -7.3      1.166      1.595
REMARK  Name = 
REMARK  5 active torsions:
REMARK  status: ('A' for Active; 'I' for Inactive)
REMARK    1  A    between atoms: C_1  and  O_2
REMARK    2  A    between atoms: O_2  and  C_3
REMARK    3  A    between atoms: C_6  and  C_7
REMARK    4  A    between atoms: C_7  and  C_8
REMARK    5  A    between atoms: C_10  and  C_11
REMARK                            x       y       z     vdW  Elec       q    Type
REMARK                         _______ _______ _______ _____ _____    ______ ____
ROOT
ATOM      1  C   UNL     1       5.211   5.823  16.536  0.00  0.00    +0.000 A 
ATOM      2  C   UNL     1       5.098   5.273  15.314  0.00  0.00    +0.000 A 
ATOM      3  C   UNL     1       6.204   4.584  14.688  0.00  0.00    +0.000 A 
ATOM      4  C   UNL     1       7.365   4.557  15.353  0.00  0.00    +0.000 A 
ATOM      5  O   UNL     1       7.543   5.115  16.626  0.00  0.00    +0.000 OA
ATOM      6  C   UNL     1       6.502   5.729  17.271  0.00  0.00    +0.000 A 
ATOM      7  O   UNL     1       6.642   6.207  18.393  0.00  0.00    +0.000 OA
ENDROOT
BRANCH   3   8
ATOM      8  C   UNL     1       6.047   3.961  13.329  0.00  0.00    +0.000 C 
ATOM      9  F   UNL     1       6.850   4.529  12.392  0.00  0.00    +0.000 F 
ATOM     10  F   UNL     1       6.344   2.637  13.349  0.00  0.00    +0.000 F 
ATOM     11  F   UNL     1       4.773   4.071  12.872  0.00  0.00    +0.000 F 
ENDBRANCH   3   8
BRANCH   1  12
ATOM     12  C   UNL     1       4.126   6.653  17.166  0.00  0.00    +0.000 C 
BRANCH  12  16
ATOM     13  C   UNL     1       1.594   4.436  19.886  0.00  0.00    +0.000 A 
ATOM     14  C   UNL     1       1.862   3.943  18.610  0.00  0.00    +0.000 A 
ATOM     15  C   UNL     1       2.666   4.663  17.724  0.00  0.00    +0.000 A 
ATOM     16  C   UNL     1       3.206   5.900  18.099  0.00  0.00    +0.000 A 
ATOM     17  C   UNL     1       2.898   6.410  19.367  0.00  0.00    +0.000 A 
ATOM     18  C   UNL     1       2.099   5.682  20.258  0.00  0.00    +0.000 A 
BRANCH  13  20
ATOM     19  C   UNL     1       1.489   2.682  21.469  0.00  0.00    +0.000 C 
ATOM     20  O   UNL     1       0.802   3.639  20.668  0.00  0.00    +0.000 OA
ENDBRANCH  13  20
ENDBRANCH  12  16
ENDBRANCH   1  12
TORSDOF 4
ENDMDL
MODEL 7
REMARK VINA RESULT:      -7.3      2.016      2.862
REMARK  Name = 
REMARK  5 active torsions:
REMARK  status: ('A' for Active; 'I' for Inactive)
REMARK    1  A    between atoms: C_1  and  O_2
REMARK    2  A    between atoms: O_2  and  C_3
REMARK    3  A    between atoms: C_6  and  C_7
REMARK    4  A    between atoms: C_7  and  C_8
REMARK    5  A    between atoms: C_10  and  C_11
REMARK                            x       y       z     vdW  Elec       q    Type
REMARK                         _______ _______ _______ _____ _____    ______ ____
ROOT
ATOM      1  C   UNL     1       5.917   4.190  16.213  0.00  0.00    +0.000 A 
ATOM      2  C   UNL     1       5.496   3.741  15.018  0.00  0.00    +0.000 A 
ATOM      3  C   UNL     1       6.199   4.062  13.796  0.00  0.00    +0.000 A 
ATOM      4  C   UNL     1       7.262   4.869  13.896  0.00  0.00    +0.000 A 
ATOM      5  O   UNL     1       7.745   5.371  15.111  0.00  0.00    +0.000 OA
ATOM      6  C   UNL     1       7.135   5.043  16.294  0.00  0.00    +0.000 A 
ATOM      7  O   UNL     1       7.558   5.464  17.366  0.00  0.00    +0.000 OA
ENDROOT
BRANCH   3   8
ATOM      8  C   UNL     1       5.719   3.531  12.475  0.00  0.00    +0.000 C 
ATOM      9  F   UNL     1       5.919   2.195  12.339  0.00  0.00    +0.000 F 
ATOM     10  F   UNL     1       4.390   3.748  12.303  0.00  0.00    +0.000 F 
ATOM     11  F   UNL     1       6.353   4.131  11.434  0.00  0.00    +0.000 F 
ENDBRANCH   3   8
BRANCH   1  12
ATOM     12  C   UNL     1       5.145   3.981  17.488  0.00  0.00    +0.000 C 
BRANCH  12  16
ATOM     13  C   UNL     1       2.633   7.300  18.672  0.00  0.00    +0.000 A 
ATOM     14  C   UNL     1       3.415   7.381  17.520  0.00  0.00    +0.000 A 
ATOM     15  C   UNL     1       4.239   6.318  17.143  0.00  0.00    +0.000 A 
ATOM     16  C   UNL     1       4.302   5.157  17.924  0.00  0.00    +0.000 A 
ATOM     17  C   UNL     1       3.547   5.099  19.103  0.00  0.00    +0.000 A 
ATOM     18  C   UNL     1       2.715   6.162  19.475  0.00  0.00    +0.000 A 
BRANCH  13  20
ATOM     19  C   UNL     1       1.813   9.380  17.903  0.00  0.00    +0.000 C 
ATOM     20  O   UNL     1       1.861   8.398  18.934  0.00  0.00    +0.000 OA
ENDBRANCH  13  20
ENDBRANCH  12  16
ENDBRANCH   1  12
TORSDOF 4
ENDMDL
MODEL 8
REMARK VINA RESULT:      -7.1      4.879      6.367
REMARK  Name = 
REMARK  5 active torsions:
REMARK  status: ('A' for Active; 'I' for Inactive)
REMARK    1  A    between atoms: C_1  and  O_2
REMARK    2  A    between atoms: O_2  and  C_3
REMARK    3  A    between atoms: C_6  and  C_7
REMARK    4  A    between atoms: C_7  and  C_8
REMARK    5  A    between atoms: C_10  and  C_11
REMARK                            x       y       z     vdW  Elec       q    Type
REMARK                         _______ _______ _______ _____ _____    ______ ____
ROOT
ATOM      1  C   UNL     1       3.614   5.455  18.689  0.00  0.00    +0.000 A 
ATOM      2  C   UNL     1       2.574   4.659  18.995  0.00  0.00    +0.000 A 
ATOM      3  C   UNL     1       2.766   3.362  19.604  0.00  0.00    +0.000 A 
ATOM      4  C   UNL     1       4.027   2.961  19.807  0.00  0.00    +0.000 A 
ATOM      5  O   UNL     1       5.149   3.744  19.505  0.00  0.00    +0.000 OA
ATOM      6  C   UNL     1       5.002   5.000  18.977  0.00  0.00    +0.000 A 
ATOM      7  O   UNL     1       5.976   5.701  18.723  0.00  0.00    +0.000 OA
ENDROOT
BRANCH   3   8
ATOM      8  C   UNL     1       1.587   2.499  19.955  0.00  0.00    +0.000 C 
ATOM      9  F   UNL     1       0.398   3.082  19.653  0.00  0.00    +0.000 F 
ATOM     10  F   UNL     1       1.620   1.314  19.293  0.00  0.00    +0.000 F 
ATOM     11  F   UNL     1       1.555   2.208  21.281  0.00  0.00    +0.000 F 
ENDBRANCH   3   8
BRANCH   1  12
ATOM     12  C   UNL     1       3.462   6.753  17.944  0.00  0.00    +0.000 C 
BRANCH  12  16
ATOM     13  C   UNL     1       0.748   9.618  19.717  0.00  0.00    +0.000 A 
ATOM     14  C   UNL     1       1.250   8.559  20.473  0.00  0.00    +0.000 A 
ATOM     15  C   UNL     1       2.113   7.623  19.899  0.00  0.00    +0.000 A 
ATOM     16  C   UNL     1       2.480   7.727  18.552  0.00  0.00    +0.000 A 
ATOM     17  C   UNL     1       1.938   8.769  17.787  0.00  0.00    +0.000 A 
ATOM     18  C   UNL     1       1.079   9.712  18.366  0.00  0.00    +0.000 A 
BRANCH  13  20
ATOM     19  C   UNL     1      -0.119  10.316  21.804  0.00  0.00    +0.000 C 
ATOM     20  O   UNL     1      -0.082  10.475  20.389  0.00  0.00    +0.000 OA
ENDBRANCH  13  20
ENDBRANCH  12  16
ENDBRANCH   1  12
TORSDOF 4
ENDMDL
MODEL 9
REMARK VINA RESULT:      -7.1      4.913      6.448
REMARK  Name = 
REMARK  5 active torsions:
REMARK  status: ('A' for Active; 'I' for Inactive)
REMARK    1  A    between atoms: C_1  and  O_2
REMARK    2  A    between atoms: O_2  and  C_3
REMARK    3  A    between atoms: C_6  and  C_7
REMARK    4  A    between atoms: C_7  and  C_8
REMARK    5  A    between atoms: C_10  and  C_11
REMARK                            x       y       z     vdW  Elec       q    Type
REMARK                         _______ _______ _______ _____ _____    ______ ____
ROOT
ATOM      1  C   UNL     1       3.609   5.475  18.676  0.00  0.00    +0.000 A 
ATOM      2  C   UNL     1       2.570   4.686  19.002  0.00  0.00    +0.000 A 
ATOM      3  C   UNL     1       2.765   3.387  19.607  0.00  0.00    +0.000 A 
ATOM      4  C   UNL     1       4.026   2.978  19.785  0.00  0.00    +0.000 A 
ATOM      5  O   UNL     1       5.147   3.753  19.462  0.00  0.00    +0.000 OA
ATOM      6  C   UNL     1       4.999   5.010  18.937  0.00  0.00    +0.000 A 
ATOM      7  O   UNL     1       5.973   5.704  18.664  0.00  0.00    +0.000 OA
ENDROOT
BRANCH   3   8
ATOM      8  C   UNL     1       1.586   2.533  19.979  0.00  0.00    +0.000 C 
ATOM      9  F   UNL     1       1.527   1.376  19.270  0.00  0.00    +0.000 F 
ATOM     10  F   UNL     1       1.615   2.185  21.291  0.00  0.00    +0.000 F 
ATOM     11  F   UNL     1       0.411   3.181  19.770  0.00  0.00    +0.000 F 
ENDBRANCH   3   8
BRANCH   1  12
ATOM     12  C   UNL     1       3.452   6.775  17.935  0.00  0.00    +0.000 C 
BRANCH  12  16
ATOM     13  C   UNL     1       0.692   9.609  19.688  0.00  0.00    +0.000 A 
ATOM     14  C   UNL     1       1.234   8.581  20.458  0.00  0.00    +0.000 A 
ATOM     15  C   UNL     1       2.112   7.654  19.892  0.00  0.00    +0.000 A 
ATOM     16  C   UNL     1       2.455   7.737  18.536  0.00  0.00    +0.000 A 
ATOM     17  C   UNL     1       1.874   8.747  17.758  0.00  0.00    +0.000 A 
ATOM     18  C   UNL     1       1.000   9.680  18.329  0.00  0.00    +0.000 A 
BRANCH  13  20
ATOM     19  C   UNL     1      -0.686  11.527  19.581  0.00  0.00    +0.000 C 
ATOM     20  O   UNL     1      -0.148  10.459  20.354  0.00  0.00    +0.000 OA
ENDBRANCH  13  20
ENDBRANCH  12  16
ENDBRANCH   1  12
TORSDOF 4
ENDMDL
