MODEL 1
REMARK VINA RESULT:      -8.3      0.000      0.000
REMARK  Name = 
REMARK  6 active torsions:
REMARK  status: ('A' for Active; 'I' for Inactive)
REMARK    1  A    between atoms: C_1  and  C_2
REMARK    2  A    between atoms: C_2  and  C_3
REMARK    3  A    between atoms: C_9  and  C_10
REMARK    4  A    between atoms: C_10  and  C_12
REMARK    5  A    between atoms: N_15  and  C_16
REMARK    6  A    between atoms: C_23  and  N_24
REMARK                            x       y       z     vdW  Elec       q    Type
REMARK                         _______ _______ _______ _____ _____    ______ ____
ROOT
ATOM      1  C   UNL     1       2.903   6.295  18.905  0.00  0.00    +0.000 A 
ATOM      2  C   UNL     1       2.867   7.436  18.080  0.00  0.00    +0.000 A 
ATOM      3  N   UNL     1       2.108   8.415  18.571  0.00  0.00    +0.000 NA
ATOM      4  N   UNL     1       1.744   7.976  19.808  0.00  0.00    +0.000 N 
ATOM      5  C   UNL     1       2.146   6.655  20.008  0.00  0.00    +0.000 A 
ENDROOT
BRANCH   4   6
ATOM      6  C   UNL     1       1.038   8.836  20.698  0.00  0.00    +0.000 A 
ATOM      7  C   UNL     1       0.180   9.815  20.176  0.00  0.00    +0.000 A 
ATOM      8  C   UNL     1      -0.547  10.635  21.042  0.00  0.00    +0.000 A 
ATOM      9  C   UNL     1      -0.382  10.504  22.416  0.00  0.00    +0.000 A 
ATOM     10  F   UNL     1      -1.072  11.298  23.245  0.00  0.00    +0.000 F 
ATOM     11  C   UNL     1       0.496   9.565  22.946  0.00  0.00    +0.000 A 
ATOM     12  C   UNL     1       1.206   8.722  22.088  0.00  0.00    +0.000 A 
ENDBRANCH   4   6
BRANCH   5  13
ATOM     13  N   UNL     1       1.788   5.883  21.075  0.00  0.00    +0.000 N 
ATOM     14  H   UNL     1       2.436   5.178  21.424  0.00  0.00    +0.000 HD
ATOM     15  H   UNL     1       1.317   6.362  21.848  0.00  0.00    +0.000 HD
ENDBRANCH   5  13
BRANCH   1  16
ATOM     16  C   UNL     1       3.517   4.991  18.695  0.00  0.00    +0.000 C 
ATOM     17  O   UNL     1       2.907   3.960  18.987  0.00  0.00    +0.000 OA
BRANCH  16  24
ATOM     18  C   UNL     1       6.706   4.932  15.041  0.00  0.00    +0.000 C 
ATOM     19  O   UNL     1       7.897   4.837  14.744  0.00  0.00    +0.000 OA
ATOM     20  N   UNL     1       6.286   5.588  16.191  0.00  0.00    +0.000 N 
ATOM     21  C   UNL     1       7.263   6.288  17.018  0.00  0.00    +0.000 C 
ATOM     22  C   UNL     1       7.325   5.666  18.409  0.00  0.00    +0.000 C 
ATOM     23  C   UNL     1       5.936   5.607  19.054  0.00  0.00    +0.000 C 
ATOM     24  C   UNL     1       4.926   4.913  18.130  0.00  0.00    +0.000 C 
ATOM     25  C   UNL     1       4.928   5.566  16.738  0.00  0.00    +0.000 C 
BRANCH  18  27
ATOM     26  C   UNL     1       6.193   3.621  12.943  0.00  0.00    +0.000 C 
ATOM     27  C   UNL     1       5.621   4.356  14.144  0.00  0.00    +0.000 C 
ENDBRANCH  18  27
ENDBRANCH  16  24
ENDBRANCH   1  16
TORSDOF 5
ENDMDL
MODEL 2
REMARK VINA RESULT:      -8.2      4.342      8.366
REMARK  Name = 
REMARK  6 active torsions:
REMARK  status: ('A' for Active; 'I' for Inactive)
REMARK    1  A    between atoms: C_1  and  C_2
REMARK    2  A    between atoms: C_2  and  C_3
REMARK    3  A    between atoms: C_9  and  C_10
REMARK    4  A    between atoms: C_10  and  C_12
REMARK    5  A    between atoms: N_15  and  C_16
REMARK    6  A    between atoms: C_23  and  N_24
REMARK                            x       y       z     vdW  Elec       q    Type
REMARK                         _______ _______ _______ _____ _____    ______ ____
ROOT
ATOM      1  C   UNL     1       1.457   9.312  19.091  0.00  0.00    +0.000 A 
ATOM      2  C   UNL     1       1.891   9.407  17.755  0.00  0.00    +0.000 A 
ATOM      3  N   UNL     1       2.542   8.322  17.336  0.00  0.00    +0.000 NA
ATOM      4  N   UNL     1       2.421   7.435  18.363  0.00  0.00    +0.000 N 
ATOM      5  C   UNL     1       1.835   8.038  19.477  0.00  0.00    +0.000 A 
ENDROOT
BRANCH   4   6
ATOM      6  C   UNL     1       2.877   6.094  18.212  0.00  0.00    +0.000 A 
ATOM      7  C   UNL     1       1.950   5.077  17.939  0.00  0.00    +0.000 A 
ATOM      8  C   UNL     1       2.394   3.765  17.750  0.00  0.00    +0.000 A 
ATOM      9  C   UNL     1       3.746   3.471  17.875  0.00  0.00    +0.000 A 
ATOM     10  F   UNL     1       4.168   2.211  17.703  0.00  0.00    +0.000 F 
ATOM     11  C   UNL     1       4.670   4.463  18.184  0.00  0.00    +0.000 A 
ATOM     12  C   UNL     1       4.239   5.781  18.348  0.00  0.00    +0.000 A 
ENDBRANCH   4   6
BRANCH   5  13
ATOM     13  N   UNL     1       1.730   7.461  20.710  0.00  0.00    +0.000 N 
ATOM     14  H   UNL     1       2.576   7.231  21.230  0.00  0.00    +0.000 HD
ATOM     15  H   UNL     1       1.011   7.841  21.333  0.00  0.00    +0.000 HD
ENDBRANCH   5  13
BRANCH   1  16
ATOM     16  C   UNL     1       0.812  10.296  19.951  0.00  0.00    +0.000 C 
ATOM     17  O   UNL     1       1.156  10.414  21.130  0.00  0.00    +0.000 OA
BRANCH  16  24
ATOM     18  C   UNL     1      -3.156  11.005  17.253  0.00  0.00    +0.000 C 
ATOM     19  O   UNL     1      -3.979  11.836  16.871  0.00  0.00    +0.000 OA
ATOM     20  N   UNL     1      -2.610  11.045  18.530  0.00  0.00    +0.000 N 
ATOM     21  C   UNL     1      -3.103  12.024  19.493  0.00  0.00    +0.000 C 
ATOM     22  C   UNL     1      -1.986  12.980  19.898  0.00  0.00    +0.000 C 
ATOM     23  C   UNL     1      -0.758  12.216  20.406  0.00  0.00    +0.000 C 
ATOM     24  C   UNL     1      -0.305  11.160  19.389  0.00  0.00    +0.000 C 
ATOM     25  C   UNL     1      -1.478  10.245  18.999  0.00  0.00    +0.000 C 
BRANCH  18  27
ATOM     26  C   UNL     1      -2.932  10.169  14.879  0.00  0.00    +0.000 C 
ATOM     27  C   UNL     1      -2.709   9.864  16.352  0.00  0.00    +0.000 C 
ENDBRANCH  18  27
ENDBRANCH  16  24
ENDBRANCH   1  16
TORSDOF 5
ENDMDL
MODEL 3
REMARK VINA RESULT:      -8.2      2.131      3.009
REMARK  Name = 
REMARK  6 active torsions:
REMARK  status: ('A' for Active; 'I' for Inactive)
REMARK    1  A    between atoms: C_1  and  C_2
REMARK    2  A    between atoms: C_2  and  C_3
REMARK    3  A    between atoms: C_9  and  C_10
REMARK    4  A    between atoms: C_10  and  C_12
REMARK    5  A    between atoms: N_15  and  C_16
REMARK    6  A    between atoms: C_23  and  N_24
REMARK                            x       y       z     vdW  Elec       q    Type
REMARK                         _______ _______ _______ _____ _____    ______ ____
ROOT
ATOM      1  C   UNL     1       2.219   7.744  19.028  0.00  0.00    +0.000 A 
ATOM      2  C   UNL     1       2.231   8.514  17.849  0.00  0.00    +0.000 A 
ATOM      3  N   UNL     1       1.508   9.630  17.943  0.00  0.00    +0.000 NA
ATOM      4  N   UNL     1       1.122   9.675  19.248  0.00  0.00    +0.000 N 
ATOM      5  C   UNL     1       1.471   8.500  19.915  0.00  0.00    +0.000 A 
ENDROOT
BRANCH   4   6
ATOM      6  C   UNL     1       0.445  10.820  19.758  0.00  0.00    +0.000 A 
ATOM      7  C   UNL     1      -0.920  10.994  19.486  0.00  0.00    +0.000 A 
ATOM      8  C   UNL     1      -1.601  12.093  20.017  0.00  0.00    +0.000 A 
ATOM      9  C   UNL     1      -0.909  13.030  20.775  0.00  0.00    +0.000 A 
ATOM     10  F   UNL     1      -1.562  14.089  21.274  0.00  0.00    +0.000 F 
ATOM     11  C   UNL     1       0.452  12.892  21.019  0.00  0.00    +0.000 A 
ATOM     12  C   UNL     1       1.134  11.782  20.516  0.00  0.00    +0.000 A 
ENDBRANCH   4   6
BRANCH   5  13
ATOM     13  N   UNL     1       1.078   8.175  21.181  0.00  0.00    +0.000 N 
ATOM     14  H   UNL     1       1.428   8.717  21.969  0.00  0.00    +0.000 HD
ATOM     15  H   UNL     1       0.088   7.943  21.307  0.00  0.00    +0.000 HD
ENDBRANCH   5  13
BRANCH   1  16
ATOM     16  C   UNL     1       2.784   6.431  19.310  0.00  0.00    +0.000 C 
ATOM     17  O   UNL     1       2.496   5.839  20.353  0.00  0.00    +0.000 OA
BRANCH  16  24
ATOM     18  C   UNL     1       7.204   5.051  17.868  0.00  0.00    +0.000 C 
ATOM     19  O   UNL     1       7.852   4.536  16.957  0.00  0.00    +0.000 OA
ATOM     20  N   UNL     1       5.914   4.640  18.176  0.00  0.00    +0.000 N 
ATOM     21  C   UNL     1       5.341   3.489  17.484  0.00  0.00    +0.000 C 
ATOM     22  C   UNL     1       4.114   3.908  16.682  0.00  0.00    +0.000 C 
ATOM     23  C   UNL     1       3.094   4.637  17.565  0.00  0.00    +0.000 C 
ATOM     24  C   UNL     1       3.748   5.805  18.316  0.00  0.00    +0.000 C 
ATOM     25  C   UNL     1       4.993   5.326  19.083  0.00  0.00    +0.000 C 
BRANCH  18  27
ATOM     26  C   UNL     1       7.862   7.487  18.002  0.00  0.00    +0.000 C 
ATOM     27  C   UNL     1       7.796   6.155  18.731  0.00  0.00    +0.000 C 
ENDBRANCH  18  27
ENDBRANCH  16  24
ENDBRANCH   1  16
TORSDOF 5
ENDMDL
MODEL 4
REMARK VINA RESULT:      -8.1      4.381      8.325
REMARK  Name = 
REMARK  6 active torsions:
REMARK  status: ('A' for Active; 'I' for Inactive)
REMARK    1  A    between atoms: C_1  and  C_2
REMARK    2  A    between atoms: C_2  and  C_3
REMARK    3  A    between atoms: C_9  and  C_10
REMARK    4  A    between atoms: C_10  and  C_12
REMARK    5  A    between atoms: N_15  and  C_16
REMARK    6  A    between atoms: C_23  and  N_24
REMARK                            x       y       z     vdW  Elec       q    Type
REMARK                         _______ _______ _______ _____ _____    ______ ____
ROOT
ATOM      1  C   UNL     1       1.480   9.301  19.316  0.00  0.00    +0.000 A 
ATOM      2  C   UNL     1       1.981   9.350  18.001  0.00  0.00    +0.000 A 
ATOM      3  N   UNL     1       2.608   8.231  17.636  0.00  0.00    +0.000 NA
ATOM      4  N   UNL     1       2.401   7.372  18.672  0.00  0.00    +0.000 N 
ATOM      5  C   UNL     1       1.787   8.021  19.745  0.00  0.00    +0.000 A 
ENDROOT
BRANCH   4   6
ATOM      6  C   UNL     1       2.808   6.011  18.570  0.00  0.00    +0.000 A 
ATOM      7  C   UNL     1       4.124   5.657  18.903  0.00  0.00    +0.000 A 
ATOM      8  C   UNL     1       4.520   4.318  18.845  0.00  0.00    +0.000 A 
ATOM      9  C   UNL     1       3.618   3.352  18.415  0.00  0.00    +0.000 A 
ATOM     10  F   UNL     1       4.003   2.070  18.350  0.00  0.00    +0.000 F 
ATOM     11  C   UNL     1       2.323   3.694  18.044  0.00  0.00    +0.000 A 
ATOM     12  C   UNL     1       1.911   5.026  18.125  0.00  0.00    +0.000 A 
ENDBRANCH   4   6
BRANCH   5  13
ATOM     13  N   UNL     1       1.599   7.476  20.982  0.00  0.00    +0.000 N 
ATOM     14  H   UNL     1       1.795   6.486  21.129  0.00  0.00    +0.000 HD
ATOM     15  H   UNL     1       1.915   8.034  21.780  0.00  0.00    +0.000 HD
ENDBRANCH   5  13
BRANCH   1  16
ATOM     16  C   UNL     1       0.835  10.327  20.124  0.00  0.00    +0.000 C 
ATOM     17  O   UNL     1       1.158  10.487  21.304  0.00  0.00    +0.000 OA
BRANCH  16  24
ATOM     18  C   UNL     1      -3.065  10.993  17.319  0.00  0.00    +0.000 C 
ATOM     19  O   UNL     1      -3.867  11.822  16.888  0.00  0.00    +0.000 OA
ATOM     20  N   UNL     1      -2.545  11.073  18.604  0.00  0.00    +0.000 N 
ATOM     21  C   UNL     1      -3.043  12.095  19.520  0.00  0.00    +0.000 C 
ATOM     22  C   UNL     1      -1.919  13.049  19.913  0.00  0.00    +0.000 C 
ATOM     23  C   UNL     1      -0.714  12.286  20.474  0.00  0.00    +0.000 C 
ATOM     24  C   UNL     1      -0.256  11.187  19.507  0.00  0.00    +0.000 C 
ATOM     25  C   UNL     1      -1.435  10.275  19.127  0.00  0.00    +0.000 C 
BRANCH  18  27
ATOM     26  C   UNL     1      -2.924  10.012  14.994  0.00  0.00    +0.000 C 
ATOM     27  C   UNL     1      -2.617   9.813  16.470  0.00  0.00    +0.000 C 
ENDBRANCH  18  27
ENDBRANCH  16  24
ENDBRANCH   1  16
TORSDOF 5
ENDMDL
MODEL 5
REMARK VINA RESULT:      -8.0      2.621      4.285
REMARK  Name = 
REMARK  6 active torsions:
REMARK  status: ('A' for Active; 'I' for Inactive)
REMARK    1  A    between atoms: C_1  and  C_2
REMARK    2  A    between atoms: C_2  and  C_3
REMARK    3  A    between atoms: C_9  and  C_10
REMARK    4  A    between atoms: C_10  and  C_12
REMARK    5  A    between atoms: N_15  and  C_16
REMARK    6  A    between atoms: C_23  and  N_24
REMARK                            x       y       z     vdW  Elec       q    Type
REMARK                         _______ _______ _______ _____ _____    ______ ____
ROOT
ATOM      1  C   UNL     1       1.814   8.247  19.335  0.00  0.00    +0.000 A 
ATOM      2  C   UNL     1       1.704   7.774  20.658  0.00  0.00    +0.000 A 
ATOM      3  N   UNL     1       1.010   8.591  21.451  0.00  0.00    +0.000 NA
ATOM      4  N   UNL     1       0.532   9.553  20.614  0.00  0.00    +0.000 N 
ATOM      5  C   UNL     1       1.071   9.415  19.334  0.00  0.00    +0.000 A 
ENDROOT
BRANCH   4   6
ATOM      6  C   UNL     1      -0.387  10.530  21.093  0.00  0.00    +0.000 A 
ATOM      7  C   UNL     1      -0.634  10.629  22.470  0.00  0.00    +0.000 A 
ATOM      8  C   UNL     1      -1.504  11.611  22.952  0.00  0.00    +0.000 A 
ATOM      9  C   UNL     1      -2.150  12.457  22.057  0.00  0.00    +0.000 A 
ATOM     10  F   UNL     1      -2.991  13.391  22.521  0.00  0.00    +0.000 F 
ATOM     11  C   UNL     1      -1.945  12.343  20.688  0.00  0.00    +0.000 A 
ATOM     12  C   UNL     1      -1.057  11.382  20.200  0.00  0.00    +0.000 A 
ENDBRANCH   4   6
BRANCH   5  13
ATOM     13  N   UNL     1       0.917  10.318  18.322  0.00  0.00    +0.000 N 
ATOM     14  H   UNL     1       1.628  10.382  17.595  0.00  0.00    +0.000 HD
ATOM     15  H   UNL     1      -0.023  10.401  17.922  0.00  0.00    +0.000 HD
ENDBRANCH   5  13
BRANCH   1  16
ATOM     16  C   UNL     1       2.559   7.722  18.199  0.00  0.00    +0.000 C 
ATOM     17  O   UNL     1       2.672   8.387  17.167  0.00  0.00    +0.000 OA
BRANCH  16  24
ATOM     18  C   UNL     1       2.315   2.913  18.783  0.00  0.00    +0.000 C 
ATOM     19  O   UNL     1       2.968   1.872  18.849  0.00  0.00    +0.000 OA
ATOM     20  N   UNL     1       2.675   3.953  17.935  0.00  0.00    +0.000 N 
ATOM     21  C   UNL     1       3.787   3.772  17.007  0.00  0.00    +0.000 C 
ATOM     22  C   UNL     1       4.905   4.762  17.320  0.00  0.00    +0.000 C 
ATOM     23  C   UNL     1       4.381   6.203  17.345  0.00  0.00    +0.000 C 
ATOM     24  C   UNL     1       3.179   6.337  18.289  0.00  0.00    +0.000 C 
ATOM     25  C   UNL     1       2.099   5.298  17.942  0.00  0.00    +0.000 C 
BRANCH  18  27
ATOM     26  C   UNL     1       1.341   3.127  21.104  0.00  0.00    +0.000 C 
ATOM     27  C   UNL     1       1.055   3.109  19.611  0.00  0.00    +0.000 C 
ENDBRANCH  18  27
ENDBRANCH  16  24
ENDBRANCH   1  16
TORSDOF 5
ENDMDL
MODEL 6
REMARK VINA RESULT:      -8.0      1.857      2.858
REMARK  Name = 
REMARK  6 active torsions:
REMARK  status: ('A' for Active; 'I' for Inactive)
REMARK    1  A    between atoms: C_1  and  C_2
REMARK    2  A    between atoms: C_2  and  C_3
REMARK    3  A    between atoms: C_9  and  C_10
REMARK    4  A    between atoms: C_10  and  C_12
REMARK    5  A    between atoms: N_15  and  C_16
REMARK    6  A    between atoms: C_23  and  N_24
REMARK                            x       y       z     vdW  Elec       q    Type
REMARK                         _______ _______ _______ _____ _____    ______ ____
ROOT
ATOM      1  C   UNL     1       2.147   7.698  19.335  0.00  0.00    +0.000 A 
ATOM      2  C   UNL     1       1.918   8.517  18.212  0.00  0.00    +0.000 A 
ATOM      3  N   UNL     1       1.267   9.642  18.508  0.00  0.00    +0.000 NA
ATOM      4  N   UNL     1       1.184   9.640  19.867  0.00  0.00    +0.000 N 
ATOM      5  C   UNL     1       1.639   8.431  20.394  0.00  0.00    +0.000 A 
ENDROOT
BRANCH   4   6
ATOM      6  C   UNL     1       0.673  10.777  20.558  0.00  0.00    +0.000 A 
ATOM      7  C   UNL     1       1.271  12.030  20.362  0.00  0.00    +0.000 A 
ATOM      8  C   UNL     1       0.750  13.157  21.005  0.00  0.00    +0.000 A 
ATOM      9  C   UNL     1      -0.332  13.019  21.866  0.00  0.00    +0.000 A 
ATOM     10  F   UNL     1      -0.823  14.099  22.488  0.00  0.00    +0.000 F 
ATOM     11  C   UNL     1      -0.909  11.777  22.099  0.00  0.00    +0.000 A 
ATOM     12  C   UNL     1      -0.413  10.650  21.441  0.00  0.00    +0.000 A 
ENDBRANCH   4   6
BRANCH   5  13
ATOM     13  N   UNL     1       1.529   8.060  21.703  0.00  0.00    +0.000 N 
ATOM     14  H   UNL     1       1.057   7.188  21.939  0.00  0.00    +0.000 HD
ATOM     15  H   UNL     1       2.358   8.197  22.289  0.00  0.00    +0.000 HD
ENDBRANCH   5  13
BRANCH   1  16
ATOM     16  C   UNL     1       2.721   6.363  19.434  0.00  0.00    +0.000 C 
ATOM     17  O   UNL     1       2.480   5.652  20.412  0.00  0.00    +0.000 OA
BRANCH  16  24
ATOM     18  C   UNL     1       7.086   5.428  17.539  0.00  0.00    +0.000 C 
ATOM     19  O   UNL     1       7.686   5.006  16.550  0.00  0.00    +0.000 OA
ATOM     20  N   UNL     1       5.869   4.895  17.942  0.00  0.00    +0.000 N 
ATOM     21  C   UNL     1       5.332   3.725  17.253  0.00  0.00    +0.000 C 
ATOM     22  C   UNL     1       4.004   4.066  16.585  0.00  0.00    +0.000 C 
ATOM     23  C   UNL     1       3.015   4.669  17.589  0.00  0.00    +0.000 C 
ATOM     24  C   UNL     1       3.637   5.861  18.329  0.00  0.00    +0.000 C 
ATOM     25  C   UNL     1       4.983   5.464  18.959  0.00  0.00    +0.000 C 
BRANCH  18  27
ATOM     26  C   UNL     1       7.746   7.865  17.642  0.00  0.00    +0.000 C 
ATOM     27  C   UNL     1       7.662   6.547  18.394  0.00  0.00    +0.000 C 
ENDBRANCH  18  27
ENDBRANCH  16  24
ENDBRANCH   1  16
TORSDOF 5
ENDMDL
MODEL 7
REMARK VINA RESULT:      -7.9      2.571      4.121
REMARK  Name = 
REMARK  6 active torsions:
REMARK  status: ('A' for Active; 'I' for Inactive)
REMARK    1  A    between atoms: C_1  and  C_2
REMARK    2  A    between atoms: C_2  and  C_3
REMARK    3  A    between atoms: C_9  and  C_10
REMARK    4  A    between atoms: C_10  and  C_12
REMARK    5  A    between atoms: N_15  and  C_16
REMARK    6  A    between atoms: C_23  and  N_24
REMARK                            x       y       z     vdW  Elec       q    Type
REMARK                         _______ _______ _______ _____ _____    ______ ____
ROOT
ATOM      1  C   UNL     1       2.073   8.086  19.023  0.00  0.00    +0.000 A 
ATOM      2  C   UNL     1       1.757   7.664  20.329  0.00  0.00    +0.000 A 
ATOM      3  N   UNL     1       1.022   8.548  21.003  0.00  0.00    +0.000 NA
ATOM      4  N   UNL     1       0.725   9.512  20.088  0.00  0.00    +0.000 N 
ATOM      5  C   UNL     1       1.418   9.299  18.895  0.00  0.00    +0.000 A 
ENDROOT
BRANCH   4   6
ATOM      6  C   UNL     1      -0.182  10.560  20.416  0.00  0.00    +0.000 A 
ATOM      7  C   UNL     1      -1.143  10.961  19.477  0.00  0.00    +0.000 A 
ATOM      8  C   UNL     1      -2.062  11.961  19.806  0.00  0.00    +0.000 A 
ATOM      9  C   UNL     1      -1.990  12.581  21.048  0.00  0.00    +0.000 A 
ATOM     10  F   UNL     1      -2.865  13.547  21.357  0.00  0.00    +0.000 F 
ATOM     11  C   UNL     1      -1.016  12.222  21.972  0.00  0.00    +0.000 A 
ATOM     12  C   UNL     1      -0.111  11.205  21.663  0.00  0.00    +0.000 A 
ENDBRANCH   4   6
BRANCH   5  13
ATOM     13  N   UNL     1       1.460  10.176  17.851  0.00  0.00    +0.000 N 
ATOM     14  H   UNL     1       0.903   9.992  17.018  0.00  0.00    +0.000 HD
ATOM     15  H   UNL     1       1.443  11.173  18.089  0.00  0.00    +0.000 HD
ENDBRANCH   5  13
BRANCH   1  16
ATOM     16  C   UNL     1       2.925   7.478  18.010  0.00  0.00    +0.000 C 
ATOM     17  O   UNL     1       3.195   8.090  16.974  0.00  0.00    +0.000 OA
BRANCH  16  24
ATOM     18  C   UNL     1       2.380   2.714  18.739  0.00  0.00    +0.000 C 
ATOM     19  O   UNL     1       2.969   1.650  18.929  0.00  0.00    +0.000 OA
ATOM     20  N   UNL     1       2.893   3.700  17.906  0.00  0.00    +0.000 N 
ATOM     21  C   UNL     1       4.104   3.432  17.136  0.00  0.00    +0.000 C 
ATOM     22  C   UNL     1       5.219   4.386  17.552  0.00  0.00    +0.000 C 
ATOM     23  C   UNL     1       4.766   5.847  17.455  0.00  0.00    +0.000 C 
ATOM     24  C   UNL     1       3.462   6.074  18.231  0.00  0.00    +0.000 C 
ATOM     25  C   UNL     1       2.386   5.067  17.788  0.00  0.00    +0.000 C 
BRANCH  18  27
ATOM     26  C   UNL     1       1.180   3.490  20.823  0.00  0.00    +0.000 C 
ATOM     27  C   UNL     1       1.036   3.000  19.391  0.00  0.00    +0.000 C 
ENDBRANCH  18  27
ENDBRANCH  16  24
ENDBRANCH   1  16
TORSDOF 5
ENDMDL
MODEL 8
REMARK VINA RESULT:      -7.8      4.418      8.106
REMARK  Name = 
REMARK  6 active torsions:
REMARK  status: ('A' for Active; 'I' for Inactive)
REMARK    1  A    between atoms: C_1  and  C_2
REMARK    2  A    between atoms: C_2  and  C_3
REMARK    3  A    between atoms: C_9  and  C_10
REMARK    4  A    between atoms: C_10  and  C_12
REMARK    5  A    between atoms: N_15  and  C_16
REMARK    6  A    between atoms: C_23  and  N_24
REMARK                            x       y       z     vdW  Elec       q    Type
REMARK                         _______ _______ _______ _____ _____    ______ ____
ROOT
ATOM      1  C   UNL     1       1.939   7.969  19.666  0.00  0.00    +0.000 A 
ATOM      2  C   UNL     1       2.436   8.064  18.351  0.00  0.00    +0.000 A 
ATOM      3  N   UNL     1       2.967   6.924  17.908  0.00  0.00    +0.000 NA
ATOM      4  N   UNL     1       2.697   6.019  18.888  0.00  0.00    +0.000 N 
ATOM      5  C   UNL     1       2.144   6.643  20.007  0.00  0.00    +0.000 A 
ENDROOT
BRANCH   4   6
ATOM      6  C   UNL     1       2.992   4.639  18.694  0.00  0.00    +0.000 A 
ATOM      7  C   UNL     1       4.096   4.070  19.347  0.00  0.00    +0.000 A 
ATOM      8  C   UNL     1       4.368   2.708  19.194  0.00  0.00    +0.000 A 
ATOM      9  C   UNL     1       3.567   1.935  18.361  0.00  0.00    +0.000 A 
ATOM     10  F   UNL     1       3.837   0.632  18.207  0.00  0.00    +0.000 F 
ATOM     11  C   UNL     1       2.495   2.495  17.676  0.00  0.00    +0.000 A 
ATOM     12  C   UNL     1       2.199   3.849  17.845  0.00  0.00    +0.000 A 
ENDBRANCH   4   6
BRANCH   5  13
ATOM     13  N   UNL     1       1.919   6.035  21.208  0.00  0.00    +0.000 N 
ATOM     14  H   UNL     1       2.204   6.503  22.068  0.00  0.00    +0.000 HD
ATOM     15  H   UNL     1       1.011   5.576  21.326  0.00  0.00    +0.000 HD
ENDBRANCH   5  13
BRANCH   1  16
ATOM     16  C   UNL     1       1.384   8.989  20.545  0.00  0.00    +0.000 C 
ATOM     17  O   UNL     1       1.490   8.882  21.769  0.00  0.00    +0.000 OA
BRANCH  16  24
ATOM     18  C   UNL     1      -2.065  10.982  17.779  0.00  0.00    +0.000 C 
ATOM     19  O   UNL     1      -2.535  12.040  17.360  0.00  0.00    +0.000 OA
ATOM     20  N   UNL     1      -1.541  10.868  19.059  0.00  0.00    +0.000 N 
ATOM     21  C   UNL     1      -1.648  11.992  19.984  0.00  0.00    +0.000 C 
ATOM     22  C   UNL     1      -0.262  12.496  20.371  0.00  0.00    +0.000 C 
ATOM     23  C   UNL     1       0.610  11.360  20.918  0.00  0.00    +0.000 C 
ATOM     24  C   UNL     1       0.653  10.177  19.941  0.00  0.00    +0.000 C 
ATOM     25  C   UNL     1      -0.772   9.731  19.568  0.00  0.00    +0.000 C 
BRANCH  18  27
ATOM     26  C   UNL     1      -2.964   9.852  15.705  0.00  0.00    +0.000 C 
ATOM     27  C   UNL     1      -2.059   9.727  16.920  0.00  0.00    +0.000 C 
ENDBRANCH  18  27
ENDBRANCH  16  24
ENDBRANCH   1  16
TORSDOF 5
ENDMDL
MODEL 9
REMARK VINA RESULT:      -7.8      2.709      4.336
REMARK  Name = 
REMARK  6 active torsions:
REMARK  status: ('A' for Active; 'I' for Inactive)
REMARK    1  A    between atoms: C_1  and  C_2
REMARK    2  A    between atoms: C_2  and  C_3
REMARK    3  A    between atoms: C_9  and  C_10
REMARK    4  A    between atoms: C_10  and  C_12
REMARK    5  A    between atoms: N_15  and  C_16
REMARK    6  A    between atoms: C_23  and  N_24
REMARK                            x       y       z     vdW  Elec       q    Type
REMARK                         _______ _______ _______ _____ _____    ______ ____
ROOT
ATOM      1  C   UNL     1       1.675   8.539  19.631  0.00  0.00    +0.000 A 
ATOM      2  C   UNL     1       1.557   7.983  20.920  0.00  0.00    +0.000 A 
ATOM      3  N   UNL     1       1.045   8.831  21.812  0.00  0.00    +0.000 NA
ATOM      4  N   UNL     1       0.687   9.921  21.080  0.00  0.00    +0.000 N 
ATOM      5  C   UNL     1       1.132   9.806  19.762  0.00  0.00    +0.000 A 
ENDROOT
BRANCH   4   6
ATOM      6  C   UNL     1      -0.036  10.988  21.685  0.00  0.00    +0.000 A 
ATOM      7  C   UNL     1       0.278  12.314  21.350  0.00  0.00    +0.000 A 
ATOM      8  C   UNL     1      -0.454  13.364  21.908  0.00  0.00    +0.000 A 
ATOM      9  C   UNL     1      -1.462  13.090  22.825  0.00  0.00    +0.000 A 
ATOM     10  F   UNL     1      -2.156  14.100  23.367  0.00  0.00    +0.000 F 
ATOM     11  C   UNL     1      -1.757  11.784  23.196  0.00  0.00    +0.000 A 
ATOM     12  C   UNL     1      -1.049  10.726  22.623  0.00  0.00    +0.000 A 
ENDBRANCH   4   6
BRANCH   5  13
ATOM     13  N   UNL     1       1.075  10.801  18.829  0.00  0.00    +0.000 N 
ATOM     14  H   UNL     1       1.389  10.615  17.878  0.00  0.00    +0.000 HD
ATOM     15  H   UNL     1       0.229  11.380  18.829  0.00  0.00    +0.000 HD
ENDBRANCH   5  13
BRANCH   1  16
ATOM     16  C   UNL     1       2.267   7.998  18.415  0.00  0.00    +0.000 C 
ATOM     17  O   UNL     1       2.175   8.613  17.350  0.00  0.00    +0.000 OA
BRANCH  16  24
ATOM     18  C   UNL     1       2.370   3.178  18.942  0.00  0.00    +0.000 C 
ATOM     19  O   UNL     1       3.093   2.183  18.973  0.00  0.00    +0.000 OA
ATOM     20  N   UNL     1       2.629   4.249  18.097  0.00  0.00    +0.000 N 
ATOM     21  C   UNL     1       3.719   4.155  17.130  0.00  0.00    +0.000 C 
ATOM     22  C   UNL     1       4.777   5.215  17.419  0.00  0.00    +0.000 C 
ATOM     23  C   UNL     1       4.158   6.616  17.481  0.00  0.00    +0.000 C 
ATOM     24  C   UNL     1       2.983   6.658  18.466  0.00  0.00    +0.000 C 
ATOM     25  C   UNL     1       1.964   5.552  18.141  0.00  0.00    +0.000 C 
BRANCH  18  27
ATOM     26  C   UNL     1       1.388   2.833  21.245  0.00  0.00    +0.000 C 
ATOM     27  C   UNL     1       1.128   3.278  19.814  0.00  0.00    +0.000 C 
ENDBRANCH  18  27
ENDBRANCH  16  24
ENDBRANCH   1  16
TORSDOF 5
ENDMDL
