MODEL 1
REMARK VINA RESULT:      -8.4      0.000      0.000
REMARK  Name = 
REMARK  11 active torsions:
REMARK  status: ('A' for Active; 'I' for Inactive)
REMARK    1  A    between atoms: C_1  and  C_2
REMARK    2  A    between atoms: C_4  and  C_5
REMARK    3  A    between atoms: C_7  and  S_8
REMARK    4  A    between atoms: S_8  and  C_9
REMARK    5  A    between atoms: C_9  and  C_10
REMARK    6  A    between atoms: N_12  and  C_13
REMARK    7  A    between atoms: C_17  and  C_18
REMARK    8  A    between atoms: C_18  and  O_19
REMARK    9  A    between atoms: O_19  and  C_20
REMARK   10  A    between atoms: C_23  and  N_24
REMARK   11  A    between atoms: C_25  and  C_27
REMARK                            x       y       z     vdW  Elec       q    Type
REMARK                         _______ _______ _______ _____ _____    ______ ____
ROOT
ATOM      1  C   UNL     1       1.998   5.366  20.151  0.00  0.00    +0.000 A 
ATOM      2  C   UNL     1       0.990   4.457  19.820  0.00  0.00    +0.000 A 
ATOM      3  C   UNL     1       1.278   3.314  19.074  0.00  0.00    +0.000 A 
ATOM      4  C   UNL     1       2.578   3.072  18.646  0.00  0.00    +0.000 A 
ATOM      5  C   UNL     1       3.603   3.985  18.935  0.00  0.00    +0.000 A 
ATOM      6  C   UNL     1       3.303   5.133  19.691  0.00  0.00    +0.000 A 
ENDROOT
BRANCH   1   9
ATOM      7  C   UNL     1       1.701   7.832  20.425  0.00  0.00    +0.000 C 
ATOM      8  O   UNL     1       1.673   8.148  19.236  0.00  0.00    +0.000 OA
ATOM      9  N   UNL     1       1.752   6.530  20.908  0.00  0.00    +0.000 N 
ATOM     10  H   UNL     1       1.583   6.407  21.896  0.00  0.00    +0.000 HD
BRANCH   7  11
ATOM     11  C   UNL     1       1.537   8.909  21.489  0.00  0.00    +0.000 C 
BRANCH  11  12
ATOM     12  S   UNL     1      -0.091   8.892  22.298  0.00  0.00    +0.000 S 
BRANCH  12  19
ATOM     13  C   UNL     1      -3.037  12.797  23.673  0.00  0.00    +0.000 C 
ATOM     14  C   UNL     1      -1.801  12.354  22.950  0.00  0.00    +0.000 A 
ATOM     15  C   UNL     1      -0.981  13.270  22.321  0.00  0.00    +0.000 A 
ATOM     16  C   UNL     1       0.130  12.767  21.675  0.00  0.00    +0.000 A 
ATOM     17  C   UNL     1       1.089  13.671  20.962  0.00  0.00    +0.000 C 
ATOM     18  N   UNL     1       0.412  11.450  21.652  0.00  0.00    +0.000 NA
ATOM     19  C   UNL     1      -0.435  10.635  22.295  0.00  0.00    +0.000 A 
ATOM     20  N   UNL     1      -1.539  11.032  22.948  0.00  0.00    +0.000 NA
ENDBRANCH  12  19
ENDBRANCH  11  12
ENDBRANCH   7  11
ENDBRANCH   1   9
BRANCH   5  21
ATOM     21  C   UNL     1       5.010   3.703  18.461  0.00  0.00    +0.000 C 
BRANCH  21  22
ATOM     22  O   UNL     1       5.360   4.675  17.480  0.00  0.00    +0.000 OA
BRANCH  22  23
ATOM     23  C   UNL     1       6.324   5.579  17.830  0.00  0.00    +0.000 A 
ATOM     24  C   UNL     1       6.301   6.765  17.102  0.00  0.00    +0.000 A 
ATOM     25  C   UNL     1       7.197   7.799  17.391  0.00  0.00    +0.000 A 
ATOM     26  C   UNL     1       8.118   7.676  18.429  0.00  0.00    +0.000 A 
ATOM     27  C   UNL     1       8.166   6.472  19.140  0.00  0.00    +0.000 A 
ATOM     28  C   UNL     1       7.265   5.431  18.851  0.00  0.00    +0.000 A 
BRANCH  26  29
ATOM     29  N   UNL     1       8.993   8.717  18.807  0.00  0.00    +0.000 N 
ATOM     30  C   UNL     1       8.858  10.061  18.486  0.00  0.00    +0.000 C 
ATOM     31  O   UNL     1       7.940  10.541  17.827  0.00  0.00    +0.000 OA
ATOM     32  H   UNL     1       9.739   8.502  19.459  0.00  0.00    +0.000 HD
BRANCH  30  33
ATOM     33  C   UNL     1       9.898  10.904  19.043  0.00  0.00    +0.000 A 
ATOM     34  C   UNL     1      10.122  11.301  20.348  0.00  0.00    +0.000 A 
ATOM     35  C   UNL     1      11.278  12.115  20.338  0.00  0.00    +0.000 A 
ATOM     36  C   UNL     1      11.689  12.170  19.026  0.00  0.00    +0.000 A 
ATOM     37  O   UNL     1      10.863  11.440  18.230  0.00  0.00    +0.000 OA
ENDBRANCH  30  33
ENDBRANCH  26  29
ENDBRANCH  22  23
ENDBRANCH  21  22
ENDBRANCH   5  21
TORSDOF 9
ENDMDL
MODEL 2
REMARK VINA RESULT:      -8.4      2.632      2.874
REMARK  Name = 
REMARK  11 active torsions:
REMARK  status: ('A' for Active; 'I' for Inactive)
REMARK    1  A    between atoms: C_1  and  C_2
REMARK    2  A    between atoms: C_4  and  C_5
REMARK    3  A    between atoms: C_7  and  S_8
REMARK    4  A    between atoms: S_8  and  C_9
REMARK    5  A    between atoms: C_9  and  C_10
REMARK    6  A    between atoms: N_12  and  C_13
REMARK    7  A    between atoms: C_17  and  C_18
REMARK    8  A    between atoms: C_18  and  O_19
REMARK    9  A    between atoms: O_19  and  C_20
REMARK   10  A    between atoms: C_23  and  N_24
REMARK   11  A    between atoms: C_25  and  C_27
REMARK                            x       y       z     vdW  Elec       q    Type
REMARK                         _______ _______ _______ _____ _____    ______ ____
ROOT
ATOM      1  C   UNL     1       2.401   6.454  18.910  0.00  0.00    +0.000 A 
ATOM      2  C   UNL     1       2.310   5.711  20.090  0.00  0.00    +0.000 A 
ATOM      3  C   UNL     1       2.941   4.472  20.203  0.00  0.00    +0.000 A 
ATOM      4  C   UNL     1       3.665   3.961  19.133  0.00  0.00    +0.000 A 
ATOM      5  C   UNL     1       3.746   4.669  17.926  0.00  0.00    +0.000 A 
ATOM      6  C   UNL     1       3.109   5.919  17.822  0.00  0.00    +0.000 A 
ENDROOT
BRANCH   1   9
ATOM      7  C   UNL     1       2.240   8.762  17.968  0.00  0.00    +0.000 C 
ATOM      8  O   UNL     1       3.147   8.688  17.139  0.00  0.00    +0.000 OA
ATOM      9  N   UNL     1       1.784   7.713  18.755  0.00  0.00    +0.000 N 
ATOM     10  H   UNL     1       0.919   7.863  19.253  0.00  0.00    +0.000 HD
BRANCH   7  11
ATOM     11  C   UNL     1       1.437  10.051  18.082  0.00  0.00    +0.000 C 
BRANCH  11  12
ATOM     12  S   UNL     1       0.403  10.136  19.575  0.00  0.00    +0.000 S 
BRANCH  12  19
ATOM     13  C   UNL     1      -3.960  12.725  19.845  0.00  0.00    +0.000 C 
ATOM     14  C   UNL     1      -3.080  11.836  19.019  0.00  0.00    +0.000 A 
ATOM     15  C   UNL     1      -3.458  11.446  17.749  0.00  0.00    +0.000 A 
ATOM     16  C   UNL     1      -2.585  10.622  17.068  0.00  0.00    +0.000 A 
ATOM     17  C   UNL     1      -2.893  10.140  15.683  0.00  0.00    +0.000 C 
ATOM     18  N   UNL     1      -1.420  10.211  17.604  0.00  0.00    +0.000 NA
ATOM     19  C   UNL     1      -1.131  10.646  18.839  0.00  0.00    +0.000 A 
ATOM     20  N   UNL     1      -1.916  11.445  19.576  0.00  0.00    +0.000 NA
ENDBRANCH  12  19
ENDBRANCH  11  12
ENDBRANCH   7  11
ENDBRANCH   1   9
BRANCH   5  21
ATOM     21  C   UNL     1       4.539   4.096  16.774  0.00  0.00    +0.000 C 
BRANCH  21  22
ATOM     22  O   UNL     1       5.897   3.964  17.182  0.00  0.00    +0.000 OA
BRANCH  22  23
ATOM     23  C   UNL     1       6.542   5.113  17.545  0.00  0.00    +0.000 A 
ATOM     24  C   UNL     1       7.187   5.055  18.778  0.00  0.00    +0.000 A 
ATOM     25  C   UNL     1       7.929   6.141  19.249  0.00  0.00    +0.000 A 
ATOM     26  C   UNL     1       8.063   7.300  18.486  0.00  0.00    +0.000 A 
ATOM     27  C   UNL     1       7.389   7.374  17.262  0.00  0.00    +0.000 A 
ATOM     28  C   UNL     1       6.641   6.281  16.787  0.00  0.00    +0.000 A 
BRANCH  26  29
ATOM     29  N   UNL     1       8.860   8.394  18.884  0.00  0.00    +0.000 N 
ATOM     30  C   UNL     1       8.693   9.716  18.493  0.00  0.00    +0.000 C 
ATOM     31  O   UNL     1       7.811  10.126  17.744  0.00  0.00    +0.000 OA
ATOM     32  H   UNL     1       9.558   8.241  19.601  0.00  0.00    +0.000 HD
BRANCH  30  33
ATOM     33  C   UNL     1       9.649  10.629  19.092  0.00  0.00    +0.000 A 
ATOM     34  C   UNL     1       9.814  11.009  20.410  0.00  0.00    +0.000 A 
ATOM     35  C   UNL     1      10.898  11.916  20.444  0.00  0.00    +0.000 A 
ATOM     36  C   UNL     1      11.327  12.039  19.142  0.00  0.00    +0.000 A 
ATOM     37  O   UNL     1      10.581  11.263  18.312  0.00  0.00    +0.000 OA
ENDBRANCH  30  33
ENDBRANCH  26  29
ENDBRANCH  22  23
ENDBRANCH  21  22
ENDBRANCH   5  21
TORSDOF 9
ENDMDL
MODEL 3
REMARK VINA RESULT:      -8.3      2.863      8.809
REMARK  Name = 
REMARK  11 active torsions:
REMARK  status: ('A' for Active; 'I' for Inactive)
REMARK    1  A    between atoms: C_1  and  C_2
REMARK    2  A    between atoms: C_4  and  C_5
REMARK    3  A    between atoms: C_7  and  S_8
REMARK    4  A    between atoms: S_8  and  C_9
REMARK    5  A    between atoms: C_9  and  C_10
REMARK    6  A    between atoms: N_12  and  C_13
REMARK    7  A    between atoms: C_17  and  C_18
REMARK    8  A    between atoms: C_18  and  O_19
REMARK    9  A    between atoms: O_19  and  C_20
REMARK   10  A    between atoms: C_23  and  N_24
REMARK   11  A    between atoms: C_25  and  C_27
REMARK                            x       y       z     vdW  Elec       q    Type
REMARK                         _______ _______ _______ _____ _____    ______ ____
ROOT
ATOM      1  C   UNL     1       6.380   6.417  16.761  0.00  0.00    +0.000 A 
ATOM      2  C   UNL     1       6.382   5.687  15.571  0.00  0.00    +0.000 A 
ATOM      3  C   UNL     1       5.793   4.424  15.508  0.00  0.00    +0.000 A 
ATOM      4  C   UNL     1       5.201   3.877  16.640  0.00  0.00    +0.000 A 
ATOM      5  C   UNL     1       5.215   4.573  17.857  0.00  0.00    +0.000 A 
ATOM      6  C   UNL     1       5.808   5.847  17.909  0.00  0.00    +0.000 A 
ENDROOT
BRANCH   1   9
ATOM      7  C   UNL     1       7.846   8.125  17.848  0.00  0.00    +0.000 C 
ATOM      8  O   UNL     1       8.408   7.394  18.663  0.00  0.00    +0.000 OA
ATOM      9  N   UNL     1       6.959   7.699  16.867  0.00  0.00    +0.000 N 
ATOM     10  H   UNL     1       6.718   8.371  16.153  0.00  0.00    +0.000 HD
BRANCH   7  11
ATOM     11  C   UNL     1       8.218   9.600  17.785  0.00  0.00    +0.000 C 
BRANCH  11  12
ATOM     12  S   UNL     1       9.359  10.121  19.101  0.00  0.00    +0.000 S 
BRANCH  12  19
ATOM     13  C   UNL     1      12.332  13.415  16.626  0.00  0.00    +0.000 C 
ATOM     14  C   UNL     1      11.077  13.212  17.420  0.00  0.00    +0.000 A 
ATOM     15  C   UNL     1      10.236  14.271  17.701  0.00  0.00    +0.000 A 
ATOM     16  C   UNL     1       9.108  13.988  18.444  0.00  0.00    +0.000 A 
ATOM     17  C   UNL     1       8.126  15.061  18.804  0.00  0.00    +0.000 C 
ATOM     18  N   UNL     1       8.830  12.745  18.880  0.00  0.00    +0.000 NA
ATOM     19  C   UNL     1       9.697  11.777  18.554  0.00  0.00    +0.000 A 
ATOM     20  N   UNL     1      10.818  11.957  17.839  0.00  0.00    +0.000 NA
ENDBRANCH  12  19
ENDBRANCH  11  12
ENDBRANCH   7  11
ENDBRANCH   1   9
BRANCH   5  21
ATOM     21  C   UNL     1       4.565   3.960  19.077  0.00  0.00    +0.000 C 
BRANCH  21  22
ATOM     22  O   UNL     1       3.152   4.079  18.945  0.00  0.00    +0.000 OA
BRANCH  22  23
ATOM     23  C   UNL     1       2.573   5.174  19.522  0.00  0.00    +0.000 A 
ATOM     24  C   UNL     1       2.645   6.339  18.762  0.00  0.00    +0.000 A 
ATOM     25  C   UNL     1       2.048   7.521  19.208  0.00  0.00    +0.000 A 
ATOM     26  C   UNL     1       1.346   7.558  20.411  0.00  0.00    +0.000 A 
ATOM     27  C   UNL     1       1.301   6.398  21.193  0.00  0.00    +0.000 A 
ATOM     28  C   UNL     1       1.901   5.207  20.745  0.00  0.00    +0.000 A 
BRANCH  26  29
ATOM     29  N   UNL     1       0.665   8.706  20.869  0.00  0.00    +0.000 N 
ATOM     30  C   UNL     1       1.034   9.506  21.942  0.00  0.00    +0.000 C 
ATOM     31  O   UNL     1       2.023   9.330  22.647  0.00  0.00    +0.000 OA
ATOM     32  H   UNL     1      -0.108   9.056  20.315  0.00  0.00    +0.000 HD
BRANCH  30  33
ATOM     33  C   UNL     1       0.155  10.640  22.157  0.00  0.00    +0.000 A 
ATOM     34  C   UNL     1       0.078  11.848  21.489  0.00  0.00    +0.000 A 
ATOM     35  C   UNL     1      -0.958  12.590  22.099  0.00  0.00    +0.000 A 
ATOM     36  C   UNL     1      -1.450  11.792  23.107  0.00  0.00    +0.000 A 
ATOM     37  O   UNL     1      -0.787  10.607  23.152  0.00  0.00    +0.000 OA
ENDBRANCH  30  33
ENDBRANCH  26  29
ENDBRANCH  22  23
ENDBRANCH  21  22
ENDBRANCH   5  21
TORSDOF 9
ENDMDL
MODEL 4
REMARK VINA RESULT:      -8.1      1.903      2.196
REMARK  Name = 
REMARK  11 active torsions:
REMARK  status: ('A' for Active; 'I' for Inactive)
REMARK    1  A    between atoms: C_1  and  C_2
REMARK    2  A    between atoms: C_4  and  C_5
REMARK    3  A    between atoms: C_7  and  S_8
REMARK    4  A    between atoms: S_8  and  C_9
REMARK    5  A    between atoms: C_9  and  C_10
REMARK    6  A    between atoms: N_12  and  C_13
REMARK    7  A    between atoms: C_17  and  C_18
REMARK    8  A    between atoms: C_18  and  O_19
REMARK    9  A    between atoms: O_19  and  C_20
REMARK   10  A    between atoms: C_23  and  N_24
REMARK   11  A    between atoms: C_25  and  C_27
REMARK                            x       y       z     vdW  Elec       q    Type
REMARK                         _______ _______ _______ _____ _____    ______ ____
ROOT
ATOM      1  C   UNL     1       2.624   6.535  18.955  0.00  0.00    +0.000 A 
ATOM      2  C   UNL     1       2.344   5.673  20.017  0.00  0.00    +0.000 A 
ATOM      3  C   UNL     1       2.780   4.348  19.995  0.00  0.00    +0.000 A 
ATOM      4  C   UNL     1       3.497   3.871  18.904  0.00  0.00    +0.000 A 
ATOM      5  C   UNL     1       3.763   4.705  17.809  0.00  0.00    +0.000 A 
ATOM      6  C   UNL     1       3.321   6.040  17.842  0.00  0.00    +0.000 A 
ENDROOT
BRANCH   1   9
ATOM      7  C   UNL     1       1.419   8.513  19.894  0.00  0.00    +0.000 C 
ATOM      8  O   UNL     1       1.124   8.045  20.993  0.00  0.00    +0.000 OA
ATOM      9  N   UNL     1       2.207   7.883  18.939  0.00  0.00    +0.000 N 
ATOM     10  H   UNL     1       2.521   8.450  18.165  0.00  0.00    +0.000 HD
BRANCH   7  11
ATOM     11  C   UNL     1       1.023   9.944  19.560  0.00  0.00    +0.000 C 
BRANCH  11  12
ATOM     12  S   UNL     1       0.665  10.962  21.023  0.00  0.00    +0.000 S 
BRANCH  12  19
ATOM     13  C   UNL     1      -3.622  13.396  22.254  0.00  0.00    +0.000 C 
ATOM     14  C   UNL     1      -2.855  12.668  21.191  0.00  0.00    +0.000 A 
ATOM     15  C   UNL     1      -3.392  12.481  19.933  0.00  0.00    +0.000 A 
ATOM     16  C   UNL     1      -2.615  11.794  19.023  0.00  0.00    +0.000 A 
ATOM     17  C   UNL     1      -3.097  11.536  17.628  0.00  0.00    +0.000 C 
ATOM     18  N   UNL     1      -1.392  11.322  19.335  0.00  0.00    +0.000 NA
ATOM     19  C   UNL     1      -0.948  11.557  20.577  0.00  0.00    +0.000 A 
ATOM     20  N   UNL     1      -1.631  12.213  21.528  0.00  0.00    +0.000 NA
ENDBRANCH  12  19
ENDBRANCH  11  12
ENDBRANCH   7  11
ENDBRANCH   1   9
BRANCH   5  21
ATOM     21  C   UNL     1       4.545   4.166  16.632  0.00  0.00    +0.000 C 
BRANCH  21  22
ATOM     22  O   UNL     1       5.907   4.021  17.022  0.00  0.00    +0.000 OA
BRANCH  22  23
ATOM     23  C   UNL     1       6.554   5.157  17.422  0.00  0.00    +0.000 A 
ATOM     24  C   UNL     1       7.100   5.096  18.701  0.00  0.00    +0.000 A 
ATOM     25  C   UNL     1       7.834   6.168  19.217  0.00  0.00    +0.000 A 
ATOM     26  C   UNL     1       8.058   7.313  18.455  0.00  0.00    +0.000 A 
ATOM     27  C   UNL     1       7.482   7.390  17.182  0.00  0.00    +0.000 A 
ATOM     28  C   UNL     1       6.743   6.312  16.662  0.00  0.00    +0.000 A 
BRANCH  26  29
ATOM     29  N   UNL     1       8.852   8.390  18.902  0.00  0.00    +0.000 N 
ATOM     30  C   UNL     1       8.697   9.725  18.554  0.00  0.00    +0.000 C 
ATOM     31  O   UNL     1       7.829  10.163  17.804  0.00  0.00    +0.000 OA
ATOM     32  H   UNL     1       9.539   8.210  19.625  0.00  0.00    +0.000 HD
BRANCH  30  33
ATOM     33  C   UNL     1       9.646  10.613  19.197  0.00  0.00    +0.000 A 
ATOM     34  C   UNL     1      10.802  11.191  18.706  0.00  0.00    +0.000 A 
ATOM     35  C   UNL     1      11.344  11.976  19.749  0.00  0.00    +0.000 A 
ATOM     36  C   UNL     1      10.488  11.828  20.817  0.00  0.00    +0.000 A 
ATOM     37  O   UNL     1       9.454  11.007  20.496  0.00  0.00    +0.000 OA
ENDBRANCH  30  33
ENDBRANCH  26  29
ENDBRANCH  22  23
ENDBRANCH  21  22
ENDBRANCH   5  21
TORSDOF 9
ENDMDL
MODEL 5
REMARK VINA RESULT:      -8.0      4.411     11.239
REMARK  Name = 
REMARK  11 active torsions:
REMARK  status: ('A' for Active; 'I' for Inactive)
REMARK    1  A    between atoms: C_1  and  C_2
REMARK    2  A    between atoms: C_4  and  C_5
REMARK    3  A    between atoms: C_7  and  S_8
REMARK    4  A    between atoms: S_8  and  C_9
REMARK    5  A    between atoms: C_9  and  C_10
REMARK    6  A    between atoms: N_12  and  C_13
REMARK    7  A    between atoms: C_17  and  C_18
REMARK    8  A    between atoms: C_18  and  O_19
REMARK    9  A    between atoms: O_19  and  C_20
REMARK   10  A    between atoms: C_23  and  N_24
REMARK   11  A    between atoms: C_25  and  C_27
REMARK                            x       y       z     vdW  Elec       q    Type
REMARK                         _______ _______ _______ _____ _____    ______ ____
ROOT
ATOM      1  C   UNL     1       2.132   7.032  20.235  0.00  0.00    +0.000 A 
ATOM      2  C   UNL     1       1.507   7.345  21.444  0.00  0.00    +0.000 A 
ATOM      3  C   UNL     1       0.739   8.502  21.572  0.00  0.00    +0.000 A 
ATOM      4  C   UNL     1       0.594   9.362  20.490  0.00  0.00    +0.000 A 
ATOM      5  C   UNL     1       1.239   9.091  19.274  0.00  0.00    +0.000 A 
ATOM      6  C   UNL     1       2.008   7.920  19.155  0.00  0.00    +0.000 A 
ENDROOT
BRANCH   1   9
ATOM      7  C   UNL     1       2.437   4.586  19.823  0.00  0.00    +0.000 C 
ATOM      8  O   UNL     1       1.275   4.300  19.538  0.00  0.00    +0.000 OA
ATOM      9  N   UNL     1       2.912   5.870  20.061  0.00  0.00    +0.000 N 
ATOM     10  H   UNL     1       3.915   5.981  20.100  0.00  0.00    +0.000 HD
BRANCH   7  11
ATOM     11  C   UNL     1       3.503   3.499  19.796  0.00  0.00    +0.000 C 
BRANCH  11  12
ATOM     12  S   UNL     1       3.751   2.762  18.152  0.00  0.00    +0.000 S 
BRANCH  12  19
ATOM     13  C   UNL     1       7.695   5.789  19.201  0.00  0.00    +0.000 C 
ATOM     14  C   UNL     1       6.898   5.091  18.140  0.00  0.00    +0.000 A 
ATOM     15  C   UNL     1       7.238   5.209  16.806  0.00  0.00    +0.000 A 
ATOM     16  C   UNL     1       6.442   4.536  15.902  0.00  0.00    +0.000 A 
ATOM     17  C   UNL     1       6.720   4.592  14.430  0.00  0.00    +0.000 C 
ATOM     18  N   UNL     1       5.382   3.799  16.288  0.00  0.00    +0.000 NA
ATOM     19  C   UNL     1       5.132   3.735  17.603  0.00  0.00    +0.000 A 
ATOM     20  N   UNL     1       5.848   4.355  18.553  0.00  0.00    +0.000 NA
ENDBRANCH  12  19
ENDBRANCH  11  12
ENDBRANCH   7  11
ENDBRANCH   1   9
BRANCH   5  21
ATOM     21  C   UNL     1       1.068  10.040  18.110  0.00  0.00    +0.000 C 
BRANCH  21  22
ATOM     22  O   UNL     1      -0.166   9.745  17.463  0.00  0.00    +0.000 OA
BRANCH  22  23
ATOM     23  C   UNL     1      -1.274  10.393  17.933  0.00  0.00    +0.000 A 
ATOM     24  C   UNL     1      -1.009  11.581  18.610  0.00  0.00    +0.000 A 
ATOM     25  C   UNL     1      -2.052  12.374  19.097  0.00  0.00    +0.000 A 
ATOM     26  C   UNL     1      -3.382  12.007  18.897  0.00  0.00    +0.000 A 
ATOM     27  C   UNL     1      -3.649  10.797  18.247  0.00  0.00    +0.000 A 
ATOM     28  C   UNL     1      -2.601   9.999  17.756  0.00  0.00    +0.000 A 
BRANCH  26  29
ATOM     29  N   UNL     1      -4.469  12.808  19.306  0.00  0.00    +0.000 N 
ATOM     30  C   UNL     1      -5.026  12.851  20.577  0.00  0.00    +0.000 C 
ATOM     31  O   UNL     1      -4.639  12.196  21.540  0.00  0.00    +0.000 OA
ATOM     32  H   UNL     1      -4.825  13.499  18.655  0.00  0.00    +0.000 HD
BRANCH  30  33
ATOM     33  C   UNL     1      -6.118  13.797  20.707  0.00  0.00    +0.000 A 
ATOM     34  C   UNL     1      -7.103  13.895  21.672  0.00  0.00    +0.000 A 
ATOM     35  C   UNL     1      -7.910  15.002  21.325  0.00  0.00    +0.000 A 
ATOM     36  C   UNL     1      -7.372  15.512  20.166  0.00  0.00    +0.000 A 
ATOM     37  O   UNL     1      -6.284  14.793  19.780  0.00  0.00    +0.000 OA
ENDBRANCH  30  33
ENDBRANCH  26  29
ENDBRANCH  22  23
ENDBRANCH  21  22
ENDBRANCH   5  21
TORSDOF 9
ENDMDL
MODEL 6
REMARK VINA RESULT:      -7.9      1.879      2.268
REMARK  Name = 
REMARK  11 active torsions:
REMARK  status: ('A' for Active; 'I' for Inactive)
REMARK    1  A    between atoms: C_1  and  C_2
REMARK    2  A    between atoms: C_4  and  C_5
REMARK    3  A    between atoms: C_7  and  S_8
REMARK    4  A    between atoms: S_8  and  C_9
REMARK    5  A    between atoms: C_9  and  C_10
REMARK    6  A    between atoms: N_12  and  C_13
REMARK    7  A    between atoms: C_17  and  C_18
REMARK    8  A    between atoms: C_18  and  O_19
REMARK    9  A    between atoms: O_19  and  C_20
REMARK   10  A    between atoms: C_23  and  N_24
REMARK   11  A    between atoms: C_25  and  C_27
REMARK                            x       y       z     vdW  Elec       q    Type
REMARK                         _______ _______ _______ _____ _____    ______ ____
ROOT
ATOM      1  C   UNL     1       2.090   4.819  19.824  0.00  0.00    +0.000 A 
ATOM      2  C   UNL     1       1.477   3.564  19.834  0.00  0.00    +0.000 A 
ATOM      3  C   UNL     1       2.021   2.499  19.117  0.00  0.00    +0.000 A 
ATOM      4  C   UNL     1       3.183   2.682  18.375  0.00  0.00    +0.000 A 
ATOM      5  C   UNL     1       3.800   3.940  18.319  0.00  0.00    +0.000 A 
ATOM      6  C   UNL     1       3.245   5.006  19.049  0.00  0.00    +0.000 A 
ENDROOT
BRANCH   1   9
ATOM      7  C   UNL     1       1.754   7.262  20.226  0.00  0.00    +0.000 C 
ATOM      8  O   UNL     1       2.224   7.689  19.171  0.00  0.00    +0.000 OA
ATOM      9  N   UNL     1       1.577   5.921  20.540  0.00  0.00    +0.000 N 
ATOM     10  H   UNL     1       1.014   5.717  21.353  0.00  0.00    +0.000 HD
BRANCH   7  11
ATOM     11  C   UNL     1       1.187   8.244  21.243  0.00  0.00    +0.000 C 
BRANCH  11  12
ATOM     12  S   UNL     1       1.650   9.973  20.925  0.00  0.00    +0.000 S 
BRANCH  12  19
ATOM     13  C   UNL     1      -2.438  12.987  21.063  0.00  0.00    +0.000 C 
ATOM     14  C   UNL     1      -1.682  11.935  20.309  0.00  0.00    +0.000 A 
ATOM     15  C   UNL     1      -2.152  11.451  19.103  0.00  0.00    +0.000 A 
ATOM     16  C   UNL     1      -1.390  10.480  18.486  0.00  0.00    +0.000 A 
ATOM     17  C   UNL     1      -1.805   9.886  17.173  0.00  0.00    +0.000 C 
ATOM     18  N   UNL     1      -0.245  10.016  19.022  0.00  0.00    +0.000 NA
ATOM     19  C   UNL     1       0.138  10.548  20.191  0.00  0.00    +0.000 A 
ATOM     20  N   UNL     1      -0.535  11.494  20.864  0.00  0.00    +0.000 NA
ENDBRANCH  12  19
ENDBRANCH  11  12
ENDBRANCH   7  11
ENDBRANCH   1   9
BRANCH   5  21
ATOM     21  C   UNL     1       5.062   4.117  17.507  0.00  0.00    +0.000 C 
BRANCH  21  22
ATOM     22  O   UNL     1       6.113   4.508  18.385  0.00  0.00    +0.000 OA
BRANCH  22  23
ATOM     23  C   UNL     1       6.623   5.764  18.209  0.00  0.00    +0.000 A 
ATOM     24  C   UNL     1       7.751   6.047  18.976  0.00  0.00    +0.000 A 
ATOM     25  C   UNL     1       8.406   7.275  18.857  0.00  0.00    +0.000 A 
ATOM     26  C   UNL     1       7.962   8.237  17.951  0.00  0.00    +0.000 A 
ATOM     27  C   UNL     1       6.810   7.969  17.204  0.00  0.00    +0.000 A 
ATOM     28  C   UNL     1       6.150   6.733  17.323  0.00  0.00    +0.000 A 
BRANCH  26  29
ATOM     29  N   UNL     1       8.631   9.462  17.742  0.00  0.00    +0.000 N 
ATOM     30  C   UNL     1       9.130  10.305  18.726  0.00  0.00    +0.000 C 
ATOM     31  O   UNL     1       9.065  10.095  19.934  0.00  0.00    +0.000 OA
ATOM     32  H   UNL     1       8.873   9.718  16.791  0.00  0.00    +0.000 HD
BRANCH  30  33
ATOM     33  C   UNL     1       9.800  11.482  18.207  0.00  0.00    +0.000 A 
ATOM     34  C   UNL     1      11.124  11.674  17.859  0.00  0.00    +0.000 A 
ATOM     35  C   UNL     1      11.239  13.007  17.402  0.00  0.00    +0.000 A 
ATOM     36  C   UNL     1       9.979  13.550  17.501  0.00  0.00    +0.000 A 
ATOM     37  O   UNL     1       9.096  12.637  17.985  0.00  0.00    +0.000 OA
ENDBRANCH  30  33
ENDBRANCH  26  29
ENDBRANCH  22  23
ENDBRANCH  21  22
ENDBRANCH   5  21
TORSDOF 9
ENDMDL
MODEL 7
REMARK VINA RESULT:      -7.9      4.332      9.608
REMARK  Name = 
REMARK  11 active torsions:
REMARK  status: ('A' for Active; 'I' for Inactive)
REMARK    1  A    between atoms: C_1  and  C_2
REMARK    2  A    between atoms: C_4  and  C_5
REMARK    3  A    between atoms: C_7  and  S_8
REMARK    4  A    between atoms: S_8  and  C_9
REMARK    5  A    between atoms: C_9  and  C_10
REMARK    6  A    between atoms: N_12  and  C_13
REMARK    7  A    between atoms: C_17  and  C_18
REMARK    8  A    between atoms: C_18  and  O_19
REMARK    9  A    between atoms: O_19  and  C_20
REMARK   10  A    between atoms: C_23  and  N_24
REMARK   11  A    between atoms: C_25  and  C_27
REMARK                            x       y       z     vdW  Elec       q    Type
REMARK                         _______ _______ _______ _____ _____    ______ ____
ROOT
ATOM      1  C   UNL     1       2.295   6.046  19.152  0.00  0.00    +0.000 A 
ATOM      2  C   UNL     1       2.738   6.731  18.019  0.00  0.00    +0.000 A 
ATOM      3  C   UNL     1       2.662   8.123  17.952  0.00  0.00    +0.000 A 
ATOM      4  C   UNL     1       2.134   8.842  19.018  0.00  0.00    +0.000 A 
ATOM      5  C   UNL     1       1.650   8.177  20.153  0.00  0.00    +0.000 A 
ATOM      6  C   UNL     1       1.734   6.775  20.213  0.00  0.00    +0.000 A 
ENDROOT
BRANCH   1   9
ATOM      7  C   UNL     1       1.854   3.718  18.358  0.00  0.00    +0.000 C 
ATOM      8  O   UNL     1       1.443   3.983  17.229  0.00  0.00    +0.000 OA
ATOM      9  N   UNL     1       2.359   4.641  19.265  0.00  0.00    +0.000 N 
ATOM     10  H   UNL     1       2.830   4.267  20.076  0.00  0.00    +0.000 HD
BRANCH   7  11
ATOM     11  C   UNL     1       1.959   2.263  18.793  0.00  0.00    +0.000 C 
BRANCH  11  12
ATOM     12  S   UNL     1       3.654   1.740  19.187  0.00  0.00    +0.000 S 
BRANCH  12  19
ATOM     13  C   UNL     1       6.859   5.674  19.451  0.00  0.00    +0.000 C 
ATOM     14  C   UNL     1       6.008   4.808  18.572  0.00  0.00    +0.000 A 
ATOM     15  C   UNL     1       5.943   5.028  17.210  0.00  0.00    +0.000 A 
ATOM     16  C   UNL     1       5.127   4.183  16.484  0.00  0.00    +0.000 A 
ATOM     17  C   UNL     1       4.983   4.330  14.999  0.00  0.00    +0.000 C 
ATOM     18  N   UNL     1       4.425   3.191  17.063  0.00  0.00    +0.000 NA
ATOM     19  C   UNL     1       4.555   3.046  18.389  0.00  0.00    +0.000 A 
ATOM     20  N   UNL     1       5.321   3.817  19.175  0.00  0.00    +0.000 NA
ENDBRANCH  12  19
ENDBRANCH  11  12
ENDBRANCH   7  11
ENDBRANCH   1   9
BRANCH   5  21
ATOM     21  C   UNL     1       1.079   8.978  21.301  0.00  0.00    +0.000 C 
BRANCH  21  22
ATOM     22  O   UNL     1      -0.293   9.244  21.030  0.00  0.00    +0.000 OA
BRANCH  22  23
ATOM     23  C   UNL     1      -0.594  10.491  20.557  0.00  0.00    +0.000 A 
ATOM     24  C   UNL     1      -0.486  11.512  21.498  0.00  0.00    +0.000 A 
ATOM     25  C   UNL     1      -0.713  12.843  21.138  0.00  0.00    +0.000 A 
ATOM     26  C   UNL     1      -1.028  13.184  19.824  0.00  0.00    +0.000 A 
ATOM     27  C   UNL     1      -1.170  12.158  18.884  0.00  0.00    +0.000 A 
ATOM     28  C   UNL     1      -0.942  10.817  19.245  0.00  0.00    +0.000 A 
BRANCH  26  29
ATOM     29  N   UNL     1      -1.195  14.518  19.396  0.00  0.00    +0.000 N 
ATOM     30  C   UNL     1      -0.191  15.371  18.955  0.00  0.00    +0.000 C 
ATOM     31  O   UNL     1       0.997  15.076  18.867  0.00  0.00    +0.000 OA
ATOM     32  H   UNL     1      -2.139  14.873  19.293  0.00  0.00    +0.000 HD
BRANCH  30  33
ATOM     33  C   UNL     1      -0.669  16.678  18.547  0.00  0.00    +0.000 A 
ATOM     34  C   UNL     1      -1.747  17.415  19.000  0.00  0.00    +0.000 A 
ATOM     35  C   UNL     1      -1.756  18.624  18.268  0.00  0.00    +0.000 A 
ATOM     36  C   UNL     1      -0.684  18.551  17.407  0.00  0.00    +0.000 A 
ATOM     37  O   UNL     1      -0.015  17.378  17.567  0.00  0.00    +0.000 OA
ENDBRANCH  30  33
ENDBRANCH  26  29
ENDBRANCH  22  23
ENDBRANCH  21  22
ENDBRANCH   5  21
TORSDOF 9
ENDMDL
MODEL 8
REMARK VINA RESULT:      -7.9      1.850      2.497
REMARK  Name = 
REMARK  11 active torsions:
REMARK  status: ('A' for Active; 'I' for Inactive)
REMARK    1  A    between atoms: C_1  and  C_2
REMARK    2  A    between atoms: C_4  and  C_5
REMARK    3  A    between atoms: C_7  and  S_8
REMARK    4  A    between atoms: S_8  and  C_9
REMARK    5  A    between atoms: C_9  and  C_10
REMARK    6  A    between atoms: N_12  and  C_13
REMARK    7  A    between atoms: C_17  and  C_18
REMARK    8  A    between atoms: C_18  and  O_19
REMARK    9  A    between atoms: O_19  and  C_20
REMARK   10  A    between atoms: C_23  and  N_24
REMARK   11  A    between atoms: C_25  and  C_27
REMARK                            x       y       z     vdW  Elec       q    Type
REMARK                         _______ _______ _______ _____ _____    ______ ____
ROOT
ATOM      1  C   UNL     1       2.536   6.388  18.428  0.00  0.00    +0.000 A 
ATOM      2  C   UNL     1       2.027   5.432  19.312  0.00  0.00    +0.000 A 
ATOM      3  C   UNL     1       2.423   4.097  19.224  0.00  0.00    +0.000 A 
ATOM      4  C   UNL     1       3.328   3.705  18.245  0.00  0.00    +0.000 A 
ATOM      5  C   UNL     1       3.828   4.636  17.324  0.00  0.00    +0.000 A 
ATOM      6  C   UNL     1       3.426   5.980  17.423  0.00  0.00    +0.000 A 
ENDROOT
BRANCH   1   9
ATOM      7  C   UNL     1       1.645   8.415  19.587  0.00  0.00    +0.000 C 
ATOM      8  O   UNL     1       1.603   7.969  20.733  0.00  0.00    +0.000 OA
ATOM      9  N   UNL     1       2.167   7.748  18.486  0.00  0.00    +0.000 N 
ATOM     10  H   UNL     1       2.308   8.297  17.650  0.00  0.00    +0.000 HD
BRANCH   7  11
ATOM     11  C   UNL     1       1.224   9.855  19.329  0.00  0.00    +0.000 C 
BRANCH  11  12
ATOM     12  S   UNL     1       0.409  10.642  20.751  0.00  0.00    +0.000 S 
BRANCH  12  19
ATOM     13  C   UNL     1       3.806  14.332  21.563  0.00  0.00    +0.000 C 
ATOM     14  C   UNL     1       2.518  13.937  20.905  0.00  0.00    +0.000 A 
ATOM     15  C   UNL     1       1.802  14.844  20.147  0.00  0.00    +0.000 A 
ATOM     16  C   UNL     1       0.625  14.390  19.586  0.00  0.00    +0.000 A 
ATOM     17  C   UNL     1      -0.229  15.287  18.744  0.00  0.00    +0.000 C 
ATOM     18  N   UNL     1       0.186  13.129  19.762  0.00  0.00    +0.000 NA
ATOM     19  C   UNL     1       0.949  12.316  20.506  0.00  0.00    +0.000 A 
ATOM     20  N   UNL     1       2.104  12.668  21.091  0.00  0.00    +0.000 NA
ENDBRANCH  12  19
ENDBRANCH  11  12
ENDBRANCH   7  11
ENDBRANCH   1   9
BRANCH   5  21
ATOM     21  C   UNL     1       4.812   4.188  16.267  0.00  0.00    +0.000 C 
BRANCH  21  22
ATOM     22  O   UNL     1       6.091   4.035  16.875  0.00  0.00    +0.000 OA
BRANCH  22  23
ATOM     23  C   UNL     1       6.693   5.175  17.329  0.00  0.00    +0.000 A 
ATOM     24  C   UNL     1       7.208   5.086  18.620  0.00  0.00    +0.000 A 
ATOM     25  C   UNL     1       7.896   6.161  19.191  0.00  0.00    +0.000 A 
ATOM     26  C   UNL     1       8.104   7.338  18.473  0.00  0.00    +0.000 A 
ATOM     27  C   UNL     1       7.559   7.442  17.189  0.00  0.00    +0.000 A 
ATOM     28  C   UNL     1       6.866   6.361  16.614  0.00  0.00    +0.000 A 
BRANCH  26  29
ATOM     29  N   UNL     1       8.854   8.422  18.977  0.00  0.00    +0.000 N 
ATOM     30  C   UNL     1       8.710   9.756  18.621  0.00  0.00    +0.000 C 
ATOM     31  O   UNL     1       7.893  10.187  17.812  0.00  0.00    +0.000 OA
ATOM     32  H   UNL     1       9.490   8.247  19.747  0.00  0.00    +0.000 HD
BRANCH  30  33
ATOM     33  C   UNL     1       9.602  10.652  19.331  0.00  0.00    +0.000 A 
ATOM     34  C   UNL     1       9.496  11.199  20.596  0.00  0.00    +0.000 A 
ATOM     35  C   UNL     1      10.644  11.998  20.797  0.00  0.00    +0.000 A 
ATOM     36  C   UNL     1      11.383  11.894  19.640  0.00  0.00    +0.000 A 
ATOM     37  O   UNL     1      10.765  11.080  18.744  0.00  0.00    +0.000 OA
ENDBRANCH  30  33
ENDBRANCH  26  29
ENDBRANCH  22  23
ENDBRANCH  21  22
ENDBRANCH   5  21
TORSDOF 9
ENDMDL
MODEL 9
REMARK VINA RESULT:      -7.9      2.466      2.582
REMARK  Name = 
REMARK  11 active torsions:
REMARK  status: ('A' for Active; 'I' for Inactive)
REMARK    1  A    between atoms: C_1  and  C_2
REMARK    2  A    between atoms: C_4  and  C_5
REMARK    3  A    between atoms: C_7  and  S_8
REMARK    4  A    between atoms: S_8  and  C_9
REMARK    5  A    between atoms: C_9  and  C_10
REMARK    6  A    between atoms: N_12  and  C_13
REMARK    7  A    between atoms: C_17  and  C_18
REMARK    8  A    between atoms: C_18  and  O_19
REMARK    9  A    between atoms: O_19  and  C_20
REMARK   10  A    between atoms: C_23  and  N_24
REMARK   11  A    between atoms: C_25  and  C_27
REMARK                            x       y       z     vdW  Elec       q    Type
REMARK                         _______ _______ _______ _____ _____    ______ ____
ROOT
ATOM      1  C   UNL     1       2.384   6.108  17.905  0.00  0.00    +0.000 A 
ATOM      2  C   UNL     1       1.355   5.176  17.752  0.00  0.00    +0.000 A 
ATOM      3  C   UNL     1       1.624   3.807  17.766  0.00  0.00    +0.000 A 
ATOM      4  C   UNL     1       2.929   3.357  17.925  0.00  0.00    +0.000 A 
ATOM      5  C   UNL     1       3.986   4.270  18.046  0.00  0.00    +0.000 A 
ATOM      6  C   UNL     1       3.704   5.648  18.034  0.00  0.00    +0.000 A 
ENDROOT
BRANCH   1   9
ATOM      7  C   UNL     1       1.841   8.284  19.005  0.00  0.00    +0.000 C 
ATOM      8  O   UNL     1       1.900   7.918  20.178  0.00  0.00    +0.000 OA
ATOM      9  N   UNL     1       2.156   7.500  17.903  0.00  0.00    +0.000 N 
ATOM     10  H   UNL     1       2.243   7.977  17.017  0.00  0.00    +0.000 HD
BRANCH   7  11
ATOM     11  C   UNL     1       1.530   9.741  18.692  0.00  0.00    +0.000 C 
BRANCH  11  12
ATOM     12  S   UNL     1       0.703  10.619  20.051  0.00  0.00    +0.000 S 
BRANCH  12  19
ATOM     13  C   UNL     1      -3.863  12.848  20.130  0.00  0.00    +0.000 C 
ATOM     14  C   UNL     1      -2.904  11.983  19.369  0.00  0.00    +0.000 A 
ATOM     15  C   UNL     1      -3.237  11.479  18.127  0.00  0.00    +0.000 A 
ATOM     16  C   UNL     1      -2.292  10.687  17.506  0.00  0.00    +0.000 A 
ATOM     17  C   UNL     1      -2.546  10.089  16.156  0.00  0.00    +0.000 C 
ATOM     18  N   UNL     1      -1.102  10.411  18.073  0.00  0.00    +0.000 NA
ATOM     19  C   UNL     1      -0.861  10.950  19.276  0.00  0.00    +0.000 A 
ATOM     20  N   UNL     1      -1.717  11.728  19.956  0.00  0.00    +0.000 NA
ENDBRANCH  12  19
ENDBRANCH  11  12
ENDBRANCH   7  11
ENDBRANCH   1   9
BRANCH   5  21
ATOM     21  C   UNL     1       5.399   3.760  18.218  0.00  0.00    +0.000 C 
BRANCH  21  22
ATOM     22  O   UNL     1       6.237   4.423  17.277  0.00  0.00    +0.000 OA
BRANCH  22  23
ATOM     23  C   UNL     1       6.990   5.461  17.752  0.00  0.00    +0.000 A 
ATOM     24  C   UNL     1       7.035   6.575  16.918  0.00  0.00    +0.000 A 
ATOM     25  C   UNL     1       7.724   7.728  17.303  0.00  0.00    +0.000 A 
ATOM     26  C   UNL     1       8.363   7.800  18.540  0.00  0.00    +0.000 A 
ATOM     27  C   UNL     1       8.347   6.670  19.365  0.00  0.00    +0.000 A 
ATOM     28  C   UNL     1       7.653   5.509  18.979  0.00  0.00    +0.000 A 
BRANCH  26  29
ATOM     29  N   UNL     1       9.009   8.965  19.005  0.00  0.00    +0.000 N 
ATOM     30  C   UNL     1       8.821  10.255  18.527  0.00  0.00    +0.000 C 
ATOM     31  O   UNL     1       8.048  10.569  17.626  0.00  0.00    +0.000 OA
ATOM     32  H   UNL     1       9.590   8.891  19.833  0.00  0.00    +0.000 HD
BRANCH  30  33
ATOM     33  C   UNL     1       9.603  11.258  19.224  0.00  0.00    +0.000 A 
ATOM     34  C   UNL     1      10.283  12.358  18.736  0.00  0.00    +0.000 A 
ATOM     35  C   UNL     1      10.870  13.005  19.846  0.00  0.00    +0.000 A 
ATOM     36  C   UNL     1      10.517  12.260  20.947  0.00  0.00    +0.000 A 
ATOM     37  O   UNL     1       9.747  11.199  20.587  0.00  0.00    +0.000 OA
ENDBRANCH  30  33
ENDBRANCH  26  29
ENDBRANCH  22  23
ENDBRANCH  21  22
ENDBRANCH   5  21
TORSDOF 9
ENDMDL
