MODEL 1
REMARK VINA RESULT:      -7.5      0.000      0.000
REMARK  Name = 
REMARK  8 active torsions:
REMARK  status: ('A' for Active; 'I' for Inactive)
REMARK    1  A    between atoms: C_1  and  O_2
REMARK    2  A    between atoms: O_2  and  C_3
REMARK    3  A    between atoms: C_3  and  C_5
REMARK    4  A    between atoms: C_8  and  N_9
REMARK    5  A    between atoms: C_16  and  C_17
REMARK    6  A    between atoms: C_17  and  O_19
REMARK    7  A    between atoms: O_19  and  C_20
REMARK    8  A    between atoms: N_21  and  C_22
REMARK                            x       y       z     vdW  Elec       q    Type
REMARK                         _______ _______ _______ _____ _____    ______ ____
ROOT
ATOM      1  N   UNL     1       4.340   4.479  19.321  0.00  0.00    +0.000 N 
ATOM      2  C   UNL     1       4.588   3.085  19.782  0.00  0.00    +0.000 C 
ATOM      3  C   UNL     1       3.191   2.400  19.839  0.00  0.00    +0.000 C 
ATOM      4  C   UNL     1       2.703   2.506  21.305  0.00  0.00    +0.000 C 
ATOM      5  N   UNL     1       2.208   3.819  21.641  0.00  0.00    +0.000 N 
ATOM      6  C   UNL     1       2.086   4.807  20.686  0.00  0.00    +0.000 C 
ATOM      7  O   UNL     1       1.301   5.724  20.945  0.00  0.00    +0.000 OA
ATOM      8  C   UNL     1       2.784   4.564  19.246  0.00  0.00    +0.000 C 
ATOM      9  N   UNL     1       2.377   3.171  18.832  0.00  0.00    +0.000 NA
ATOM     10  C   UNL     1       0.972   2.836  18.796  0.00  0.00    +0.000 C 
ATOM     11  H   UNL     1       1.593   3.948  22.435  0.00  0.00    +0.000 HD
ENDROOT
BRANCH   1  15
ATOM     12  C   UNL     1       6.156   4.735  15.445  0.00  0.00    +0.000 A 
ATOM     13  C   UNL     1       6.292   5.799  16.336  0.00  0.00    +0.000 A 
ATOM     14  C   UNL     1       5.666   5.754  17.587  0.00  0.00    +0.000 A 
ATOM     15  C   UNL     1       4.865   4.660  17.980  0.00  0.00    +0.000 A 
ATOM     16  C   UNL     1       4.695   3.624  17.053  0.00  0.00    +0.000 A 
ATOM     17  C   UNL     1       5.349   3.648  15.808  0.00  0.00    +0.000 A 
BRANCH  12  18
ATOM     18  C   UNL     1       6.918   4.806  14.162  0.00  0.00    +0.000 C 
ATOM     19  O   UNL     1       7.892   5.506  13.990  0.00  0.00    +0.000 OA
BRANCH  18  21
ATOM     20  C   UNL     1       7.082   3.872  12.016  0.00  0.00    +0.000 C 
ATOM     21  O   UNL     1       6.362   3.966  13.247  0.00  0.00    +0.000 OA
ENDBRANCH  18  21
ENDBRANCH  12  18
ENDBRANCH   1  15
BRANCH   8  22
ATOM     22  C   UNL     1       2.386   5.835  18.422  0.00  0.00    +0.000 C 
ATOM     23  O   UNL     1       1.622   5.766  17.450  0.00  0.00    +0.000 OA
BRANCH  22  24
ATOM     24  O   UNL     1       2.838   7.021  18.908  0.00  0.00    +0.000 OA
ATOM     25  C   UNL     1       2.515   8.145  18.078  0.00  0.00    +0.000 C 
ENDBRANCH  22  24
ENDBRANCH   8  22
TORSDOF 5
ENDMDL
MODEL 2
REMARK VINA RESULT:      -7.5      0.502      1.028
REMARK  Name = 
REMARK  8 active torsions:
REMARK  status: ('A' for Active; 'I' for Inactive)
REMARK    1  A    between atoms: C_1  and  O_2
REMARK    2  A    between atoms: O_2  and  C_3
REMARK    3  A    between atoms: C_3  and  C_5
REMARK    4  A    between atoms: C_8  and  N_9
REMARK    5  A    between atoms: C_16  and  C_17
REMARK    6  A    between atoms: C_17  and  O_19
REMARK    7  A    between atoms: O_19  and  C_20
REMARK    8  A    between atoms: N_21  and  C_22
REMARK                            x       y       z     vdW  Elec       q    Type
REMARK                         _______ _______ _______ _____ _____    ______ ____
ROOT
ATOM      1  N   UNL     1       4.434   4.078  19.524  0.00  0.00    +0.000 N 
ATOM      2  C   UNL     1       4.497   2.712  20.113  0.00  0.00    +0.000 C 
ATOM      3  C   UNL     1       3.034   2.178  20.108  0.00  0.00    +0.000 C 
ATOM      4  C   UNL     1       2.451   2.459  21.514  0.00  0.00    +0.000 C 
ATOM      5  N   UNL     1       2.076   3.839  21.703  0.00  0.00    +0.000 N 
ATOM      6  C   UNL     1       2.131   4.747  20.665  0.00  0.00    +0.000 C 
ATOM      7  O   UNL     1       1.430   5.757  20.784  0.00  0.00    +0.000 OA
ATOM      8  C   UNL     1       2.905   4.311  19.313  0.00  0.00    +0.000 C 
ATOM      9  N   UNL     1       2.385   2.935  18.977  0.00  0.00    +0.000 NA
ATOM     10  C   UNL     1       0.959   2.740  18.850  0.00  0.00    +0.000 C 
ATOM     11  H   UNL     1       1.420   4.097  22.429  0.00  0.00    +0.000 HD
ENDROOT
BRANCH   1  15
ATOM     12  C   UNL     1       6.248   4.493  15.661  0.00  0.00    +0.000 A 
ATOM     13  C   UNL     1       5.058   3.778  15.785  0.00  0.00    +0.000 A 
ATOM     14  C   UNL     1       4.476   3.591  17.044  0.00  0.00    +0.000 A 
ATOM     15  C   UNL     1       5.074   4.088  18.222  0.00  0.00    +0.000 A 
ATOM     16  C   UNL     1       6.297   4.758  18.086  0.00  0.00    +0.000 A 
ATOM     17  C   UNL     1       6.868   4.979  16.820  0.00  0.00    +0.000 A 
BRANCH  12  18
ATOM     18  C   UNL     1       6.772   4.730  14.282  0.00  0.00    +0.000 C 
ATOM     19  O   UNL     1       7.722   5.438  14.031  0.00  0.00    +0.000 OA
BRANCH  18  21
ATOM     20  C   UNL     1       6.743   3.661  12.194  0.00  0.00    +0.000 C 
ATOM     21  O   UNL     1       6.034   4.027  13.380  0.00  0.00    +0.000 OA
ENDBRANCH  18  21
ENDBRANCH  12  18
ENDBRANCH   1  15
BRANCH   8  22
ATOM     22  C   UNL     1       2.708   5.538  18.360  0.00  0.00    +0.000 C 
ATOM     23  O   UNL     1       1.856   5.533  17.462  0.00  0.00    +0.000 OA
BRANCH  22  24
ATOM     24  O   UNL     1       3.448   6.640  18.654  0.00  0.00    +0.000 OA
ATOM     25  C   UNL     1       2.893   7.859  18.143  0.00  0.00    +0.000 C 
ENDBRANCH  22  24
ENDBRANCH   8  22
TORSDOF 5
ENDMDL
MODEL 3
REMARK VINA RESULT:      -6.7      3.069      6.198
REMARK  Name = 
REMARK  8 active torsions:
REMARK  status: ('A' for Active; 'I' for Inactive)
REMARK    1  A    between atoms: C_1  and  O_2
REMARK    2  A    between atoms: O_2  and  C_3
REMARK    3  A    between atoms: C_3  and  C_5
REMARK    4  A    between atoms: C_8  and  N_9
REMARK    5  A    between atoms: C_16  and  C_17
REMARK    6  A    between atoms: C_17  and  O_19
REMARK    7  A    between atoms: O_19  and  C_20
REMARK    8  A    between atoms: N_21  and  C_22
REMARK                            x       y       z     vdW  Elec       q    Type
REMARK                         _______ _______ _______ _____ _____    ______ ____
ROOT
ATOM      1  N   UNL     1       3.935   6.211  19.123  0.00  0.00    +0.000 N 
ATOM      2  C   UNL     1       4.727   6.415  17.878  0.00  0.00    +0.000 C 
ATOM      3  C   UNL     1       4.509   5.134  17.020  0.00  0.00    +0.000 C 
ATOM      4  C   UNL     1       5.709   4.198  17.303  0.00  0.00    +0.000 C 
ATOM      5  N   UNL     1       5.603   3.514  18.570  0.00  0.00    +0.000 N 
ATOM      6  C   UNL     1       4.472   3.621  19.351  0.00  0.00    +0.000 C 
ATOM      7  O   UNL     1       4.291   2.720  20.177  0.00  0.00    +0.000 OA
ATOM      8  C   UNL     1       3.386   4.759  18.969  0.00  0.00    +0.000 C 
ATOM      9  N   UNL     1       3.168   4.622  17.482  0.00  0.00    +0.000 NA
ATOM     10  C   UNL     1       2.788   3.335  16.948  0.00  0.00    +0.000 C 
ATOM     11  H   UNL     1       6.135   2.670  18.742  0.00  0.00    +0.000 HD
ENDROOT
BRANCH   1  15
ATOM     12  C   UNL     1       0.848   9.187  19.140  0.00  0.00    +0.000 A 
ATOM     13  C   UNL     1       1.143   8.501  20.316  0.00  0.00    +0.000 A 
ATOM     14  C   UNL     1       2.114   7.493  20.319  0.00  0.00    +0.000 A 
ATOM     15  C   UNL     1       2.803   7.119  19.145  0.00  0.00    +0.000 A 
ATOM     16  C   UNL     1       2.456   7.781  17.960  0.00  0.00    +0.000 A 
ATOM     17  C   UNL     1       1.507   8.819  17.958  0.00  0.00    +0.000 A 
BRANCH  12  18
ATOM     18  C   UNL     1      -0.135  10.309  19.221  0.00  0.00    +0.000 C 
ATOM     19  O   UNL     1      -0.331  10.968  20.220  0.00  0.00    +0.000 OA
BRANCH  18  21
ATOM     20  C   UNL     1      -2.131  10.118  18.003  0.00  0.00    +0.000 C 
ATOM     21  O   UNL     1      -0.748  10.476  18.017  0.00  0.00    +0.000 OA
ENDBRANCH  18  21
ENDBRANCH  12  18
ENDBRANCH   1  15
BRANCH   8  22
ATOM     22  C   UNL     1       2.237   4.540  20.010  0.00  0.00    +0.000 C 
ATOM     23  O   UNL     1       2.407   4.749  21.218  0.00  0.00    +0.000 OA
BRANCH  22  24
ATOM     24  O   UNL     1       1.022   4.218  19.492  0.00  0.00    +0.000 OA
ATOM     25  C   UNL     1       0.637   2.858  19.730  0.00  0.00    +0.000 C 
ENDBRANCH  22  24
ENDBRANCH   8  22
TORSDOF 5
ENDMDL
MODEL 4
REMARK VINA RESULT:      -6.6      3.072      6.222
REMARK  Name = 
REMARK  8 active torsions:
REMARK  status: ('A' for Active; 'I' for Inactive)
REMARK    1  A    between atoms: C_1  and  O_2
REMARK    2  A    between atoms: O_2  and  C_3
REMARK    3  A    between atoms: C_3  and  C_5
REMARK    4  A    between atoms: C_8  and  N_9
REMARK    5  A    between atoms: C_16  and  C_17
REMARK    6  A    between atoms: C_17  and  O_19
REMARK    7  A    between atoms: O_19  and  C_20
REMARK    8  A    between atoms: N_21  and  C_22
REMARK                            x       y       z     vdW  Elec       q    Type
REMARK                         _______ _______ _______ _____ _____    ______ ____
ROOT
ATOM      1  N   UNL     1       3.939   6.217  19.106  0.00  0.00    +0.000 N 
ATOM      2  C   UNL     1       4.730   6.402  17.857  0.00  0.00    +0.000 C 
ATOM      3  C   UNL     1       4.500   5.114  17.013  0.00  0.00    +0.000 C 
ATOM      4  C   UNL     1       5.694   4.171  17.303  0.00  0.00    +0.000 C 
ATOM      5  N   UNL     1       5.587   3.502  18.577  0.00  0.00    +0.000 N 
ATOM      6  C   UNL     1       4.458   3.625  19.360  0.00  0.00    +0.000 C 
ATOM      7  O   UNL     1       4.272   2.734  20.195  0.00  0.00    +0.000 OA
ATOM      8  C   UNL     1       3.380   4.767  18.968  0.00  0.00    +0.000 C 
ATOM      9  N   UNL     1       3.157   4.617  17.483  0.00  0.00    +0.000 NA
ATOM     10  C   UNL     1       2.766   3.327  16.963  0.00  0.00    +0.000 C 
ATOM     11  H   UNL     1       6.112   2.656  18.757  0.00  0.00    +0.000 HD
ENDROOT
BRANCH   1  15
ATOM     12  C   UNL     1       0.875   9.216  19.101  0.00  0.00    +0.000 A 
ATOM     13  C   UNL     1       1.162   8.534  20.282  0.00  0.00    +0.000 A 
ATOM     14  C   UNL     1       2.126   7.518  20.292  0.00  0.00    +0.000 A 
ATOM     15  C   UNL     1       2.814   7.133  19.121  0.00  0.00    +0.000 A 
ATOM     16  C   UNL     1       2.475   7.792  17.932  0.00  0.00    +0.000 A 
ATOM     17  C   UNL     1       1.533   8.836  17.923  0.00  0.00    +0.000 A 
BRANCH  12  18
ATOM     18  C   UNL     1      -0.100  10.346  19.176  0.00  0.00    +0.000 C 
ATOM     19  O   UNL     1      -1.136  10.389  18.549  0.00  0.00    +0.000 OA
BRANCH  18  21
ATOM     20  C   UNL     1       1.262  12.230  19.490  0.00  0.00    +0.000 C 
ATOM     21  O   UNL     1       0.348  11.286  20.052  0.00  0.00    +0.000 OA
ENDBRANCH  18  21
ENDBRANCH  12  18
ENDBRANCH   1  15
BRANCH   8  22
ATOM     22  C   UNL     1       2.231   4.567  20.014  0.00  0.00    +0.000 C 
ATOM     23  O   UNL     1       2.403   4.795  21.219  0.00  0.00    +0.000 OA
BRANCH  22  24
ATOM     24  O   UNL     1       1.015   4.240  19.503  0.00  0.00    +0.000 OA
ATOM     25  C   UNL     1       0.635   2.879  19.744  0.00  0.00    +0.000 C 
ENDBRANCH  22  24
ENDBRANCH   8  22
TORSDOF 5
ENDMDL
MODEL 5
REMARK VINA RESULT:      -6.6      2.364      3.531
REMARK  Name = 
REMARK  8 active torsions:
REMARK  status: ('A' for Active; 'I' for Inactive)
REMARK    1  A    between atoms: C_1  and  O_2
REMARK    2  A    between atoms: O_2  and  C_3
REMARK    3  A    between atoms: C_3  and  C_5
REMARK    4  A    between atoms: C_8  and  N_9
REMARK    5  A    between atoms: C_16  and  C_17
REMARK    6  A    between atoms: C_17  and  O_19
REMARK    7  A    between atoms: O_19  and  C_20
REMARK    8  A    between atoms: N_21  and  C_22
REMARK                            x       y       z     vdW  Elec       q    Type
REMARK                         _______ _______ _______ _____ _____    ______ ____
ROOT
ATOM      1  N   UNL     1       2.403   5.027  19.448  0.00  0.00    +0.000 N 
ATOM      2  C   UNL     1       2.411   5.043  20.938  0.00  0.00    +0.000 C 
ATOM      3  C   UNL     1       2.622   3.564  21.378  0.00  0.00    +0.000 C 
ATOM      4  C   UNL     1       1.217   2.979  21.665  0.00  0.00    +0.000 C 
ATOM      5  N   UNL     1       0.489   2.646  20.464  0.00  0.00    +0.000 N 
ATOM      6  C   UNL     1       1.077   2.738  19.219  0.00  0.00    +0.000 C 
ATOM      7  O   UNL     1       0.559   2.069  18.320  0.00  0.00    +0.000 OA
ATOM      8  C   UNL     1       2.495   3.509  19.102  0.00  0.00    +0.000 C 
ATOM      9  N   UNL     1       3.351   2.948  20.211  0.00  0.00    +0.000 NA
ATOM     10  C   UNL     1       3.537   1.517  20.292  0.00  0.00    +0.000 C 
ATOM     11  H   UNL     1      -0.283   1.993  20.498  0.00  0.00    +0.000 HD
ENDROOT
BRANCH   1  15
ATOM     12  C   UNL     1       5.882   6.736  17.615  0.00  0.00    +0.000 A 
ATOM     13  C   UNL     1       6.033   5.890  18.713  0.00  0.00    +0.000 A 
ATOM     14  C   UNL     1       4.907   5.361  19.354  0.00  0.00    +0.000 A 
ATOM     15  C   UNL     1       3.595   5.678  18.939  0.00  0.00    +0.000 A 
ATOM     16  C   UNL     1       3.461   6.572  17.868  0.00  0.00    +0.000 A 
ATOM     17  C   UNL     1       4.589   7.079  17.198  0.00  0.00    +0.000 A 
BRANCH  12  18
ATOM     18  C   UNL     1       7.123   7.197  16.922  0.00  0.00    +0.000 C 
ATOM     19  O   UNL     1       7.807   6.490  16.216  0.00  0.00    +0.000 OA
BRANCH  18  21
ATOM     20  C   UNL     1       8.360   8.751  18.171  0.00  0.00    +0.000 C 
ATOM     21  O   UNL     1       7.343   8.512  17.196  0.00  0.00    +0.000 OA
ENDBRANCH  18  21
ENDBRANCH  12  18
ENDBRANCH   1  15
BRANCH   8  22
ATOM     22  C   UNL     1       2.875   3.358  17.590  0.00  0.00    +0.000 C 
ATOM     23  O   UNL     1       2.114   3.736  16.688  0.00  0.00    +0.000 OA
BRANCH  22  24
ATOM     24  O   UNL     1       4.128   2.895  17.337  0.00  0.00    +0.000 OA
ATOM     25  C   UNL     1       4.752   3.513  16.204  0.00  0.00    +0.000 C 
ENDBRANCH  22  24
ENDBRANCH   8  22
TORSDOF 5
ENDMDL
MODEL 6
REMARK VINA RESULT:      -6.5      2.608      6.379
REMARK  Name = 
REMARK  8 active torsions:
REMARK  status: ('A' for Active; 'I' for Inactive)
REMARK    1  A    between atoms: C_1  and  O_2
REMARK    2  A    between atoms: O_2  and  C_3
REMARK    3  A    between atoms: C_3  and  C_5
REMARK    4  A    between atoms: C_8  and  N_9
REMARK    5  A    between atoms: C_16  and  C_17
REMARK    6  A    between atoms: C_17  and  O_19
REMARK    7  A    between atoms: O_19  and  C_20
REMARK    8  A    between atoms: N_21  and  C_22
REMARK                            x       y       z     vdW  Elec       q    Type
REMARK                         _______ _______ _______ _____ _____    ______ ____
ROOT
ATOM      1  N   UNL     1       2.617   5.214  17.894  0.00  0.00    +0.000 N 
ATOM      2  C   UNL     1       1.583   4.169  18.137  0.00  0.00    +0.000 C 
ATOM      3  C   UNL     1       2.316   3.008  18.871  0.00  0.00    +0.000 C 
ATOM      4  C   UNL     1       2.711   1.974  17.787  0.00  0.00    +0.000 C 
ATOM      5  N   UNL     1       3.863   2.378  17.018  0.00  0.00    +0.000 N 
ATOM      6  C   UNL     1       4.579   3.513  17.338  0.00  0.00    +0.000 C 
ATOM      7  O   UNL     1       5.740   3.563  16.919  0.00  0.00    +0.000 OA
ATOM      8  C   UNL     1       3.933   4.546  18.403  0.00  0.00    +0.000 C 
ATOM      9  N   UNL     1       3.469   3.694  19.559  0.00  0.00    +0.000 NA
ATOM     10  C   UNL     1       4.415   2.808  20.196  0.00  0.00    +0.000 C 
ATOM     11  H   UNL     1       4.403   1.691  16.506  0.00  0.00    +0.000 HD
ENDROOT
BRANCH   1  15
ATOM     12  C   UNL     1       1.463   8.530  20.355  0.00  0.00    +0.000 A 
ATOM     13  C   UNL     1       1.837   8.758  19.031  0.00  0.00    +0.000 A 
ATOM     14  C   UNL     1       2.262   7.694  18.227  0.00  0.00    +0.000 A 
ATOM     15  C   UNL     1       2.354   6.375  18.723  0.00  0.00    +0.000 A 
ATOM     16  C   UNL     1       2.026   6.173  20.069  0.00  0.00    +0.000 A 
ATOM     17  C   UNL     1       1.564   7.231  20.872  0.00  0.00    +0.000 A 
BRANCH  12  18
ATOM     18  C   UNL     1       0.936   9.691  21.134  0.00  0.00    +0.000 C 
ATOM     19  O   UNL     1       0.382  10.646  20.635  0.00  0.00    +0.000 OA
BRANCH  18  21
ATOM     20  C   UNL     1      -0.014   9.548  23.274  0.00  0.00    +0.000 C 
ATOM     21  O   UNL     1       1.161   9.497  22.462  0.00  0.00    +0.000 OA
ENDBRANCH  18  21
ENDBRANCH  12  18
ENDBRANCH   1  15
BRANCH   8  22
ATOM     22  C   UNL     1       5.031   5.651  18.562  0.00  0.00    +0.000 C 
ATOM     23  O   UNL     1       5.746   5.715  19.570  0.00  0.00    +0.000 OA
BRANCH  22  24
ATOM     24  O   UNL     1       5.223   6.455  17.482  0.00  0.00    +0.000 OA
ATOM     25  C   UNL     1       6.568   6.931  17.351  0.00  0.00    +0.000 C 
ENDBRANCH  22  24
ENDBRANCH   8  22
TORSDOF 5
ENDMDL
MODEL 7
REMARK VINA RESULT:      -6.4      2.943      5.982
REMARK  Name = 
REMARK  8 active torsions:
REMARK  status: ('A' for Active; 'I' for Inactive)
REMARK    1  A    between atoms: C_1  and  O_2
REMARK    2  A    between atoms: O_2  and  C_3
REMARK    3  A    between atoms: C_3  and  C_5
REMARK    4  A    between atoms: C_8  and  N_9
REMARK    5  A    between atoms: C_16  and  C_17
REMARK    6  A    between atoms: C_17  and  O_19
REMARK    7  A    between atoms: O_19  and  C_20
REMARK    8  A    between atoms: N_21  and  C_22
REMARK                            x       y       z     vdW  Elec       q    Type
REMARK                         _______ _______ _______ _____ _____    ______ ____
ROOT
ATOM      1  N   UNL     1       3.693   5.832  19.535  0.00  0.00    +0.000 N 
ATOM      2  C   UNL     1       5.061   6.303  19.180  0.00  0.00    +0.000 C 
ATOM      3  C   UNL     1       5.463   5.516  17.898  0.00  0.00    +0.000 C 
ATOM      4  C   UNL     1       6.301   4.300  18.365  0.00  0.00    +0.000 C 
ATOM      5  N   UNL     1       5.494   3.237  18.912  0.00  0.00    +0.000 N 
ATOM      6  C   UNL     1       4.116   3.293  18.883  0.00  0.00    +0.000 C 
ATOM      7  O   UNL     1       3.523   2.214  18.981  0.00  0.00    +0.000 OA
ATOM      8  C   UNL     1       3.419   4.701  18.496  0.00  0.00    +0.000 C 
ATOM      9  N   UNL     1       4.139   5.180  17.259  0.00  0.00    +0.000 NA
ATOM     10  C   UNL     1       4.218   4.302  16.114  0.00  0.00    +0.000 C 
ATOM     11  H   UNL     1       5.858   2.294  18.968  0.00  0.00    +0.000 HD
ENDROOT
BRANCH   1  15
ATOM     12  C   UNL     1       1.148   9.214  18.855  0.00  0.00    +0.000 A 
ATOM     13  C   UNL     1       1.131   8.585  20.099  0.00  0.00    +0.000 A 
ATOM     14  C   UNL     1       1.919   7.450  20.324  0.00  0.00    +0.000 A 
ATOM     15  C   UNL     1       2.729   6.892  19.311  0.00  0.00    +0.000 A 
ATOM     16  C   UNL     1       2.693   7.505  18.052  0.00  0.00    +0.000 A 
ATOM     17  C   UNL     1       1.931   8.666  17.830  0.00  0.00    +0.000 A 
BRANCH  12  18
ATOM     18  C   UNL     1       0.352  10.470  18.705  0.00  0.00    +0.000 C 
ATOM     19  O   UNL     1       0.840  11.568  18.553  0.00  0.00    +0.000 OA
BRANCH  18  21
ATOM     20  C   UNL     1      -1.615  10.126  17.473  0.00  0.00    +0.000 C 
ATOM     21  O   UNL     1      -0.978  10.182  18.751  0.00  0.00    +0.000 OA
ENDBRANCH  18  21
ENDBRANCH  12  18
ENDBRANCH   1  15
BRANCH   8  22
ATOM     22  C   UNL     1       1.888   4.371  18.501  0.00  0.00    +0.000 C 
ATOM     23  O   UNL     1       1.256   4.204  17.449  0.00  0.00    +0.000 OA
BRANCH  22  24
ATOM     24  O   UNL     1       1.329   4.170  19.724  0.00  0.00    +0.000 OA
ATOM     25  C   UNL     1       0.530   2.983  19.804  0.00  0.00    +0.000 C 
ENDBRANCH  22  24
ENDBRANCH   8  22
TORSDOF 5
ENDMDL
MODEL 8
REMARK VINA RESULT:      -6.4      0.912      1.096
REMARK  Name = 
REMARK  8 active torsions:
REMARK  status: ('A' for Active; 'I' for Inactive)
REMARK    1  A    between atoms: C_1  and  O_2
REMARK    2  A    between atoms: O_2  and  C_3
REMARK    3  A    between atoms: C_3  and  C_5
REMARK    4  A    between atoms: C_8  and  N_9
REMARK    5  A    between atoms: C_16  and  C_17
REMARK    6  A    between atoms: C_17  and  O_19
REMARK    7  A    between atoms: O_19  and  C_20
REMARK    8  A    between atoms: N_21  and  C_22
REMARK                            x       y       z     vdW  Elec       q    Type
REMARK                         _______ _______ _______ _____ _____    ______ ____
ROOT
ATOM      1  N   UNL     1       4.527   3.623  19.089  0.00  0.00    +0.000 N 
ATOM      2  C   UNL     1       4.208   2.170  19.003  0.00  0.00    +0.000 C 
ATOM      3  C   UNL     1       2.656   2.080  18.907  0.00  0.00    +0.000 C 
ATOM      4  C   UNL     1       2.134   1.830  20.343  0.00  0.00    +0.000 C 
ATOM      5  N   UNL     1       2.136   3.020  21.159  0.00  0.00    +0.000 N 
ATOM      6  C   UNL     1       2.459   4.253  20.630  0.00  0.00    +0.000 C 
ATOM      7  O   UNL     1       2.050   5.238  21.253  0.00  0.00    +0.000 OA
ATOM      8  C   UNL     1       3.122   4.299  19.155  0.00  0.00    +0.000 C 
ATOM      9  N   UNL     1       2.262   3.402  18.299  0.00  0.00    +0.000 NA
ATOM     10  C   UNL     1       0.839   3.649  18.241  0.00  0.00    +0.000 C 
ATOM     11  H   UNL     1       1.555   3.075  21.986  0.00  0.00    +0.000 HD
ENDROOT
BRANCH   1  15
ATOM     12  C   UNL     1       6.486   4.537  15.386  0.00  0.00    +0.000 A 
ATOM     13  C   UNL     1       7.156   4.760  16.587  0.00  0.00    +0.000 A 
ATOM     14  C   UNL     1       6.515   4.513  17.807  0.00  0.00    +0.000 A 
ATOM     15  C   UNL     1       5.180   4.061  17.869  0.00  0.00    +0.000 A 
ATOM     16  C   UNL     1       4.503   3.893  16.654  0.00  0.00    +0.000 A 
ATOM     17  C   UNL     1       5.152   4.106  15.425  0.00  0.00    +0.000 A 
BRANCH  12  18
ATOM     18  C   UNL     1       7.252   4.737  14.119  0.00  0.00    +0.000 C 
ATOM     19  O   UNL     1       8.092   5.597  13.964  0.00  0.00    +0.000 OA
BRANCH  18  21
ATOM     20  C   UNL     1       7.337   4.070  11.871  0.00  0.00    +0.000 C 
ATOM     21  O   UNL     1       6.873   3.810  13.198  0.00  0.00    +0.000 OA
ENDBRANCH  18  21
ENDBRANCH  12  18
ENDBRANCH   1  15
BRANCH   8  22
ATOM     22  C   UNL     1       3.284   5.830  18.869  0.00  0.00    +0.000 C 
ATOM     23  O   UNL     1       4.181   6.498  19.400  0.00  0.00    +0.000 OA
BRANCH  22  24
ATOM     24  O   UNL     1       2.457   6.346  17.922  0.00  0.00    +0.000 OA
ATOM     25  C   UNL     1       2.301   7.769  18.008  0.00  0.00    +0.000 C 
ENDBRANCH  22  24
ENDBRANCH   8  22
TORSDOF 5
ENDMDL
MODEL 9
REMARK VINA RESULT:      -6.3      2.619      6.228
REMARK  Name = 
REMARK  8 active torsions:
REMARK  status: ('A' for Active; 'I' for Inactive)
REMARK    1  A    between atoms: C_1  and  O_2
REMARK    2  A    between atoms: O_2  and  C_3
REMARK    3  A    between atoms: C_3  and  C_5
REMARK    4  A    between atoms: C_8  and  N_9
REMARK    5  A    between atoms: C_16  and  C_17
REMARK    6  A    between atoms: C_17  and  O_19
REMARK    7  A    between atoms: O_19  and  C_20
REMARK    8  A    between atoms: N_21  and  C_22
REMARK                            x       y       z     vdW  Elec       q    Type
REMARK                         _______ _______ _______ _____ _____    ______ ____
ROOT
ATOM      1  N   UNL     1       2.827   5.510  17.850  0.00  0.00    +0.000 N 
ATOM      2  C   UNL     1       2.456   4.510  18.890  0.00  0.00    +0.000 C 
ATOM      3  C   UNL     1       3.800   3.960  19.451  0.00  0.00    +0.000 C 
ATOM      4  C   UNL     1       4.099   2.647  18.687  0.00  0.00    +0.000 C 
ATOM      5  N   UNL     1       4.607   2.873  17.355  0.00  0.00    +0.000 N 
ATOM      6  C   UNL     1       4.898   4.144  16.904  0.00  0.00    +0.000 C 
ATOM      7  O   UNL     1       5.685   4.219  15.956  0.00  0.00    +0.000 OA
ATOM      8  C   UNL     1       4.382   5.401  17.782  0.00  0.00    +0.000 C 
ATOM      9  N   UNL     1       4.774   5.085  19.205  0.00  0.00    +0.000 NA
ATOM     10  C   UNL     1       6.154   4.774  19.496  0.00  0.00    +0.000 C 
ATOM     11  H   UNL     1       5.119   2.146  16.872  0.00  0.00    +0.000 HD
ENDROOT
BRANCH   1  15
ATOM     12  C   UNL     1       1.471   9.319  19.276  0.00  0.00    +0.000 A 
ATOM     13  C   UNL     1       1.720   9.148  17.915  0.00  0.00    +0.000 A 
ATOM     14  C   UNL     1       2.209   7.926  17.438  0.00  0.00    +0.000 A 
ATOM     15  C   UNL     1       2.489   6.846  18.303  0.00  0.00    +0.000 A 
ATOM     16  C   UNL     1       2.285   7.054  19.674  0.00  0.00    +0.000 A 
ATOM     17  C   UNL     1       1.761   8.267  20.155  0.00  0.00    +0.000 A 
BRANCH  12  18
ATOM     18  C   UNL     1       0.870  10.616  19.710  0.00  0.00    +0.000 C 
ATOM     19  O   UNL     1       1.073  11.131  20.788  0.00  0.00    +0.000 OA
BRANCH  18  21
ATOM     20  C   UNL     1      -1.316  11.008  18.953  0.00  0.00    +0.000 C 
ATOM     21  O   UNL     1       0.088  11.120  18.715  0.00  0.00    +0.000 OA
ENDBRANCH  18  21
ENDBRANCH  12  18
ENDBRANCH   1  15
BRANCH   8  22
ATOM     22  C   UNL     1       4.943   6.645  17.014  0.00  0.00    +0.000 C 
ATOM     23  O   UNL     1       4.612   6.890  15.846  0.00  0.00    +0.000 OA
BRANCH  22  24
ATOM     24  O   UNL     1       5.718   7.492  17.743  0.00  0.00    +0.000 OA
ATOM     25  C   UNL     1       7.095   7.496  17.346  0.00  0.00    +0.000 C 
ENDBRANCH  22  24
ENDBRANCH   8  22
TORSDOF 5
ENDMDL
