MODEL 1
REMARK VINA RESULT:      -6.3      0.000      0.000
REMARK  Name = 
REMARK  3 active torsions:
REMARK  status: ('A' for Active; 'I' for Inactive)
REMARK    1  A    between atoms: C_1  and  C_2
REMARK    2  A    between atoms: N_6  and  C_7
REMARK    3  A    between atoms: N_13  and  C_14
REMARK                            x       y       z     vdW  Elec       q    Type
REMARK                         _______ _______ _______ _____ _____    ______ ____
ROOT
ATOM      1  C   UNL     1       3.232   7.487  17.772  0.00  0.00    +0.000 C 
ATOM      2  C   UNL     1       3.618   6.053  18.016  0.00  0.00    +0.000 A 
ATOM      3  C   UNL     1       4.439   5.361  17.208  0.00  0.00    +0.000 A 
ATOM      4  C   UNL     1       5.195   5.769  15.982  0.00  0.00    +0.000 A 
ATOM      5  O   UNL     1       5.185   6.857  15.428  0.00  0.00    +0.000 OA
ATOM      6  N   UNL     1       5.923   4.632  15.632  0.00  0.00    +0.000 N 
ATOM      7  C   UNL     1       6.739   4.461  14.461  0.00  0.00    +0.000 C 
ATOM      8  N   UNL     1       5.541   3.529  16.412  0.00  0.00    +0.000 N 
ATOM      9  C   UNL     1       4.755   3.969  17.453  0.00  0.00    +0.000 A 
ATOM     10  C   UNL     1       4.323   3.348  18.548  0.00  0.00    +0.000 A 
ATOM     11  C   UNL     1       3.425   4.076  19.485  0.00  0.00    +0.000 A 
ATOM     12  O   UNL     1       3.016   3.478  20.477  0.00  0.00    +0.000 OA
ATOM     13  N   UNL     1       3.098   5.399  19.156  0.00  0.00    +0.000 N 
ATOM     14  C   UNL     1       2.192   6.107  20.053  0.00  0.00    +0.000 C 
ATOM     15  H   UNL     1       6.230   2.809  16.611  0.00  0.00    +0.000 HD
ENDROOT
TORSDOF 0
ENDMDL
MODEL 2
REMARK VINA RESULT:      -6.1      1.469      1.574
REMARK  Name = 
REMARK  3 active torsions:
REMARK  status: ('A' for Active; 'I' for Inactive)
REMARK    1  A    between atoms: C_1  and  C_2
REMARK    2  A    between atoms: N_6  and  C_7
REMARK    3  A    between atoms: N_13  and  C_14
REMARK                            x       y       z     vdW  Elec       q    Type
REMARK                         _______ _______ _______ _____ _____    ______ ____
ROOT
ATOM      1  C   UNL     1       2.807   6.440  19.314  0.00  0.00    +0.000 C 
ATOM      2  C   UNL     1       3.050   5.038  18.825  0.00  0.00    +0.000 A 
ATOM      3  C   UNL     1       4.021   4.718  17.952  0.00  0.00    +0.000 A 
ATOM      4  C   UNL     1       5.088   5.550  17.312  0.00  0.00    +0.000 A 
ATOM      5  O   UNL     1       5.272   6.750  17.435  0.00  0.00    +0.000 OA
ATOM      6  N   UNL     1       5.830   4.639  16.559  0.00  0.00    +0.000 N 
ATOM      7  C   UNL     1       6.913   4.942  15.666  0.00  0.00    +0.000 C 
ATOM      8  N   UNL     1       5.207   3.380  16.537  0.00  0.00    +0.000 N 
ATOM      9  C   UNL     1       4.199   3.363  17.472  0.00  0.00    +0.000 A 
ATOM     10  C   UNL     1       3.468   2.361  17.955  0.00  0.00    +0.000 A 
ATOM     11  C   UNL     1       2.392   2.659  18.938  0.00  0.00    +0.000 A 
ATOM     12  O   UNL     1       1.712   1.724  19.353  0.00  0.00    +0.000 OA
ATOM     13  N   UNL     1       2.222   4.001  19.310  0.00  0.00    +0.000 N 
ATOM     14  C   UNL     1       1.147   4.304  20.248  0.00  0.00    +0.000 C 
ATOM     15  H   UNL     1       5.788   2.550  16.451  0.00  0.00    +0.000 HD
ENDROOT
TORSDOF 0
ENDMDL
MODEL 3
REMARK VINA RESULT:      -5.8      1.926      4.482
REMARK  Name = 
REMARK  3 active torsions:
REMARK  status: ('A' for Active; 'I' for Inactive)
REMARK    1  A    between atoms: C_1  and  C_2
REMARK    2  A    between atoms: N_6  and  C_7
REMARK    3  A    between atoms: N_13  and  C_14
REMARK                            x       y       z     vdW  Elec       q    Type
REMARK                         _______ _______ _______ _____ _____    ______ ____
ROOT
ATOM      1  C   UNL     1       3.108   7.201  18.338  0.00  0.00    +0.000 C 
ATOM      2  C   UNL     1       3.509   5.772  18.094  0.00  0.00    +0.000 A 
ATOM      3  C   UNL     1       3.088   4.747  18.855  0.00  0.00    +0.000 A 
ATOM      4  C   UNL     1       2.144   4.699  20.016  0.00  0.00    +0.000 A 
ATOM      5  O   UNL     1       1.570   5.636  20.548  0.00  0.00    +0.000 OA
ATOM      6  N   UNL     1       2.059   3.344  20.335  0.00  0.00    +0.000 N 
ATOM      7  C   UNL     1       1.357   2.766  21.448  0.00  0.00    +0.000 C 
ATOM      8  N   UNL     1       2.995   2.595  19.605  0.00  0.00    +0.000 N 
ATOM      9  C   UNL     1       3.528   3.388  18.615  0.00  0.00    +0.000 A 
ATOM     10  C   UNL     1       4.289   3.087  17.566  0.00  0.00    +0.000 A 
ATOM     11  C   UNL     1       4.768   4.183  16.681  0.00  0.00    +0.000 A 
ATOM     12  O   UNL     1       5.490   3.888  15.732  0.00  0.00    +0.000 OA
ATOM     13  N   UNL     1       4.366   5.487  17.007  0.00  0.00    +0.000 N 
ATOM     14  C   UNL     1       4.858   6.570  16.163  0.00  0.00    +0.000 C 
ATOM     15  H   UNL     1       2.774   1.631  19.371  0.00  0.00    +0.000 HD
ENDROOT
TORSDOF 0
ENDMDL
MODEL 4
REMARK VINA RESULT:      -5.8      2.372      2.959
REMARK  Name = 
REMARK  3 active torsions:
REMARK  status: ('A' for Active; 'I' for Inactive)
REMARK    1  A    between atoms: C_1  and  C_2
REMARK    2  A    between atoms: N_6  and  C_7
REMARK    3  A    between atoms: N_13  and  C_14
REMARK                            x       y       z     vdW  Elec       q    Type
REMARK                         _______ _______ _______ _____ _____    ______ ____
ROOT
ATOM      1  C   UNL     1       3.557   3.560  16.742  0.00  0.00    +0.000 C 
ATOM      2  C   UNL     1       4.892   4.191  17.036  0.00  0.00    +0.000 A 
ATOM      3  C   UNL     1       5.786   4.505  16.083  0.00  0.00    +0.000 A 
ATOM      4  C   UNL     1       5.721   4.397  14.591  0.00  0.00    +0.000 A 
ATOM      5  O   UNL     1       4.809   3.947  13.916  0.00  0.00    +0.000 OA
ATOM      6  N   UNL     1       6.928   4.944  14.153  0.00  0.00    +0.000 N 
ATOM      7  C   UNL     1       7.410   4.988  12.801  0.00  0.00    +0.000 C 
ATOM      8  N   UNL     1       7.787   5.198  15.234  0.00  0.00    +0.000 N 
ATOM      9  C   UNL     1       7.078   5.073  16.407  0.00  0.00    +0.000 A 
ATOM     10  C   UNL     1       7.391   5.401  17.659  0.00  0.00    +0.000 A 
ATOM     11  C   UNL     1       6.427   5.091  18.749  0.00  0.00    +0.000 A 
ATOM     12  O   UNL     1       6.744   5.379  19.901  0.00  0.00    +0.000 OA
ATOM     13  N   UNL     1       5.223   4.475  18.380  0.00  0.00    +0.000 N 
ATOM     14  C   UNL     1       4.288   4.139  19.448  0.00  0.00    +0.000 C 
ATOM     15  H   UNL     1       8.450   5.965  15.161  0.00  0.00    +0.000 HD
ENDROOT
TORSDOF 0
ENDMDL
MODEL 5
REMARK VINA RESULT:      -5.8      2.428      3.919
REMARK  Name = 
REMARK  3 active torsions:
REMARK  status: ('A' for Active; 'I' for Inactive)
REMARK    1  A    between atoms: C_1  and  C_2
REMARK    2  A    between atoms: N_6  and  C_7
REMARK    3  A    between atoms: N_13  and  C_14
REMARK                            x       y       z     vdW  Elec       q    Type
REMARK                         _______ _______ _______ _____ _____    ______ ____
ROOT
ATOM      1  C   UNL     1       4.922   4.014  17.976  0.00  0.00    +0.000 C 
ATOM      2  C   UNL     1       3.890   4.453  18.979  0.00  0.00    +0.000 A 
ATOM      3  C   UNL     1       3.286   5.653  18.940  0.00  0.00    +0.000 A 
ATOM      4  C   UNL     1       3.391   6.782  17.963  0.00  0.00    +0.000 A 
ATOM      5  O   UNL     1       4.109   6.851  16.978  0.00  0.00    +0.000 OA
ATOM      6  N   UNL     1       2.472   7.724  18.424  0.00  0.00    +0.000 N 
ATOM      7  C   UNL     1       2.254   9.042  17.897  0.00  0.00    +0.000 C 
ATOM      8  N   UNL     1       1.960   7.356  19.679  0.00  0.00    +0.000 N 
ATOM      9  C   UNL     1       2.327   6.057  19.947  0.00  0.00    +0.000 A 
ATOM     10  C   UNL     1       1.929   5.212  20.896  0.00  0.00    +0.000 A 
ATOM     11  C   UNL     1       2.553   3.864  20.972  0.00  0.00    +0.000 A 
ATOM     12  O   UNL     1       2.191   3.108  21.870  0.00  0.00    +0.000 OA
ATOM     13  N   UNL     1       3.528   3.558  20.011  0.00  0.00    +0.000 N 
ATOM     14  C   UNL     1       4.168   2.250  20.100  0.00  0.00    +0.000 C 
ATOM     15  H   UNL     1       1.016   7.642  19.925  0.00  0.00    +0.000 HD
ENDROOT
TORSDOF 0
ENDMDL
MODEL 6
REMARK VINA RESULT:      -5.7      2.001      2.394
REMARK  Name = 
REMARK  3 active torsions:
REMARK  status: ('A' for Active; 'I' for Inactive)
REMARK    1  A    between atoms: C_1  and  C_2
REMARK    2  A    between atoms: N_6  and  C_7
REMARK    3  A    between atoms: N_13  and  C_14
REMARK                            x       y       z     vdW  Elec       q    Type
REMARK                         _______ _______ _______ _____ _____    ______ ____
ROOT
ATOM      1  C   UNL     1       1.513   4.435  17.570  0.00  0.00    +0.000 C 
ATOM      2  C   UNL     1       2.499   3.916  18.581  0.00  0.00    +0.000 A 
ATOM      3  C   UNL     1       3.832   3.994  18.420  0.00  0.00    +0.000 A 
ATOM      4  C   UNL     1       4.662   4.609  17.337  0.00  0.00    +0.000 A 
ATOM      5  O   UNL     1       4.272   5.156  16.318  0.00  0.00    +0.000 OA
ATOM      6  N   UNL     1       5.977   4.429  17.767  0.00  0.00    +0.000 N 
ATOM      7  C   UNL     1       7.172   4.751  17.037  0.00  0.00    +0.000 C 
ATOM      8  N   UNL     1       6.026   3.607  18.905  0.00  0.00    +0.000 N 
ATOM      9  C   UNL     1       4.751   3.446  19.396  0.00  0.00    +0.000 A 
ATOM     10  C   UNL     1       4.312   2.932  20.542  0.00  0.00    +0.000 A 
ATOM     11  C   UNL     1       2.846   2.838  20.777  0.00  0.00    +0.000 A 
ATOM     12  O   UNL     1       2.459   2.338  21.830  0.00  0.00    +0.000 OA
ATOM     13  N   UNL     1       2.005   3.321  19.764  0.00  0.00    +0.000 N 
ATOM     14  C   UNL     1       0.567   3.202  19.974  0.00  0.00    +0.000 C 
ATOM     15  H   UNL     1       6.778   3.746  19.575  0.00  0.00    +0.000 HD
ENDROOT
TORSDOF 0
ENDMDL
MODEL 7
REMARK VINA RESULT:      -5.6      2.038      4.961
REMARK  Name = 
REMARK  3 active torsions:
REMARK  status: ('A' for Active; 'I' for Inactive)
REMARK    1  A    between atoms: C_1  and  C_2
REMARK    2  A    between atoms: N_6  and  C_7
REMARK    3  A    between atoms: N_13  and  C_14
REMARK                            x       y       z     vdW  Elec       q    Type
REMARK                         _______ _______ _______ _____ _____    ______ ____
ROOT
ATOM      1  C   UNL     1       4.969   3.908  17.308  0.00  0.00    +0.000 C 
ATOM      2  C   UNL     1       4.042   4.877  17.990  0.00  0.00    +0.000 A 
ATOM      3  C   UNL     1       3.254   4.541  19.026  0.00  0.00    +0.000 A 
ATOM      4  C   UNL     1       3.112   3.258  19.785  0.00  0.00    +0.000 A 
ATOM      5  O   UNL     1       3.687   2.202  19.577  0.00  0.00    +0.000 OA
ATOM      6  N   UNL     1       2.189   3.553  20.789  0.00  0.00    +0.000 N 
ATOM      7  C   UNL     1       1.625   2.630  21.734  0.00  0.00    +0.000 C 
ATOM      8  N   UNL     1       1.626   4.824  20.598  0.00  0.00    +0.000 N 
ATOM      9  C   UNL     1       2.344   5.491  19.631  0.00  0.00    +0.000 A 
ATOM     10  C   UNL     1       2.326   6.765  19.248  0.00  0.00    +0.000 A 
ATOM     11  C   UNL     1       3.192   7.193  18.117  0.00  0.00    +0.000 A 
ATOM     12  O   UNL     1       3.142   8.368  17.762  0.00  0.00    +0.000 OA
ATOM     13  N   UNL     1       3.999   6.211  17.525  0.00  0.00    +0.000 N 
ATOM     14  C   UNL     1       4.826   6.616  16.395  0.00  0.00    +0.000 C 
ATOM     15  H   UNL     1       1.325   5.353  21.412  0.00  0.00    +0.000 HD
ENDROOT
TORSDOF 0
ENDMDL
MODEL 8
REMARK VINA RESULT:      -5.6      1.481      1.530
REMARK  Name = 
REMARK  3 active torsions:
REMARK  status: ('A' for Active; 'I' for Inactive)
REMARK    1  A    between atoms: C_1  and  C_2
REMARK    2  A    between atoms: N_6  and  C_7
REMARK    3  A    between atoms: N_13  and  C_14
REMARK                            x       y       z     vdW  Elec       q    Type
REMARK                         _______ _______ _______ _____ _____    ______ ____
ROOT
ATOM      1  C   UNL     1       2.474   6.885  18.895  0.00  0.00    +0.000 C 
ATOM      2  C   UNL     1       3.152   5.566  19.144  0.00  0.00    +0.000 A 
ATOM      3  C   UNL     1       4.304   5.204  18.552  0.00  0.00    +0.000 A 
ATOM      4  C   UNL     1       5.208   5.942  17.613  0.00  0.00    +0.000 A 
ATOM      5  O   UNL     1       5.048   7.060  17.150  0.00  0.00    +0.000 OA
ATOM      6  N   UNL     1       6.276   5.069  17.406  0.00  0.00    +0.000 N 
ATOM      7  C   UNL     1       7.375   5.255  16.500  0.00  0.00    +0.000 C 
ATOM      8  N   UNL     1       6.017   3.812  17.977  0.00  0.00    +0.000 N 
ATOM      9  C   UNL     1       4.907   3.908  18.785  0.00  0.00    +0.000 A 
ATOM     10  C   UNL     1       4.394   3.061  19.674  0.00  0.00    +0.000 A 
ATOM     11  C   UNL     1       3.130   3.421  20.370  0.00  0.00    +0.000 A 
ATOM     12  O   UNL     1       2.659   2.615  21.169  0.00  0.00    +0.000 OA
ATOM     13  N   UNL     1       2.556   4.660  20.049  0.00  0.00    +0.000 N 
ATOM     14  C   UNL     1       1.298   5.004  20.703  0.00  0.00    +0.000 C 
ATOM     15  H   UNL     1       6.800   3.258  18.313  0.00  0.00    +0.000 HD
ENDROOT
TORSDOF 0
ENDMDL
MODEL 9
REMARK VINA RESULT:      -5.5      2.259      4.485
REMARK  Name = 
REMARK  3 active torsions:
REMARK  status: ('A' for Active; 'I' for Inactive)
REMARK    1  A    between atoms: C_1  and  C_2
REMARK    2  A    between atoms: N_6  and  C_7
REMARK    3  A    between atoms: N_13  and  C_14
REMARK                            x       y       z     vdW  Elec       q    Type
REMARK                         _______ _______ _______ _____ _____    ______ ____
ROOT
ATOM      1  C   UNL     1       4.844   4.023  15.303  0.00  0.00    +0.000 C 
ATOM      2  C   UNL     1       5.118   4.461  16.717  0.00  0.00    +0.000 A 
ATOM      3  C   UNL     1       4.225   4.340  17.714  0.00  0.00    +0.000 A 
ATOM      4  C   UNL     1       2.853   3.742  17.746  0.00  0.00    +0.000 A 
ATOM      5  O   UNL     1       2.232   3.253  16.816  0.00  0.00    +0.000 OA
ATOM      6  N   UNL     1       2.459   3.854  19.079  0.00  0.00    +0.000 N 
ATOM      7  C   UNL     1       1.174   3.519  19.627  0.00  0.00    +0.000 C 
ATOM      8  N   UNL     1       3.377   4.624  19.812  0.00  0.00    +0.000 N 
ATOM      9  C   UNL     1       4.510   4.811  19.054  0.00  0.00    +0.000 A 
ATOM     10  C   UNL     1       5.709   5.292  19.373  0.00  0.00    +0.000 A 
ATOM     11  C   UNL     1       6.740   5.430  18.310  0.00  0.00    +0.000 A 
ATOM     12  O   UNL     1       7.832   5.899  18.619  0.00  0.00    +0.000 OA
ATOM     13  N   UNL     1       6.380   5.023  17.016  0.00  0.00    +0.000 N 
ATOM     14  C   UNL     1       7.375   5.186  15.962  0.00  0.00    +0.000 C 
ATOM     15  H   UNL     1       3.498   4.428  20.802  0.00  0.00    +0.000 HD
ENDROOT
TORSDOF 0
ENDMDL
