MODEL 1
REMARK VINA RESULT:      -8.2      0.000      0.000
REMARK  Name = 
REMARK  6 active torsions:
REMARK  status: ('A' for Active; 'I' for Inactive)
REMARK    1  A    between atoms: C_2  and  C_3
REMARK    2  A    between atoms: C_3  and  N_4
REMARK    3  A    between atoms: C_5  and  C_7
REMARK    4  A    between atoms: N_16  and  C_17
REMARK    5  A    between atoms: C_17  and  C_18
REMARK    6  A    between atoms: C_18  and  C_19
REMARK                            x       y       z     vdW  Elec       q    Type
REMARK                         _______ _______ _______ _____ _____    ______ ____
ROOT
ATOM      1  O   UNL     1       2.087   6.504  20.351  0.00  0.00    +0.000 OA
ATOM      2  C   UNL     1       2.529   6.239  19.238  0.00  0.00    +0.000 C 
ATOM      3  N   UNL     1       2.659   7.166  18.221  0.00  0.00    +0.000 N 
ATOM      4  H   UNL     1       2.707   6.799  17.272  0.00  0.00    +0.000 HD
ENDROOT
BRANCH   2   5
ATOM      5  C   UNL     1       2.915   4.814  18.830  0.00  0.00    +0.000 C 
BRANCH   5   6
ATOM      6  N   UNL     1       3.675   4.803  17.596  0.00  0.00    +0.000 N 
ATOM      7  C   UNL     1       5.052   4.843  17.594  0.00  0.00    +0.000 C 
ATOM      8  O   UNL     1       5.717   4.901  18.623  0.00  0.00    +0.000 OA
ATOM      9  H   UNL     1       3.153   4.732  16.733  0.00  0.00    +0.000 HD
BRANCH   7  10
ATOM     10  C   UNL     1       5.712   4.784  16.266  0.00  0.00    +0.000 A 
ATOM     11  C   UNL     1       6.942   5.419  16.096  0.00  0.00    +0.000 A 
ATOM     12  N   UNL     1       7.679   5.432  14.953  0.00  0.00    +0.000 NA
ATOM     13  C   UNL     1       7.088   4.764  13.945  0.00  0.00    +0.000 A 
ATOM     14  N   UNL     1       7.615   4.622  12.690  0.00  0.00    +0.000 N 
ATOM     15  C   UNL     1       6.757   3.893  11.905  0.00  0.00    +0.000 A 
ATOM     16  C   UNL     1       5.659   3.564  12.672  0.00  0.00    +0.000 A 
ATOM     17  C   UNL     1       5.863   4.106  13.970  0.00  0.00    +0.000 A 
ATOM     18  C   UNL     1       5.141   4.120  15.175  0.00  0.00    +0.000 A 
ATOM     19  H   UNL     1       8.505   5.009  12.408  0.00  0.00    +0.000 HD
ENDBRANCH   7  10
ENDBRANCH   5   6
ENDBRANCH   2   5
BRANCH   3  20
ATOM     20  C   UNL     1       2.296   8.558  18.429  0.00  0.00    +0.000 C 
BRANCH  20  21
ATOM     21  C   UNL     1       1.096   8.979  17.580  0.00  0.00    +0.000 C 
BRANCH  21  22
ATOM     22  C   UNL     1       0.176   9.919  18.296  0.00  0.00    +0.000 A 
ATOM     23  C   UNL     1       0.467  10.637  19.442  0.00  0.00    +0.000 A 
ATOM     24  N   UNL     1      -0.629  11.386  19.773  0.00  0.00    +0.000 N 
ATOM     25  C   UNL     1      -1.642  11.175  18.867  0.00  0.00    +0.000 A 
ATOM     26  C   UNL     1      -2.929  11.725  18.809  0.00  0.00    +0.000 A 
ATOM     27  C   UNL     1      -3.759  11.322  17.760  0.00  0.00    +0.000 A 
ATOM     28  C   UNL     1      -3.316  10.407  16.807  0.00  0.00    +0.000 A 
ATOM     29  C   UNL     1      -2.025   9.871  16.878  0.00  0.00    +0.000 A 
ATOM     30  C   UNL     1      -1.166  10.259  17.928  0.00  0.00    +0.000 A 
ATOM     31  H   UNL     1      -0.692  12.010  20.565  0.00  0.00    +0.000 HD
ENDBRANCH  21  22
ENDBRANCH  20  21
ENDBRANCH   3  20
TORSDOF 6
ENDMDL
MODEL 2
REMARK VINA RESULT:      -8.2      1.889      2.700
REMARK  Name = 
REMARK  6 active torsions:
REMARK  status: ('A' for Active; 'I' for Inactive)
REMARK    1  A    between atoms: C_2  and  C_3
REMARK    2  A    between atoms: C_3  and  N_4
REMARK    3  A    between atoms: C_5  and  C_7
REMARK    4  A    between atoms: N_16  and  C_17
REMARK    5  A    between atoms: C_17  and  C_18
REMARK    6  A    between atoms: C_18  and  C_19
REMARK                            x       y       z     vdW  Elec       q    Type
REMARK                         _______ _______ _______ _____ _____    ______ ____
ROOT
ATOM      1  O   UNL     1       1.549   4.439  18.910  0.00  0.00    +0.000 OA
ATOM      2  C   UNL     1       2.589   4.659  19.521  0.00  0.00    +0.000 C 
ATOM      3  N   UNL     1       2.811   5.793  20.279  0.00  0.00    +0.000 N 
ATOM      4  H   UNL     1       3.783   6.039  20.458  0.00  0.00    +0.000 HD
ENDROOT
BRANCH   2   5
ATOM      5  C   UNL     1       3.796   3.719  19.442  0.00  0.00    +0.000 C 
BRANCH   5   6
ATOM      6  N   UNL     1       4.428   3.777  18.138  0.00  0.00    +0.000 N 
ATOM      7  C   UNL     1       5.096   4.902  17.707  0.00  0.00    +0.000 C 
ATOM      8  O   UNL     1       5.189   5.920  18.385  0.00  0.00    +0.000 OA
ATOM      9  H   UNL     1       4.386   2.943  17.569  0.00  0.00    +0.000 HD
BRANCH   7  10
ATOM     10  C   UNL     1       5.735   4.819  16.371  0.00  0.00    +0.000 A 
ATOM     11  C   UNL     1       6.950   5.471  16.162  0.00  0.00    +0.000 A 
ATOM     12  N   UNL     1       7.668   5.465  15.007  0.00  0.00    +0.000 NA
ATOM     13  C   UNL     1       7.073   4.759  14.028  0.00  0.00    +0.000 A 
ATOM     14  N   UNL     1       7.581   4.592  12.768  0.00  0.00    +0.000 N 
ATOM     15  C   UNL     1       6.724   3.827  12.019  0.00  0.00    +0.000 A 
ATOM     16  C   UNL     1       5.645   3.499  12.813  0.00  0.00    +0.000 A 
ATOM     17  C   UNL     1       5.861   4.080  14.092  0.00  0.00    +0.000 A 
ATOM     18  C   UNL     1       5.158   4.114  15.308  0.00  0.00    +0.000 A 
ATOM     19  H   UNL     1       8.459   4.986  12.461  0.00  0.00    +0.000 HD
ENDBRANCH   7  10
ENDBRANCH   5   6
ENDBRANCH   2   5
BRANCH   3  20
ATOM     20  C   UNL     1       1.781   6.808  20.423  0.00  0.00    +0.000 C 
BRANCH  20  21
ATOM     21  C   UNL     1       2.016   8.009  19.506  0.00  0.00    +0.000 C 
BRANCH  21  22
ATOM     22  C   UNL     1       1.050   9.127  19.751  0.00  0.00    +0.000 A 
ATOM     23  C   UNL     1       0.534   9.987  18.799  0.00  0.00    +0.000 A 
ATOM     24  N   UNL     1      -0.319  10.858  19.421  0.00  0.00    +0.000 N 
ATOM     25  C   UNL     1      -0.374  10.591  20.769  0.00  0.00    +0.000 A 
ATOM     26  C   UNL     1      -1.108  11.218  21.783  0.00  0.00    +0.000 A 
ATOM     27  C   UNL     1      -0.967  10.727  23.084  0.00  0.00    +0.000 A 
ATOM     28  C   UNL     1      -0.126   9.650  23.355  0.00  0.00    +0.000 A 
ATOM     29  C   UNL     1       0.597   9.032  22.328  0.00  0.00    +0.000 A 
ATOM     30  C   UNL     1       0.475   9.509  21.006  0.00  0.00    +0.000 A 
ATOM     31  H   UNL     1      -0.839  11.593  18.963  0.00  0.00    +0.000 HD
ENDBRANCH  21  22
ENDBRANCH  20  21
ENDBRANCH   3  20
TORSDOF 6
ENDMDL
MODEL 3
REMARK VINA RESULT:      -8.2      2.507      3.459
REMARK  Name = 
REMARK  6 active torsions:
REMARK  status: ('A' for Active; 'I' for Inactive)
REMARK    1  A    between atoms: C_2  and  C_3
REMARK    2  A    between atoms: C_3  and  N_4
REMARK    3  A    between atoms: C_5  and  C_7
REMARK    4  A    between atoms: N_16  and  C_17
REMARK    5  A    between atoms: C_17  and  C_18
REMARK    6  A    between atoms: C_18  and  C_19
REMARK                            x       y       z     vdW  Elec       q    Type
REMARK                         _______ _______ _______ _____ _____    ______ ____
ROOT
ATOM      1  O   UNL     1       2.840   2.633  21.255  0.00  0.00    +0.000 OA
ATOM      2  C   UNL     1       2.701   2.723  20.040  0.00  0.00    +0.000 C 
ATOM      3  N   UNL     1       1.928   3.688  19.424  0.00  0.00    +0.000 N 
ATOM      4  H   UNL     1       1.609   3.484  18.479  0.00  0.00    +0.000 HD
ENDROOT
BRANCH   2   5
ATOM      5  C   UNL     1       3.319   1.712  19.071  0.00  0.00    +0.000 C 
BRANCH   5   6
ATOM      6  N   UNL     1       4.038   2.375  18.000  0.00  0.00    +0.000 N 
ATOM      7  C   UNL     1       4.975   3.353  18.255  0.00  0.00    +0.000 C 
ATOM      8  O   UNL     1       5.250   3.731  19.389  0.00  0.00    +0.000 OA
ATOM      9  H   UNL     1       3.847   2.067  17.056  0.00  0.00    +0.000 HD
BRANCH   7  10
ATOM     10  C   UNL     1       5.671   3.924  17.075  0.00  0.00    +0.000 A 
ATOM     11  C   UNL     1       6.555   4.985  17.262  0.00  0.00    +0.000 A 
ATOM     12  N   UNL     1       7.284   5.595  16.289  0.00  0.00    +0.000 NA
ATOM     13  C   UNL     1       7.058   5.075  15.068  0.00  0.00    +0.000 A 
ATOM     14  N   UNL     1       7.661   5.503  13.916  0.00  0.00    +0.000 N 
ATOM     15  C   UNL     1       7.202   4.769  12.851  0.00  0.00    +0.000 A 
ATOM     16  C   UNL     1       6.287   3.855  13.330  0.00  0.00    +0.000 A 
ATOM     17  C   UNL     1       6.194   4.037  14.737  0.00  0.00    +0.000 A 
ATOM     18  C   UNL     1       5.465   3.439  15.778  0.00  0.00    +0.000 A 
ATOM     19  H   UNL     1       8.338   6.252  13.882  0.00  0.00    +0.000 HD
ENDBRANCH   7  10
ENDBRANCH   5   6
ENDBRANCH   2   5
BRANCH   3  20
ATOM     20  C   UNL     1       1.236   4.701  20.204  0.00  0.00    +0.000 C 
BRANCH  20  21
ATOM     21  C   UNL     1       2.158   5.850  20.615  0.00  0.00    +0.000 C 
BRANCH  21  22
ATOM     22  C   UNL     1       2.359   6.855  19.524  0.00  0.00    +0.000 A 
ATOM     23  C   UNL     1       3.096   6.674  18.368  0.00  0.00    +0.000 A 
ATOM     24  N   UNL     1       3.024   7.820  17.625  0.00  0.00    +0.000 N 
ATOM     25  C   UNL     1       2.252   8.759  18.269  0.00  0.00    +0.000 A 
ATOM     26  C   UNL     1       1.906  10.060  17.884  0.00  0.00    +0.000 A 
ATOM     27  C   UNL     1       1.095  10.798  18.751  0.00  0.00    +0.000 A 
ATOM     28  C   UNL     1       0.649  10.252  19.953  0.00  0.00    +0.000 A 
ATOM     29  C   UNL     1       1.001   8.948  20.319  0.00  0.00    +0.000 A 
ATOM     30  C   UNL     1       1.820   8.181  19.464  0.00  0.00    +0.000 A 
ATOM     31  H   UNL     1       3.467   7.964  16.729  0.00  0.00    +0.000 HD
ENDBRANCH  21  22
ENDBRANCH  20  21
ENDBRANCH   3  20
TORSDOF 6
ENDMDL
MODEL 4
REMARK VINA RESULT:      -8.2      2.955      9.948
REMARK  Name = 
REMARK  6 active torsions:
REMARK  status: ('A' for Active; 'I' for Inactive)
REMARK    1  A    between atoms: C_2  and  C_3
REMARK    2  A    between atoms: C_3  and  N_4
REMARK    3  A    between atoms: C_5  and  C_7
REMARK    4  A    between atoms: N_16  and  C_17
REMARK    5  A    between atoms: C_17  and  C_18
REMARK    6  A    between atoms: C_18  and  C_19
REMARK                            x       y       z     vdW  Elec       q    Type
REMARK                         _______ _______ _______ _____ _____    ______ ____
ROOT
ATOM      1  O   UNL     1       1.524   4.930  20.691  0.00  0.00    +0.000 OA
ATOM      2  C   UNL     1       1.976   5.573  19.750  0.00  0.00    +0.000 C 
ATOM      3  N   UNL     1       2.025   5.105  18.451  0.00  0.00    +0.000 N 
ATOM      4  H   UNL     1       2.700   5.548  17.831  0.00  0.00    +0.000 HD
ENDROOT
BRANCH   2   5
ATOM      5  C   UNL     1       2.614   6.953  19.936  0.00  0.00    +0.000 C 
BRANCH   5   6
ATOM      6  N   UNL     1       1.757   7.833  20.708  0.00  0.00    +0.000 N 
ATOM      7  C   UNL     1       1.173   8.948  20.149  0.00  0.00    +0.000 C 
ATOM      8  O   UNL     1       1.347   9.273  18.980  0.00  0.00    +0.000 OA
ATOM      9  H   UNL     1       1.579   7.575  21.670  0.00  0.00    +0.000 HD
BRANCH   7  10
ATOM     10  C   UNL     1       0.285   9.741  21.034  0.00  0.00    +0.000 A 
ATOM     11  C   UNL     1       0.271   9.463  22.401  0.00  0.00    +0.000 A 
ATOM     12  N   UNL     1      -0.466  10.117  23.338  0.00  0.00    +0.000 NA
ATOM     13  C   UNL     1      -1.230  11.092  22.812  0.00  0.00    +0.000 A 
ATOM     14  N   UNL     1      -2.065  11.902  23.533  0.00  0.00    +0.000 N 
ATOM     15  C   UNL     1      -2.701  12.780  22.692  0.00  0.00    +0.000 A 
ATOM     16  C   UNL     1      -2.267  12.527  21.408  0.00  0.00    +0.000 A 
ATOM     17  C   UNL     1      -1.328  11.462  21.475  0.00  0.00    +0.000 A 
ATOM     18  C   UNL     1      -0.546  10.756  20.545  0.00  0.00    +0.000 A 
ATOM     19  H   UNL     1      -2.179  11.840  24.535  0.00  0.00    +0.000 HD
ENDBRANCH   7  10
ENDBRANCH   5   6
ENDBRANCH   2   5
BRANCH   3  20
ATOM     20  C   UNL     1       1.500   3.792  18.110  0.00  0.00    +0.000 C 
BRANCH  20  21
ATOM     21  C   UNL     1       2.579   2.859  17.560  0.00  0.00    +0.000 C 
BRANCH  21  22
ATOM     22  C   UNL     1       3.967   3.320  17.881  0.00  0.00    +0.000 A 
ATOM     23  C   UNL     1       4.594   3.237  19.109  0.00  0.00    +0.000 A 
ATOM     24  N   UNL     1       5.855   3.753  18.987  0.00  0.00    +0.000 N 
ATOM     25  C   UNL     1       6.073   4.179  17.698  0.00  0.00    +0.000 A 
ATOM     26  C   UNL     1       7.206   4.765  17.121  0.00  0.00    +0.000 A 
ATOM     27  C   UNL     1       7.144   5.102  15.766  0.00  0.00    +0.000 A 
ATOM     28  C   UNL     1       5.992   4.859  15.021  0.00  0.00    +0.000 A 
ATOM     29  C   UNL     1       4.870   4.268  15.612  0.00  0.00    +0.000 A 
ATOM     30  C   UNL     1       4.905   3.920  16.979  0.00  0.00    +0.000 A 
ATOM     31  H   UNL     1       6.536   3.814  19.731  0.00  0.00    +0.000 HD
ENDBRANCH  21  22
ENDBRANCH  20  21
ENDBRANCH   3  20
TORSDOF 6
ENDMDL
MODEL 5
REMARK VINA RESULT:      -8.1      5.928      8.945
REMARK  Name = 
REMARK  6 active torsions:
REMARK  status: ('A' for Active; 'I' for Inactive)
REMARK    1  A    between atoms: C_2  and  C_3
REMARK    2  A    between atoms: C_3  and  N_4
REMARK    3  A    between atoms: C_5  and  C_7
REMARK    4  A    between atoms: N_16  and  C_17
REMARK    5  A    between atoms: C_17  and  C_18
REMARK    6  A    between atoms: C_18  and  C_19
REMARK                            x       y       z     vdW  Elec       q    Type
REMARK                         _______ _______ _______ _____ _____    ______ ____
ROOT
ATOM      1  O   UNL     1       8.075   6.546  18.799  0.00  0.00    +0.000 OA
ATOM      2  C   UNL     1       7.559   7.189  17.891  0.00  0.00    +0.000 C 
ATOM      3  N   UNL     1       7.770   8.540  17.688  0.00  0.00    +0.000 N 
ATOM      4  H   UNL     1       7.064   9.035  17.147  0.00  0.00    +0.000 HD
ENDROOT
BRANCH   2   5
ATOM      5  C   UNL     1       6.552   6.565  16.920  0.00  0.00    +0.000 C 
BRANCH   5   6
ATOM      6  N   UNL     1       5.543   5.797  17.623  0.00  0.00    +0.000 N 
ATOM      7  C   UNL     1       4.261   6.271  17.793  0.00  0.00    +0.000 C 
ATOM      8  O   UNL     1       3.896   7.365  17.377  0.00  0.00    +0.000 OA
ATOM      9  H   UNL     1       5.812   4.881  17.957  0.00  0.00    +0.000 HD
BRANCH   7  10
ATOM     10  C   UNL     1       3.313   5.370  18.494  0.00  0.00    +0.000 A 
ATOM     11  C   UNL     1       2.231   4.847  17.786  0.00  0.00    +0.000 A 
ATOM     12  N   UNL     1       1.296   3.991  18.280  0.00  0.00    +0.000 NA
ATOM     13  C   UNL     1       1.500   3.690  19.575  0.00  0.00    +0.000 A 
ATOM     14  N   UNL     1       0.707   2.853  20.314  0.00  0.00    +0.000 N 
ATOM     15  C   UNL     1       1.188   2.770  21.597  0.00  0.00    +0.000 A 
ATOM     16  C   UNL     1       2.308   3.570  21.681  0.00  0.00    +0.000 A 
ATOM     17  C   UNL     1       2.518   4.153  20.402  0.00  0.00    +0.000 A 
ATOM     18  C   UNL     1       3.460   5.033  19.844  0.00  0.00    +0.000 A 
ATOM     19  H   UNL     1      -0.106   2.381  19.946  0.00  0.00    +0.000 HD
ENDBRANCH   7  10
ENDBRANCH   5   6
ENDBRANCH   2   5
BRANCH   3  20
ATOM     20  C   UNL     1       8.666   9.293  18.550  0.00  0.00    +0.000 C 
BRANCH  20  21
ATOM     21  C   UNL     1       9.050  10.646  17.949  0.00  0.00    +0.000 C 
BRANCH  21  22
ATOM     22  C   UNL     1       9.700  11.561  18.940  0.00  0.00    +0.000 A 
ATOM     23  C   UNL     1      10.359  11.183  20.095  0.00  0.00    +0.000 A 
ATOM     24  N   UNL     1      10.820  12.310  20.719  0.00  0.00    +0.000 N 
ATOM     25  C   UNL     1      10.475  13.429  19.997  0.00  0.00    +0.000 A 
ATOM     26  C   UNL     1      10.735  14.781  20.251  0.00  0.00    +0.000 A 
ATOM     27  C   UNL     1      10.257  15.718  19.331  0.00  0.00    +0.000 A 
ATOM     28  C   UNL     1       9.548  15.313  18.201  0.00  0.00    +0.000 A 
ATOM     29  C   UNL     1       9.301  13.957  17.960  0.00  0.00    +0.000 A 
ATOM     30  C   UNL     1       9.771  12.990  18.875  0.00  0.00    +0.000 A 
ATOM     31  H   UNL     1      11.342  12.327  21.583  0.00  0.00    +0.000 HD
ENDBRANCH  21  22
ENDBRANCH  20  21
ENDBRANCH   3  20
TORSDOF 6
ENDMDL
MODEL 6
REMARK VINA RESULT:      -8.1      2.277      9.620
REMARK  Name = 
REMARK  6 active torsions:
REMARK  status: ('A' for Active; 'I' for Inactive)
REMARK    1  A    between atoms: C_2  and  C_3
REMARK    2  A    between atoms: C_3  and  N_4
REMARK    3  A    between atoms: C_5  and  C_7
REMARK    4  A    between atoms: N_16  and  C_17
REMARK    5  A    between atoms: C_17  and  C_18
REMARK    6  A    between atoms: C_18  and  C_19
REMARK                            x       y       z     vdW  Elec       q    Type
REMARK                         _______ _______ _______ _____ _____    ______ ____
ROOT
ATOM      1  O   UNL     1       1.995   5.544  20.572  0.00  0.00    +0.000 OA
ATOM      2  C   UNL     1       2.116   6.064  19.468  0.00  0.00    +0.000 C 
ATOM      3  N   UNL     1       1.949   5.385  18.276  0.00  0.00    +0.000 N 
ATOM      4  H   UNL     1       2.388   5.794  17.453  0.00  0.00    +0.000 HD
ENDROOT
BRANCH   2   5
ATOM      5  C   UNL     1       2.546   7.524  19.296  0.00  0.00    +0.000 C 
BRANCH   5   6
ATOM      6  N   UNL     1       1.416   8.426  19.409  0.00  0.00    +0.000 N 
ATOM      7  C   UNL     1       1.159   9.388  18.457  0.00  0.00    +0.000 C 
ATOM      8  O   UNL     1       1.868   9.551  17.470  0.00  0.00    +0.000 OA
ATOM      9  H   UNL     1       0.802   8.298  20.202  0.00  0.00    +0.000 HD
BRANCH   7  10
ATOM     10  C   UNL     1      -0.052  10.219  18.669  0.00  0.00    +0.000 A 
ATOM     11  C   UNL     1      -1.056  10.206  17.701  0.00  0.00    +0.000 A 
ATOM     12  N   UNL     1      -2.230  10.891  17.764  0.00  0.00    +0.000 NA
ATOM     13  C   UNL     1      -2.342  11.630  18.883  0.00  0.00    +0.000 A 
ATOM     14  N   UNL     1      -3.421  12.412  19.195  0.00  0.00    +0.000 N 
ATOM     15  C   UNL     1      -3.210  13.036  20.398  0.00  0.00    +0.000 A 
ATOM     16  C   UNL     1      -1.971  12.648  20.865  0.00  0.00    +0.000 A 
ATOM     17  C   UNL     1      -1.416  11.750  19.913  0.00  0.00    +0.000 A 
ATOM     18  C   UNL     1      -0.219  11.023  19.802  0.00  0.00    +0.000 A 
ATOM     19  H   UNL     1      -4.238  12.500  18.607  0.00  0.00    +0.000 HD
ENDBRANCH   7  10
ENDBRANCH   5   6
ENDBRANCH   2   5
BRANCH   3  20
ATOM     20  C   UNL     1       1.582   3.978  18.263  0.00  0.00    +0.000 C 
BRANCH  20  21
ATOM     21  C   UNL     1       2.603   3.117  17.519  0.00  0.00    +0.000 C 
BRANCH  21  22
ATOM     22  C   UNL     1       4.019   3.494  17.829  0.00  0.00    +0.000 A 
ATOM     23  C   UNL     1       4.642   3.393  19.059  0.00  0.00    +0.000 A 
ATOM     24  N   UNL     1       5.934   3.825  18.926  0.00  0.00    +0.000 N 
ATOM     25  C   UNL     1       6.176   4.212  17.629  0.00  0.00    +0.000 A 
ATOM     26  C   UNL     1       7.344   4.712  17.039  0.00  0.00    +0.000 A 
ATOM     27  C   UNL     1       7.300   5.026  15.678  0.00  0.00    +0.000 A 
ATOM     28  C   UNL     1       6.134   4.844  14.939  0.00  0.00    +0.000 A 
ATOM     29  C   UNL     1       4.977   4.339  15.543  0.00  0.00    +0.000 A 
ATOM     30  C   UNL     1       4.992   4.015  16.916  0.00  0.00    +0.000 A 
ATOM     31  H   UNL     1       6.619   3.855  19.668  0.00  0.00    +0.000 HD
ENDBRANCH  21  22
ENDBRANCH  20  21
ENDBRANCH   3  20
TORSDOF 6
ENDMDL
MODEL 7
REMARK VINA RESULT:      -8.1      2.122      2.703
REMARK  Name = 
REMARK  6 active torsions:
REMARK  status: ('A' for Active; 'I' for Inactive)
REMARK    1  A    between atoms: C_2  and  C_3
REMARK    2  A    between atoms: C_3  and  N_4
REMARK    3  A    between atoms: C_5  and  C_7
REMARK    4  A    between atoms: N_16  and  C_17
REMARK    5  A    between atoms: C_17  and  C_18
REMARK    6  A    between atoms: C_18  and  C_19
REMARK                            x       y       z     vdW  Elec       q    Type
REMARK                         _______ _______ _______ _____ _____    ______ ____
ROOT
ATOM      1  O   UNL     1       2.368   4.128  20.968  0.00  0.00    +0.000 OA
ATOM      2  C   UNL     1       3.231   4.312  20.116  0.00  0.00    +0.000 C 
ATOM      3  N   UNL     1       3.367   5.487  19.400  0.00  0.00    +0.000 N 
ATOM      4  H   UNL     1       3.867   5.427  18.515  0.00  0.00    +0.000 HD
ENDROOT
BRANCH   2   5
ATOM      5  C   UNL     1       4.213   3.214  19.698  0.00  0.00    +0.000 C 
BRANCH   5   6
ATOM      6  N   UNL     1       5.019   3.628  18.566  0.00  0.00    +0.000 N 
ATOM      7  C   UNL     1       4.507   3.664  17.287  0.00  0.00    +0.000 C 
ATOM      8  O   UNL     1       3.354   3.341  17.024  0.00  0.00    +0.000 OA
ATOM      9  H   UNL     1       5.968   3.922  18.758  0.00  0.00    +0.000 HD
BRANCH   7  10
ATOM     10  C   UNL     1       5.422   4.146  16.223  0.00  0.00    +0.000 A 
ATOM     11  C   UNL     1       6.380   5.108  16.542  0.00  0.00    +0.000 A 
ATOM     12  N   UNL     1       7.302   5.627  15.687  0.00  0.00    +0.000 NA
ATOM     13  C   UNL     1       7.199   5.123  14.443  0.00  0.00    +0.000 A 
ATOM     14  N   UNL     1       8.003   5.472  13.392  0.00  0.00    +0.000 N 
ATOM     15  C   UNL     1       7.626   4.782  12.268  0.00  0.00    +0.000 A 
ATOM     16  C   UNL     1       6.559   3.976  12.605  0.00  0.00    +0.000 A 
ATOM     17  C   UNL     1       6.285   4.180  13.985  0.00  0.00    +0.000 A 
ATOM     18  C   UNL     1       5.354   3.674  14.907  0.00  0.00    +0.000 A 
ATOM     19  H   UNL     1       8.755   6.144  13.460  0.00  0.00    +0.000 HD
ENDBRANCH   7  10
ENDBRANCH   5   6
ENDBRANCH   2   5
BRANCH   3  20
ATOM     20  C   UNL     1       2.484   6.616  19.644  0.00  0.00    +0.000 C 
BRANCH  20  21
ATOM     21  C   UNL     1       2.468   7.604  18.477  0.00  0.00    +0.000 C 
BRANCH  21  22
ATOM     22  C   UNL     1       1.667   8.836  18.768  0.00  0.00    +0.000 A 
ATOM     23  C   UNL     1       1.385   9.858  17.880  0.00  0.00    +0.000 A 
ATOM     24  N   UNL     1       0.621  10.792  18.525  0.00  0.00    +0.000 N 
ATOM     25  C   UNL     1       0.393  10.406  19.825  0.00  0.00    +0.000 A 
ATOM     26  C   UNL     1      -0.331  11.043  20.841  0.00  0.00    +0.000 A 
ATOM     27  C   UNL     1      -0.395  10.410  22.086  0.00  0.00    +0.000 A 
ATOM     28  C   UNL     1       0.240   9.189  22.301  0.00  0.00    +0.000 A 
ATOM     29  C   UNL     1       0.955   8.564  21.273  0.00  0.00    +0.000 A 
ATOM     30  C   UNL     1       1.038   9.182  20.007  0.00  0.00    +0.000 A 
ATOM     31  H   UNL     1       0.267  11.643  18.112  0.00  0.00    +0.000 HD
ENDBRANCH  21  22
ENDBRANCH  20  21
ENDBRANCH   3  20
TORSDOF 6
ENDMDL
MODEL 8
REMARK VINA RESULT:      -8.1      2.318      9.242
REMARK  Name = 
REMARK  6 active torsions:
REMARK  status: ('A' for Active; 'I' for Inactive)
REMARK    1  A    between atoms: C_2  and  C_3
REMARK    2  A    between atoms: C_3  and  N_4
REMARK    3  A    between atoms: C_5  and  C_7
REMARK    4  A    between atoms: N_16  and  C_17
REMARK    5  A    between atoms: C_17  and  C_18
REMARK    6  A    between atoms: C_18  and  C_19
REMARK                            x       y       z     vdW  Elec       q    Type
REMARK                         _______ _______ _______ _____ _____    ______ ____
ROOT
ATOM      1  O   UNL     1       1.748   3.341  18.611  0.00  0.00    +0.000 OA
ATOM      2  C   UNL     1       2.692   3.700  19.307  0.00  0.00    +0.000 C 
ATOM      3  N   UNL     1       4.009   3.667  18.891  0.00  0.00    +0.000 N 
ATOM      4  H   UNL     1       4.718   3.658  19.622  0.00  0.00    +0.000 HD
ENDROOT
BRANCH   2   5
ATOM      5  C   UNL     1       2.510   4.156  20.757  0.00  0.00    +0.000 C 
BRANCH   5   6
ATOM      6  N   UNL     1       1.904   5.472  20.827  0.00  0.00    +0.000 N 
ATOM      7  C   UNL     1       2.429   6.547  20.144  0.00  0.00    +0.000 C 
ATOM      8  O   UNL     1       3.438   6.466  19.451  0.00  0.00    +0.000 OA
ATOM      9  H   UNL     1       1.058   5.562  21.373  0.00  0.00    +0.000 HD
BRANCH   7  10
ATOM     10  C   UNL     1       1.691   7.829  20.264  0.00  0.00    +0.000 A 
ATOM     11  C   UNL     1       1.606   8.665  19.151  0.00  0.00    +0.000 A 
ATOM     12  N   UNL     1       0.946   9.853  19.097  0.00  0.00    +0.000 NA
ATOM     13  C   UNL     1       0.368  10.180  20.267  0.00  0.00    +0.000 A 
ATOM     14  N   UNL     1      -0.357  11.321  20.486  0.00  0.00    +0.000 N 
ATOM     15  C   UNL     1      -0.797  11.349  21.786  0.00  0.00    +0.000 A 
ATOM     16  C   UNL     1      -0.345  10.207  22.411  0.00  0.00    +0.000 A 
ATOM     17  C   UNL     1       0.390   9.455  21.454  0.00  0.00    +0.000 A 
ATOM     18  C   UNL     1       1.084   8.234  21.458  0.00  0.00    +0.000 A 
ATOM     19  H   UNL     1      -0.525  12.022  19.779  0.00  0.00    +0.000 HD
ENDBRANCH   7  10
ENDBRANCH   5   6
ENDBRANCH   2   5
BRANCH   3  20
ATOM     20  C   UNL     1       4.360   3.217  17.553  0.00  0.00    +0.000 C 
BRANCH  20  21
ATOM     21  C   UNL     1       4.130   4.300  16.498  0.00  0.00    +0.000 C 
BRANCH  21  22
ATOM     22  C   UNL     1       5.389   4.706  15.797  0.00  0.00    +0.000 A 
ATOM     23  C   UNL     1       6.405   5.483  16.321  0.00  0.00    +0.000 A 
ATOM     24  N   UNL     1       7.381   5.617  15.372  0.00  0.00    +0.000 N 
ATOM     25  C   UNL     1       7.028   4.943  14.226  0.00  0.00    +0.000 A 
ATOM     26  C   UNL     1       7.714   4.805  13.014  0.00  0.00    +0.000 A 
ATOM     27  C   UNL     1       7.106   4.051  12.006  0.00  0.00    +0.000 A 
ATOM     28  C   UNL     1       5.861   3.459  12.209  0.00  0.00    +0.000 A 
ATOM     29  C   UNL     1       5.191   3.603  13.429  0.00  0.00    +0.000 A 
ATOM     30  C   UNL     1       5.782   4.361  14.463  0.00  0.00    +0.000 A 
ATOM     31  H   UNL     1       8.243   6.132  15.489  0.00  0.00    +0.000 HD
ENDBRANCH  21  22
ENDBRANCH  20  21
ENDBRANCH   3  20
TORSDOF 6
ENDMDL
MODEL 9
REMARK VINA RESULT:      -8.1      2.097      3.090
REMARK  Name = 
REMARK  6 active torsions:
REMARK  status: ('A' for Active; 'I' for Inactive)
REMARK    1  A    between atoms: C_2  and  C_3
REMARK    2  A    between atoms: C_3  and  N_4
REMARK    3  A    between atoms: C_5  and  C_7
REMARK    4  A    between atoms: N_16  and  C_17
REMARK    5  A    between atoms: C_17  and  C_18
REMARK    6  A    between atoms: C_18  and  C_19
REMARK                            x       y       z     vdW  Elec       q    Type
REMARK                         _______ _______ _______ _____ _____    ______ ____
ROOT
ATOM      1  O   UNL     1       1.864   8.871  22.243  0.00  0.00    +0.000 OA
ATOM      2  C   UNL     1       1.215   8.335  21.350  0.00  0.00    +0.000 C 
ATOM      3  N   UNL     1       0.268   8.991  20.588  0.00  0.00    +0.000 N 
ATOM      4  H   UNL     1      -0.431   8.410  20.128  0.00  0.00    +0.000 HD
ENDROOT
BRANCH   2   5
ATOM      5  C   UNL     1       1.337   6.841  21.037  0.00  0.00    +0.000 C 
BRANCH   5   6
ATOM      6  N   UNL     1       2.533   6.556  20.269  0.00  0.00    +0.000 N 
ATOM      7  C   UNL     1       2.603   5.482  19.409  0.00  0.00    +0.000 C 
ATOM      8  O   UNL     1       1.674   4.699  19.248  0.00  0.00    +0.000 OA
ATOM      9  H   UNL     1       3.307   7.200  20.366  0.00  0.00    +0.000 HD
BRANCH   7  10
ATOM     10  C   UNL     1       3.868   5.326  18.650  0.00  0.00    +0.000 A 
ATOM     11  C   UNL     1       5.080   5.389  19.338  0.00  0.00    +0.000 A 
ATOM     12  N   UNL     1       6.315   5.238  18.789  0.00  0.00    +0.000 NA
ATOM     13  C   UNL     1       6.272   5.029  17.460  0.00  0.00    +0.000 A 
ATOM     14  N   UNL     1       7.370   4.846  16.664  0.00  0.00    +0.000 N 
ATOM     15  C   UNL     1       6.976   4.668  15.362  0.00  0.00    +0.000 A 
ATOM     16  C   UNL     1       5.600   4.741  15.322  0.00  0.00    +0.000 A 
ATOM     17  C   UNL     1       5.143   4.963  16.650  0.00  0.00    +0.000 A 
ATOM     18  C   UNL     1       3.890   5.124  17.265  0.00  0.00    +0.000 A 
ATOM     19  H   UNL     1       8.320   4.848  17.009  0.00  0.00    +0.000 HD
ENDBRANCH   7  10
ENDBRANCH   5   6
ENDBRANCH   2   5
BRANCH   3  20
ATOM     20  C   UNL     1      -0.002  10.406  20.787  0.00  0.00    +0.000 C 
BRANCH  20  21
ATOM     21  C   UNL     1      -0.077  11.175  19.467  0.00  0.00    +0.000 C 
BRANCH  21  22
ATOM     22  C   UNL     1      -1.481  11.505  19.065  0.00  0.00    +0.000 A 
ATOM     23  C   UNL     1      -2.355  12.332  19.745  0.00  0.00    +0.000 A 
ATOM     24  N   UNL     1      -3.532  12.385  19.048  0.00  0.00    +0.000 N 
ATOM     25  C   UNL     1      -3.452  11.605  17.918  0.00  0.00    +0.000 A 
ATOM     26  C   UNL     1      -4.404  11.363  16.920  0.00  0.00    +0.000 A 
ATOM     27  C   UNL     1      -4.042  10.513  15.871  0.00  0.00    +0.000 A 
ATOM     28  C   UNL     1      -2.777   9.931  15.826  0.00  0.00    +0.000 A 
ATOM     29  C   UNL     1      -1.837  10.187  16.830  0.00  0.00    +0.000 A 
ATOM     30  C   UNL     1      -2.176  11.040  17.902  0.00  0.00    +0.000 A 
ATOM     31  H   UNL     1      -4.346  12.920  19.316  0.00  0.00    +0.000 HD
ENDBRANCH  21  22
ENDBRANCH  20  21
ENDBRANCH   3  20
TORSDOF 6
ENDMDL
