MODEL 1
REMARK VINA RESULT:      -7.1      0.000      0.000
REMARK  Name = 
REMARK  9 active torsions:
REMARK  status: ('A' for Active; 'I' for Inactive)
REMARK    1  A    between atoms: C_1  and  O_2
REMARK    2  A    between atoms: O_2  and  C_3
REMARK    3  A    between atoms: C_5  and  O_6
REMARK    4  A    between atoms: O_6  and  C_7
REMARK    5  A    between atoms: C_8  and  O_9
REMARK    6  A    between atoms: O_9  and  C_10
REMARK    7  A    between atoms: C_12  and  C_13
REMARK    8  A    between atoms: C_13  and  N_14
REMARK    9  A    between atoms: C_18  and  C_19
REMARK                            x       y       z     vdW  Elec       q    Type
REMARK                         _______ _______ _______ _____ _____    ______ ____
ROOT
ATOM      1  N   UNL     1       1.850   8.638  19.107  0.00  0.00    +0.000 NA
ATOM      2  C   UNL     1       1.172   7.972  20.246  0.00  0.00    +0.000 C 
ATOM      3  C   UNL     1       1.819   6.773  20.975  0.00  0.00    +0.000 C 
ATOM      4  C   UNL     1       2.317   5.718  20.037  0.00  0.00    +0.000 C 
ATOM      5  C   UNL     1       3.223   6.346  18.977  0.00  0.00    +0.000 C 
ATOM      6  C   UNL     1       2.681   7.670  18.341  0.00  0.00    +0.000 C 
ENDROOT
BRANCH   5   7
ATOM      7  C   UNL     1       3.402   5.286  17.875  0.00  0.00    +0.000 C 
ATOM      8  O   UNL     1       2.440   4.599  17.511  0.00  0.00    +0.000 OA
ATOM      9  N   UNL     1       4.638   5.142  17.249  0.00  0.00    +0.000 N 
ATOM     10  C   UNL     1       4.611   4.423  15.974  0.00  0.00    +0.000 C 
ATOM     11  C   UNL     1       5.946   3.744  15.642  0.00  0.00    +0.000 C 
ATOM     12  C   UNL     1       7.107   4.720  15.776  0.00  0.00    +0.000 C 
ATOM     13  C   UNL     1       7.114   5.333  17.171  0.00  0.00    +0.000 C 
ATOM     14  C   UNL     1       5.790   6.008  17.502  0.00  0.00    +0.000 C 
ENDBRANCH   5   7
BRANCH   1  15
ATOM     15  C   UNL     1       1.053   9.592  18.164  0.00  0.00    +0.000 C 
BRANCH  15  21
ATOM     16  C   UNL     1      -0.804  11.308  19.265  0.00  0.00    +0.000 A 
ATOM     17  C   UNL     1      -2.117  11.885  19.218  0.00  0.00    +0.000 A 
ATOM     18  C   UNL     1      -3.101  11.485  18.300  0.00  0.00    +0.000 A 
ATOM     19  C   UNL     1      -2.735  10.538  17.338  0.00  0.00    +0.000 A 
ATOM     20  C   UNL     1      -1.398  10.010  17.351  0.00  0.00    +0.000 A 
ATOM     21  C   UNL     1      -0.390  10.310  18.339  0.00  0.00    +0.000 A 
BRANCH  16  23
ATOM     22  C   UNL     1      -0.925  11.173  21.644  0.00  0.00    +0.000 C 
ATOM     23  O   UNL     1      -0.189  11.495  20.478  0.00  0.00    +0.000 OA
ENDBRANCH  16  23
BRANCH  18  24
ATOM     24  O   UNL     1      -4.330  12.089  18.488  0.00  0.00    +0.000 OA
ATOM     25  C   UNL     1      -4.729  12.502  19.801  0.00  0.00    +0.000 C 
ENDBRANCH  18  24
BRANCH  19  26
ATOM     26  O   UNL     1      -3.706  10.213  16.433  0.00  0.00    +0.000 OA
ATOM     27  C   UNL     1      -3.451  10.401  15.054  0.00  0.00    +0.000 C 
ENDBRANCH  19  26
ENDBRANCH  15  21
ENDBRANCH   1  15
TORSDOF 6
ENDMDL
MODEL 2
REMARK VINA RESULT:      -7.0      2.795      9.496
REMARK  Name = 
REMARK  9 active torsions:
REMARK  status: ('A' for Active; 'I' for Inactive)
REMARK    1  A    between atoms: C_1  and  O_2
REMARK    2  A    between atoms: O_2  and  C_3
REMARK    3  A    between atoms: C_5  and  O_6
REMARK    4  A    between atoms: O_6  and  C_7
REMARK    5  A    between atoms: C_8  and  O_9
REMARK    6  A    between atoms: O_9  and  C_10
REMARK    7  A    between atoms: C_12  and  C_13
REMARK    8  A    between atoms: C_13  and  N_14
REMARK    9  A    between atoms: C_18  and  C_19
REMARK                            x       y       z     vdW  Elec       q    Type
REMARK                         _______ _______ _______ _____ _____    ______ ____
ROOT
ATOM      1  N   UNL     1       2.259   8.213  19.048  0.00  0.00    +0.000 NA
ATOM      2  C   UNL     1       1.646   8.865  17.866  0.00  0.00    +0.000 C 
ATOM      3  C   UNL     1       1.055  10.291  17.952  0.00  0.00    +0.000 C 
ATOM      4  C   UNL     1       0.140  10.473  19.122  0.00  0.00    +0.000 C 
ATOM      5  C   UNL     1       0.836  10.025  20.408  0.00  0.00    +0.000 C 
ATOM      6  C   UNL     1       1.604   8.664  20.306  0.00  0.00    +0.000 C 
ENDROOT
BRANCH   5   7
ATOM      7  C   UNL     1      -0.261   9.914  21.482  0.00  0.00    +0.000 C 
ATOM      8  O   UNL     1      -0.605   8.804  21.905  0.00  0.00    +0.000 OA
ATOM      9  N   UNL     1      -0.824  11.070  22.015  0.00  0.00    +0.000 N 
ATOM     10  C   UNL     1      -1.539  10.888  23.280  0.00  0.00    +0.000 C 
ATOM     11  C   UNL     1      -2.630  11.942  23.508  0.00  0.00    +0.000 C 
ATOM     12  C   UNL     1      -2.087  13.349  23.303  0.00  0.00    +0.000 C 
ATOM     13  C   UNL     1      -1.462  13.469  21.918  0.00  0.00    +0.000 C 
ATOM     14  C   UNL     1      -0.378  12.425  21.691  0.00  0.00    +0.000 C 
ENDBRANCH   5   7
BRANCH   1  15
ATOM     15  C   UNL     1       2.522   6.675  19.051  0.00  0.00    +0.000 C 
BRANCH  15  21
ATOM     16  C   UNL     1       3.187   4.473  17.530  0.00  0.00    +0.000 A 
ATOM     17  C   UNL     1       4.119   3.831  16.647  0.00  0.00    +0.000 A 
ATOM     18  C   UNL     1       5.370   4.376  16.320  0.00  0.00    +0.000 A 
ATOM     19  C   UNL     1       5.669   5.646  16.823  0.00  0.00    +0.000 A 
ATOM     20  C   UNL     1       4.706   6.312  17.656  0.00  0.00    +0.000 A 
ATOM     21  C   UNL     1       3.456   5.747  18.105  0.00  0.00    +0.000 A 
BRANCH  16  23
ATOM     22  C   UNL     1       2.717   2.281  18.347  0.00  0.00    +0.000 C 
ATOM     23  O   UNL     1       2.275   3.596  18.063  0.00  0.00    +0.000 OA
ENDBRANCH  16  23
BRANCH  18  24
ATOM     24  O   UNL     1       6.159   3.553  15.538  0.00  0.00    +0.000 OA
ATOM     25  C   UNL     1       6.295   3.815  14.135  0.00  0.00    +0.000 C 
ENDBRANCH  18  24
BRANCH  19  26
ATOM     26  O   UNL     1       6.876   6.161  16.441  0.00  0.00    +0.000 OA
ATOM     27  C   UNL     1       7.516   7.106  17.277  0.00  0.00    +0.000 C 
ENDBRANCH  19  26
ENDBRANCH  15  21
ENDBRANCH   1  15
TORSDOF 6
ENDMDL
MODEL 3
REMARK VINA RESULT:      -6.9      2.304      9.304
REMARK  Name = 
REMARK  9 active torsions:
REMARK  status: ('A' for Active; 'I' for Inactive)
REMARK    1  A    between atoms: C_1  and  O_2
REMARK    2  A    between atoms: O_2  and  C_3
REMARK    3  A    between atoms: C_5  and  O_6
REMARK    4  A    between atoms: O_6  and  C_7
REMARK    5  A    between atoms: C_8  and  O_9
REMARK    6  A    between atoms: O_9  and  C_10
REMARK    7  A    between atoms: C_12  and  C_13
REMARK    8  A    between atoms: C_13  and  N_14
REMARK    9  A    between atoms: C_18  and  C_19
REMARK                            x       y       z     vdW  Elec       q    Type
REMARK                         _______ _______ _______ _____ _____    ______ ____
ROOT
ATOM      1  N   UNL     1       1.122   9.987  18.546  0.00  0.00    +0.000 NA
ATOM      2  C   UNL     1       1.691  11.351  18.672  0.00  0.00    +0.000 C 
ATOM      3  C   UNL     1       0.833  12.534  19.174  0.00  0.00    +0.000 C 
ATOM      4  C   UNL     1      -0.490  12.634  18.481  0.00  0.00    +0.000 C 
ATOM      5  C   UNL     1      -1.215  11.289  18.541  0.00  0.00    +0.000 C 
ATOM      6  C   UNL     1      -0.327  10.042  18.213  0.00  0.00    +0.000 C 
ENDROOT
BRANCH   5   7
ATOM      7  C   UNL     1      -2.373  11.373  17.530  0.00  0.00    +0.000 C 
ATOM      8  O   UNL     1      -2.192  11.043  16.352  0.00  0.00    +0.000 OA
ATOM      9  N   UNL     1      -3.637  11.766  17.959  0.00  0.00    +0.000 N 
ATOM     10  C   UNL     1      -4.735  11.432  17.050  0.00  0.00    +0.000 C 
ATOM     11  C   UNL     1      -5.939  12.372  17.196  0.00  0.00    +0.000 C 
ATOM     12  C   UNL     1      -6.362  12.503  18.652  0.00  0.00    +0.000 C 
ATOM     13  C   UNL     1      -5.179  12.959  19.499  0.00  0.00    +0.000 C 
ATOM     14  C   UNL     1      -3.985  12.027  19.356  0.00  0.00    +0.000 C 
ENDBRANCH   5   7
BRANCH   1  15
ATOM     15  C   UNL     1       1.867   8.896  17.716  0.00  0.00    +0.000 C 
BRANCH  15  21
ATOM     16  C   UNL     1       3.859   6.989  17.693  0.00  0.00    +0.000 A 
ATOM     17  C   UNL     1       4.434   5.811  18.278  0.00  0.00    +0.000 A 
ATOM     18  C   UNL     1       3.828   5.097  19.324  0.00  0.00    +0.000 A 
ATOM     19  C   UNL     1       2.650   5.624  19.864  0.00  0.00    +0.000 A 
ATOM     20  C   UNL     1       2.112   6.839  19.314  0.00  0.00    +0.000 A 
ATOM     21  C   UNL     1       2.641   7.546  18.173  0.00  0.00    +0.000 A 
BRANCH  16  23
ATOM     22  C   UNL     1       5.251   6.307  15.878  0.00  0.00    +0.000 C 
ATOM     23  O   UNL     1       4.348   7.245  16.436  0.00  0.00    +0.000 OA
ENDBRANCH  16  23
BRANCH  18  24
ATOM     24  O   UNL     1       4.489   3.935  19.674  0.00  0.00    +0.000 OA
ATOM     25  C   UNL     1       4.109   2.689  19.076  0.00  0.00    +0.000 C 
ENDBRANCH  18  24
BRANCH  19  26
ATOM     26  O   UNL     1       2.119   4.926  20.911  0.00  0.00    +0.000 OA
ATOM     27  C   UNL     1       1.049   4.032  20.670  0.00  0.00    +0.000 C 
ENDBRANCH  19  26
ENDBRANCH  15  21
ENDBRANCH   1  15
TORSDOF 6
ENDMDL
MODEL 4
REMARK VINA RESULT:      -6.9      2.191      8.920
REMARK  Name = 
REMARK  9 active torsions:
REMARK  status: ('A' for Active; 'I' for Inactive)
REMARK    1  A    between atoms: C_1  and  O_2
REMARK    2  A    between atoms: O_2  and  C_3
REMARK    3  A    between atoms: C_5  and  O_6
REMARK    4  A    between atoms: O_6  and  C_7
REMARK    5  A    between atoms: C_8  and  O_9
REMARK    6  A    between atoms: O_9  and  C_10
REMARK    7  A    between atoms: C_12  and  C_13
REMARK    8  A    between atoms: C_13  and  N_14
REMARK    9  A    between atoms: C_18  and  C_19
REMARK                            x       y       z     vdW  Elec       q    Type
REMARK                         _______ _______ _______ _____ _____    ______ ____
ROOT
ATOM      1  N   UNL     1       1.163  10.696  18.826  0.00  0.00    +0.000 NA
ATOM      2  C   UNL     1       1.663  12.056  18.509  0.00  0.00    +0.000 C 
ATOM      3  C   UNL     1       0.779  13.305  18.720  0.00  0.00    +0.000 C 
ATOM      4  C   UNL     1      -0.592  13.156  18.137  0.00  0.00    +0.000 C 
ATOM      5  C   UNL     1      -1.237  11.864  18.639  0.00  0.00    +0.000 C 
ATOM      6  C   UNL     1      -0.307  10.604  18.611  0.00  0.00    +0.000 C 
ENDROOT
BRANCH   5   7
ATOM      7  C   UNL     1      -2.464  11.613  17.743  0.00  0.00    +0.000 C 
ATOM      8  O   UNL     1      -2.317  11.161  16.602  0.00  0.00    +0.000 OA
ATOM      9  N   UNL     1      -3.742  11.844  18.244  0.00  0.00    +0.000 N 
ATOM     10  C   UNL     1      -4.829  11.210  17.494  0.00  0.00    +0.000 C 
ATOM     11  C   UNL     1      -6.167  11.946  17.643  0.00  0.00    +0.000 C 
ATOM     12  C   UNL     1      -6.495  12.201  19.107  0.00  0.00    +0.000 C 
ATOM     13  C   UNL     1      -5.353  12.960  19.772  0.00  0.00    +0.000 C 
ATOM     14  C   UNL     1      -4.024  12.231  19.626  0.00  0.00    +0.000 C 
ENDBRANCH   5   7
BRANCH   1  15
ATOM     15  C   UNL     1       1.907   9.436  18.286  0.00  0.00    +0.000 C 
BRANCH  15  21
ATOM     16  C   UNL     1       1.730   7.457  20.197  0.00  0.00    +0.000 A 
ATOM     17  C   UNL     1       1.952   6.088  20.567  0.00  0.00    +0.000 A 
ATOM     18  C   UNL     1       2.611   5.165  19.740  0.00  0.00    +0.000 A 
ATOM     19  C   UNL     1       2.988   5.598  18.465  0.00  0.00    +0.000 A 
ATOM     20  C   UNL     1       2.706   6.954  18.077  0.00  0.00    +0.000 A 
ATOM     21  C   UNL     1       2.129   7.965  18.930  0.00  0.00    +0.000 A 
BRANCH  16  23
ATOM     22  C   UNL     1       0.159   8.578  21.600  0.00  0.00    +0.000 C 
ATOM     23  O   UNL     1       1.503   8.266  21.283  0.00  0.00    +0.000 OA
ENDBRANCH  16  23
BRANCH  18  24
ATOM     24  O   UNL     1       2.815   3.928  20.322  0.00  0.00    +0.000 OA
ATOM     25  C   UNL     1       1.915   3.456  21.334  0.00  0.00    +0.000 C 
ENDBRANCH  18  24
BRANCH  19  26
ATOM     26  O   UNL     1       3.582   4.656  17.675  0.00  0.00    +0.000 OA
ATOM     27  C   UNL     1       4.994   4.621  17.590  0.00  0.00    +0.000 C 
ENDBRANCH  19  26
ENDBRANCH  15  21
ENDBRANCH   1  15
TORSDOF 6
ENDMDL
MODEL 5
REMARK VINA RESULT:      -6.9      2.956      4.274
REMARK  Name = 
REMARK  9 active torsions:
REMARK  status: ('A' for Active; 'I' for Inactive)
REMARK    1  A    between atoms: C_1  and  O_2
REMARK    2  A    between atoms: O_2  and  C_3
REMARK    3  A    between atoms: C_5  and  O_6
REMARK    4  A    between atoms: O_6  and  C_7
REMARK    5  A    between atoms: C_8  and  O_9
REMARK    6  A    between atoms: O_9  and  C_10
REMARK    7  A    between atoms: C_12  and  C_13
REMARK    8  A    between atoms: C_13  and  N_14
REMARK    9  A    between atoms: C_18  and  C_19
REMARK                            x       y       z     vdW  Elec       q    Type
REMARK                         _______ _______ _______ _____ _____    ______ ____
ROOT
ATOM      1  N   UNL     1       2.310   5.164  20.961  0.00  0.00    +0.000 NA
ATOM      2  C   UNL     1       1.993   3.829  21.523  0.00  0.00    +0.000 C 
ATOM      3  C   UNL     1       2.934   2.623  21.305  0.00  0.00    +0.000 C 
ATOM      4  C   UNL     1       3.340   2.450  19.874  0.00  0.00    +0.000 C 
ATOM      5  C   UNL     1       3.900   3.764  19.327  0.00  0.00    +0.000 C 
ATOM      6  C   UNL     1       3.065   5.040  19.685  0.00  0.00    +0.000 C 
ENDROOT
BRANCH   5   7
ATOM      7  C   UNL     1       3.962   3.606  17.797  0.00  0.00    +0.000 C 
ATOM      8  O   UNL     1       2.992   3.150  17.180  0.00  0.00    +0.000 OA
ATOM      9  N   UNL     1       5.092   4.032  17.105  0.00  0.00    +0.000 N 
ATOM     10  C   UNL     1       4.906   4.219  15.664  0.00  0.00    +0.000 C 
ATOM     11  C   UNL     1       6.208   4.060  14.867  0.00  0.00    +0.000 C 
ATOM     12  C   UNL     1       7.323   4.909  15.461  0.00  0.00    +0.000 C 
ATOM     13  C   UNL     1       7.513   4.564  16.933  0.00  0.00    +0.000 C 
ATOM     14  C   UNL     1       6.223   4.722  17.725  0.00  0.00    +0.000 C 
ENDBRANCH   5   7
BRANCH   1  15
ATOM     15  C   UNL     1       1.208   6.265  20.877  0.00  0.00    +0.000 C 
BRANCH  15  21
ATOM     16  C   UNL     1       1.456   8.303  19.036  0.00  0.00    +0.000 A 
ATOM     17  C   UNL     1       1.399   9.708  18.749  0.00  0.00    +0.000 A 
ATOM     18  C   UNL     1       1.199  10.687  19.734  0.00  0.00    +0.000 A 
ATOM     19  C   UNL     1       0.961  10.245  21.040  0.00  0.00    +0.000 A 
ATOM     20  C   UNL     1       0.957   8.833  21.310  0.00  0.00    +0.000 A 
ATOM     21  C   UNL     1       1.264   7.798  20.352  0.00  0.00    +0.000 A 
BRANCH  16  23
ATOM     22  C   UNL     1       3.387   8.029  17.661  0.00  0.00    +0.000 C 
ATOM     23  O   UNL     1       2.100   7.590  18.054  0.00  0.00    +0.000 OA
ENDBRANCH  16  23
BRANCH  18  24
ATOM     24  O   UNL     1       1.281  11.985  19.268  0.00  0.00    +0.000 OA
ATOM     25  C   UNL     1       2.286  12.338  18.308  0.00  0.00    +0.000 C 
ENDBRANCH  18  24
BRANCH  19  26
ATOM     26  O   UNL     1       0.722  11.228  21.959  0.00  0.00    +0.000 OA
ATOM     27  C   UNL     1      -0.613  11.617  22.219  0.00  0.00    +0.000 C 
ENDBRANCH  19  26
ENDBRANCH  15  21
ENDBRANCH   1  15
TORSDOF 6
ENDMDL
MODEL 6
REMARK VINA RESULT:      -6.9      1.453      1.869
REMARK  Name = 
REMARK  9 active torsions:
REMARK  status: ('A' for Active; 'I' for Inactive)
REMARK    1  A    between atoms: C_1  and  O_2
REMARK    2  A    between atoms: O_2  and  C_3
REMARK    3  A    between atoms: C_5  and  O_6
REMARK    4  A    between atoms: O_6  and  C_7
REMARK    5  A    between atoms: C_8  and  O_9
REMARK    6  A    between atoms: O_9  and  C_10
REMARK    7  A    between atoms: C_12  and  C_13
REMARK    8  A    between atoms: C_13  and  N_14
REMARK    9  A    between atoms: C_18  and  C_19
REMARK                            x       y       z     vdW  Elec       q    Type
REMARK                         _______ _______ _______ _____ _____    ______ ____
ROOT
ATOM      1  N   UNL     1       2.396   7.153  19.737  0.00  0.00    +0.000 NA
ATOM      2  C   UNL     1       1.408   6.291  20.430  0.00  0.00    +0.000 C 
ATOM      3  C   UNL     1       1.700   4.799  20.706  0.00  0.00    +0.000 C 
ATOM      4  C   UNL     1       2.204   4.069  19.500  0.00  0.00    +0.000 C 
ATOM      5  C   UNL     1       3.391   4.818  18.893  0.00  0.00    +0.000 C 
ATOM      6  C   UNL     1       3.201   6.366  18.764  0.00  0.00    +0.000 C 
ENDROOT
BRANCH   5   7
ATOM      7  C   UNL     1       3.618   4.212  17.495  0.00  0.00    +0.000 C 
ATOM      8  O   UNL     1       2.702   3.609  16.924  0.00  0.00    +0.000 OA
ATOM      9  N   UNL     1       4.840   4.396  16.855  0.00  0.00    +0.000 N 
ATOM     10  C   UNL     1       4.830   4.150  15.411  0.00  0.00    +0.000 C 
ATOM     11  C   UNL     1       6.203   3.741  14.863  0.00  0.00    +0.000 C 
ATOM     12  C   UNL     1       7.286   4.710  15.317  0.00  0.00    +0.000 C 
ATOM     13  C   UNL     1       7.289   4.814  16.837  0.00  0.00    +0.000 C 
ATOM     14  C   UNL     1       5.928   5.221  17.382  0.00  0.00    +0.000 C 
ENDBRANCH   5   7
BRANCH   1  15
ATOM     15  C   UNL     1       1.964   8.533  19.151  0.00  0.00    +0.000 C 
BRANCH  15  21
ATOM     16  C   UNL     1       0.356  10.004  20.840  0.00  0.00    +0.000 A 
ATOM     17  C   UNL     1      -0.700  10.963  20.999  0.00  0.00    +0.000 A 
ATOM     18  C   UNL     1      -1.441  11.477  19.923  0.00  0.00    +0.000 A 
ATOM     19  C   UNL     1      -1.059  11.087  18.635  0.00  0.00    +0.000 A 
ATOM     20  C   UNL     1       0.041  10.174  18.479  0.00  0.00    +0.000 A 
ATOM     21  C   UNL     1       0.759   9.539  19.557  0.00  0.00    +0.000 A 
BRANCH  16  23
ATOM     22  C   UNL     1      -0.155   9.629  23.141  0.00  0.00    +0.000 C 
ATOM     23  O   UNL     1       0.617   9.312  21.997  0.00  0.00    +0.000 OA
ENDBRANCH  16  23
BRANCH  18  24
ATOM     24  O   UNL     1      -2.480  12.308  20.297  0.00  0.00    +0.000 OA
ATOM     25  C   UNL     1      -2.205  13.643  20.739  0.00  0.00    +0.000 C 
ENDBRANCH  18  24
BRANCH  19  26
ATOM     26  O   UNL     1      -1.773  11.648  17.615  0.00  0.00    +0.000 OA
ATOM     27  C   UNL     1      -2.733  10.862  16.934  0.00  0.00    +0.000 C 
ENDBRANCH  19  26
ENDBRANCH  15  21
ENDBRANCH   1  15
TORSDOF 6
ENDMDL
MODEL 7
REMARK VINA RESULT:      -6.8      1.488      2.989
REMARK  Name = 
REMARK  9 active torsions:
REMARK  status: ('A' for Active; 'I' for Inactive)
REMARK    1  A    between atoms: C_1  and  O_2
REMARK    2  A    between atoms: O_2  and  C_3
REMARK    3  A    between atoms: C_5  and  O_6
REMARK    4  A    between atoms: O_6  and  C_7
REMARK    5  A    between atoms: C_8  and  O_9
REMARK    6  A    between atoms: O_9  and  C_10
REMARK    7  A    between atoms: C_12  and  C_13
REMARK    8  A    between atoms: C_13  and  N_14
REMARK    9  A    between atoms: C_18  and  C_19
REMARK                            x       y       z     vdW  Elec       q    Type
REMARK                         _______ _______ _______ _____ _____    ______ ____
ROOT
ATOM      1  N   UNL     1       0.799   9.596  19.039  0.00  0.00    +0.000 NA
ATOM      2  C   UNL     1       0.296   9.439  20.425  0.00  0.00    +0.000 C 
ATOM      3  C   UNL     1       1.118   8.687  21.496  0.00  0.00    +0.000 C 
ATOM      4  C   UNL     1       1.622   7.359  21.021  0.00  0.00    +0.000 C 
ATOM      5  C   UNL     1       2.362   7.525  19.693  0.00  0.00    +0.000 C 
ATOM      6  C   UNL     1       1.641   8.435  18.642  0.00  0.00    +0.000 C 
ENDROOT
BRANCH   5   7
ATOM      7  C   UNL     1       2.535   6.110  19.111  0.00  0.00    +0.000 C 
ATOM      8  O   UNL     1       1.818   5.184  19.509  0.00  0.00    +0.000 OA
ATOM      9  N   UNL     1       3.460   5.890  18.095  0.00  0.00    +0.000 N 
ATOM     10  C   UNL     1       3.274   4.649  17.341  0.00  0.00    +0.000 C 
ATOM     11  C   UNL     1       4.575   4.128  16.715  0.00  0.00    +0.000 C 
ATOM     12  C   UNL     1       5.286   5.224  15.934  0.00  0.00    +0.000 C 
ATOM     13  C   UNL     1       5.531   6.430  16.834  0.00  0.00    +0.000 C 
ATOM     14  C   UNL     1       4.242   6.948  17.454  0.00  0.00    +0.000 C 
ENDBRANCH   5   7
BRANCH   1  15
ATOM     15  C   UNL     1      -0.168  10.030  17.894  0.00  0.00    +0.000 C 
BRANCH  15  21
ATOM     16  C   UNL     1      -2.824  10.105  17.156  0.00  0.00    +0.000 A 
ATOM     17  C   UNL     1      -4.144  10.622  17.382  0.00  0.00    +0.000 A 
ATOM     18  C   UNL     1      -4.430  11.611  18.336  0.00  0.00    +0.000 A 
ATOM     19  C   UNL     1      -3.379  12.039  19.154  0.00  0.00    +0.000 A 
ATOM     20  C   UNL     1      -2.071  11.471  18.964  0.00  0.00    +0.000 A 
ATOM     21  C   UNL     1      -1.709  10.534  17.928  0.00  0.00    +0.000 A 
BRANCH  16  23
ATOM     22  C   UNL     1      -3.063  10.289  14.789  0.00  0.00    +0.000 C 
ATOM     23  O   UNL     1      -2.691   9.523  15.920  0.00  0.00    +0.000 OA
ENDBRANCH  16  23
BRANCH  18  24
ATOM     24  O   UNL     1      -5.742  12.046  18.325  0.00  0.00    +0.000 OA
ATOM     25  C   UNL     1      -6.223  12.837  17.230  0.00  0.00    +0.000 C 
ENDBRANCH  18  24
BRANCH  19  26
ATOM     26  O   UNL     1      -3.710  12.965  20.101  0.00  0.00    +0.000 OA
ATOM     27  C   UNL     1      -2.681  13.569  20.862  0.00  0.00    +0.000 C 
ENDBRANCH  19  26
ENDBRANCH  15  21
ENDBRANCH   1  15
TORSDOF 6
ENDMDL
MODEL 8
REMARK VINA RESULT:      -6.8      0.844      2.571
REMARK  Name = 
REMARK  9 active torsions:
REMARK  status: ('A' for Active; 'I' for Inactive)
REMARK    1  A    between atoms: C_1  and  O_2
REMARK    2  A    between atoms: O_2  and  C_3
REMARK    3  A    between atoms: C_5  and  O_6
REMARK    4  A    between atoms: O_6  and  C_7
REMARK    5  A    between atoms: C_8  and  O_9
REMARK    6  A    between atoms: O_9  and  C_10
REMARK    7  A    between atoms: C_12  and  C_13
REMARK    8  A    between atoms: C_13  and  N_14
REMARK    9  A    between atoms: C_18  and  C_19
REMARK                            x       y       z     vdW  Elec       q    Type
REMARK                         _______ _______ _______ _____ _____    ______ ____
ROOT
ATOM      1  N   UNL     1       1.616   8.825  18.993  0.00  0.00    +0.000 NA
ATOM      2  C   UNL     1       1.012   8.199  20.195  0.00  0.00    +0.000 C 
ATOM      3  C   UNL     1       1.746   7.083  20.973  0.00  0.00    +0.000 C 
ATOM      4  C   UNL     1       2.268   5.998  20.084  0.00  0.00    +0.000 C 
ATOM      5  C   UNL     1       3.104   6.602  18.955  0.00  0.00    +0.000 C 
ATOM      6  C   UNL     1       2.471   7.854  18.259  0.00  0.00    +0.000 C 
ENDROOT
BRANCH   5   7
ATOM      7  C   UNL     1       3.303   5.485  17.914  0.00  0.00    +0.000 C 
ATOM      8  O   UNL     1       2.342   4.793  17.555  0.00  0.00    +0.000 OA
ATOM      9  N   UNL     1       4.555   5.293  17.338  0.00  0.00    +0.000 N 
ATOM     10  C   UNL     1       4.558   4.510  16.101  0.00  0.00    +0.000 C 
ATOM     11  C   UNL     1       5.894   3.797  15.847  0.00  0.00    +0.000 C 
ATOM     12  C   UNL     1       7.064   4.763  15.970  0.00  0.00    +0.000 C 
ATOM     13  C   UNL     1       7.035   5.447  17.331  0.00  0.00    +0.000 C 
ATOM     14  C   UNL     1       5.712   6.155  17.584  0.00  0.00    +0.000 C 
ENDBRANCH   5   7
BRANCH   1  15
ATOM     15  C   UNL     1       0.738   9.675  18.023  0.00  0.00    +0.000 C 
BRANCH  15  21
ATOM     16  C   UNL     1      -1.935  10.145  17.539  0.00  0.00    +0.000 A 
ATOM     17  C   UNL     1      -3.148  10.816  17.912  0.00  0.00    +0.000 A 
ATOM     18  C   UNL     1      -3.214  11.774  18.936  0.00  0.00    +0.000 A 
ATOM     19  C   UNL     1      -2.048  12.008  19.673  0.00  0.00    +0.000 A 
ATOM     20  C   UNL     1      -0.851  11.286  19.335  0.00  0.00    +0.000 A 
ATOM     21  C   UNL     1      -0.710  10.375  18.224  0.00  0.00    +0.000 A 
BRANCH  16  23
ATOM     22  C   UNL     1      -2.881  10.231  15.350  0.00  0.00    +0.000 C 
ATOM     23  O   UNL     1      -1.989   9.627  16.268  0.00  0.00    +0.000 OA
ENDBRANCH  16  23
BRANCH  18  24
ATOM     24  O   UNL     1      -4.449  12.378  19.068  0.00  0.00    +0.000 OA
ATOM     25  C   UNL     1      -5.643  11.632  18.794  0.00  0.00    +0.000 C 
ENDBRANCH  18  24
BRANCH  19  26
ATOM     26  O   UNL     1      -2.167  12.911  20.691  0.00  0.00    +0.000 OA
ATOM     27  C   UNL     1      -2.337  12.437  22.014  0.00  0.00    +0.000 C 
ENDBRANCH  19  26
ENDBRANCH  15  21
ENDBRANCH   1  15
TORSDOF 6
ENDMDL
MODEL 9
REMARK VINA RESULT:      -6.8      3.650      8.786
REMARK  Name = 
REMARK  9 active torsions:
REMARK  status: ('A' for Active; 'I' for Inactive)
REMARK    1  A    between atoms: C_1  and  O_2
REMARK    2  A    between atoms: O_2  and  C_3
REMARK    3  A    between atoms: C_5  and  O_6
REMARK    4  A    between atoms: O_6  and  C_7
REMARK    5  A    between atoms: C_8  and  O_9
REMARK    6  A    between atoms: O_9  and  C_10
REMARK    7  A    between atoms: C_12  and  C_13
REMARK    8  A    between atoms: C_13  and  N_14
REMARK    9  A    between atoms: C_18  and  C_19
REMARK                            x       y       z     vdW  Elec       q    Type
REMARK                         _______ _______ _______ _____ _____    ______ ____
ROOT
ATOM      1  N   UNL     1       0.324   9.557  21.410  0.00  0.00    +0.000 NA
ATOM      2  C   UNL     1      -0.463   9.901  22.619  0.00  0.00    +0.000 C 
ATOM      3  C   UNL     1      -1.265  11.219  22.707  0.00  0.00    +0.000 C 
ATOM      4  C   UNL     1      -0.463  12.418  22.307  0.00  0.00    +0.000 C 
ATOM      5  C   UNL     1       0.178  12.187  20.938  0.00  0.00    +0.000 C 
ATOM      6  C   UNL     1       0.846  10.784  20.747  0.00  0.00    +0.000 C 
ENDROOT
BRANCH   5   7
ATOM      7  C   UNL     1       1.241  13.287  20.763  0.00  0.00    +0.000 C 
ATOM      8  O   UNL     1       2.367  13.145  21.254  0.00  0.00    +0.000 OA
ATOM      9  N   UNL     1       0.947  14.415  20.003  0.00  0.00    +0.000 N 
ATOM     10  C   UNL     1       2.110  15.189  19.562  0.00  0.00    +0.000 C 
ATOM     11  C   UNL     1       1.785  16.667  19.311  0.00  0.00    +0.000 C 
ATOM     12  C   UNL     1       0.566  16.817  18.411  0.00  0.00    +0.000 C 
ATOM     13  C   UNL     1      -0.618  16.069  19.011  0.00  0.00    +0.000 C 
ATOM     14  C   UNL     1      -0.298  14.602  19.259  0.00  0.00    +0.000 C 
ENDBRANCH   5   7
BRANCH   1  15
ATOM     15  C   UNL     1       1.397   8.426  21.463  0.00  0.00    +0.000 C 
BRANCH  15  21
ATOM     16  C   UNL     1       2.473   7.214  19.232  0.00  0.00    +0.000 A 
ATOM     17  C   UNL     1       2.720   6.009  18.492  0.00  0.00    +0.000 A 
ATOM     18  C   UNL     1       2.210   4.756  18.868  0.00  0.00    +0.000 A 
ATOM     19  C   UNL     1       1.500   4.686  20.072  0.00  0.00    +0.000 A 
ATOM     20  C   UNL     1       1.310   5.886  20.841  0.00  0.00    +0.000 A 
ATOM     21  C   UNL     1       1.722   7.210  20.440  0.00  0.00    +0.000 A 
BRANCH  16  23
ATOM     22  C   UNL     1       1.553   8.812  17.718  0.00  0.00    +0.000 C 
ATOM     23  O   UNL     1       2.655   8.344  18.475  0.00  0.00    +0.000 OA
ENDBRANCH  16  23
BRANCH  18  24
ATOM     24  O   UNL     1       2.474   3.743  17.966  0.00  0.00    +0.000 OA
ATOM     25  C   UNL     1       3.632   3.820  17.124  0.00  0.00    +0.000 C 
ENDBRANCH  18  24
BRANCH  19  26
ATOM     26  O   UNL     1       1.064   3.442  20.425  0.00  0.00    +0.000 OA
ATOM     27  C   UNL     1       1.641   2.803  21.549  0.00  0.00    +0.000 C 
ENDBRANCH  19  26
ENDBRANCH  15  21
ENDBRANCH   1  15
TORSDOF 6
ENDMDL
