MODEL 1
REMARK VINA RESULT:      -8.4      0.000      0.000
REMARK  Name = 
REMARK  3 active torsions:
REMARK  status: ('A' for Active; 'I' for Inactive)
REMARK    1  A    between atoms: C_3  and  C_4
REMARK    2  A    between atoms: C_4  and  C_5
REMARK    3  A    between atoms: C_14  and  C_15
REMARK                            x       y       z     vdW  Elec       q    Type
REMARK                         _______ _______ _______ _____ _____    ______ ____
ROOT
ATOM      1  O   UNL     1       5.530   6.947  14.884  0.00  0.00    +0.000 OA
ATOM      2  C   UNL     1       5.377   5.932  15.552  0.00  0.00    +0.000 A 
ATOM      3  C   UNL     1       5.996   4.606  15.220  0.00  0.00    +0.000 A 
ATOM      4  C   UNL     1       5.736   3.567  16.033  0.00  0.00    +0.000 A 
ATOM      5  N   UNL     1       4.943   3.640  17.150  0.00  0.00    +0.000 N 
ATOM      6  C   UNL     1       4.309   4.790  17.477  0.00  0.00    +0.000 A 
ATOM      7  C   UNL     1       3.405   5.162  18.453  0.00  0.00    +0.000 A 
ATOM      8  C   UNL     1       3.205   6.545  18.208  0.00  0.00    +0.000 A 
ATOM      9  N   UNL     1       3.888   7.007  17.158  0.00  0.00    +0.000 NA
ATOM     10  N   UNL     1       4.554   5.912  16.699  0.00  0.00    +0.000 N 
ATOM     11  H   UNL     1       4.876   2.801  17.724  0.00  0.00    +0.000 HD
ENDROOT
BRANCH   7  12
ATOM     12  C   UNL     1       2.828   4.292  19.465  0.00  0.00    +0.000 A 
ATOM     13  C   UNL     1       1.443   4.294  19.691  0.00  0.00    +0.000 A 
ATOM     14  C   UNL     1       0.882   3.455  20.659  0.00  0.00    +0.000 A 
ATOM     15  C   UNL     1       1.703   2.621  21.407  0.00  0.00    +0.000 A 
ATOM     16  F   UNL     1       1.167   1.824  22.340  0.00  0.00    +0.000 F 
ATOM     17  C   UNL     1       3.075   2.595  21.194  0.00  0.00    +0.000 A 
ATOM     18  C   UNL     1       3.633   3.416  20.214  0.00  0.00    +0.000 A 
ENDBRANCH   7  12
BRANCH   3  19
ATOM     19  C   UNL     1       6.777   4.496  13.948  0.00  0.00    +0.000 C 
BRANCH  19  20
ATOM     20  C   UNL     1       6.091   3.715  12.854  0.00  0.00    +0.000 A 
ATOM     21  C   UNL     1       6.736   2.636  12.231  0.00  0.00    +0.000 A 
ATOM     22  C   UNL     1       6.062   1.856  11.289  0.00  0.00    +0.000 A 
ATOM     23  C   UNL     1       4.744   2.153  10.952  0.00  0.00    +0.000 A 
ATOM     24  C   UNL     1       4.107   3.248  11.534  0.00  0.00    +0.000 A 
ATOM     25  C   UNL     1       4.778   4.030  12.475  0.00  0.00    +0.000 A 
ENDBRANCH  19  20
ENDBRANCH   3  19
TORSDOF 3
ENDMDL
MODEL 2
REMARK VINA RESULT:      -8.3      0.561      1.333
REMARK  Name = 
REMARK  3 active torsions:
REMARK  status: ('A' for Active; 'I' for Inactive)
REMARK    1  A    between atoms: C_3  and  C_4
REMARK    2  A    between atoms: C_4  and  C_5
REMARK    3  A    between atoms: C_14  and  C_15
REMARK                            x       y       z     vdW  Elec       q    Type
REMARK                         _______ _______ _______ _____ _____    ______ ____
ROOT
ATOM      1  O   UNL     1       5.554   6.936  14.960  0.00  0.00    +0.000 OA
ATOM      2  C   UNL     1       5.315   5.931  15.618  0.00  0.00    +0.000 A 
ATOM      3  C   UNL     1       5.849   4.567  15.294  0.00  0.00    +0.000 A 
ATOM      4  C   UNL     1       5.498   3.544  16.093  0.00  0.00    +0.000 A 
ATOM      5  N   UNL     1       4.683   3.667  17.191  0.00  0.00    +0.000 N 
ATOM      6  C   UNL     1       4.122   4.857  17.509  0.00  0.00    +0.000 A 
ATOM      7  C   UNL     1       3.221   5.287  18.463  0.00  0.00    +0.000 A 
ATOM      8  C   UNL     1       3.123   6.681  18.222  0.00  0.00    +0.000 A 
ATOM      9  N   UNL     1       3.863   7.100  17.193  0.00  0.00    +0.000 NA
ATOM     10  N   UNL     1       4.464   5.963  16.744  0.00  0.00    +0.000 N 
ATOM     11  H   UNL     1       4.544   2.833  17.758  0.00  0.00    +0.000 HD
ENDROOT
BRANCH   7  12
ATOM     12  C   UNL     1       2.560   4.455  19.455  0.00  0.00    +0.000 A 
ATOM     13  C   UNL     1       2.900   4.570  20.813  0.00  0.00    +0.000 A 
ATOM     14  C   UNL     1       2.263   3.776  21.772  0.00  0.00    +0.000 A 
ATOM     15  C   UNL     1       1.293   2.863  21.377  0.00  0.00    +0.000 A 
ATOM     16  F   UNL     1       0.690   2.097  22.295  0.00  0.00    +0.000 F 
ATOM     17  C   UNL     1       0.934   2.739  20.043  0.00  0.00    +0.000 A 
ATOM     18  C   UNL     1       1.554   3.545  19.087  0.00  0.00    +0.000 A 
ENDBRANCH   7  12
BRANCH   3  19
ATOM     19  C   UNL     1       6.653   4.408  14.041  0.00  0.00    +0.000 C 
BRANCH  19  20
ATOM     20  C   UNL     1       5.971   3.616  12.952  0.00  0.00    +0.000 A 
ATOM     21  C   UNL     1       4.675   3.946  12.530  0.00  0.00    +0.000 A 
ATOM     22  C   UNL     1       4.087   3.275  11.457  0.00  0.00    +0.000 A 
ATOM     23  C   UNL     1       4.782   2.260  10.803  0.00  0.00    +0.000 A 
ATOM     24  C   UNL     1       6.055   1.896  11.240  0.00  0.00    +0.000 A 
ATOM     25  C   UNL     1       6.645   2.565  12.314  0.00  0.00    +0.000 A 
ENDBRANCH  19  20
ENDBRANCH   3  19
TORSDOF 3
ENDMDL
MODEL 3
REMARK VINA RESULT:      -8.2      5.026      8.419
REMARK  Name = 
REMARK  3 active torsions:
REMARK  status: ('A' for Active; 'I' for Inactive)
REMARK    1  A    between atoms: C_3  and  C_4
REMARK    2  A    between atoms: C_4  and  C_5
REMARK    3  A    between atoms: C_14  and  C_15
REMARK                            x       y       z     vdW  Elec       q    Type
REMARK                         _______ _______ _______ _____ _____    ______ ____
ROOT
ATOM      1  O   UNL     1       0.307   9.163  21.029  0.00  0.00    +0.000 OA
ATOM      2  C   UNL     1       0.968   9.061  20.003  0.00  0.00    +0.000 A 
ATOM      3  C   UNL     1       1.001  10.095  18.917  0.00  0.00    +0.000 A 
ATOM      4  C   UNL     1       1.762   9.853  17.836  0.00  0.00    +0.000 A 
ATOM      5  N   UNL     1       2.516   8.719  17.661  0.00  0.00    +0.000 N 
ATOM      6  C   UNL     1       2.490   7.720  18.575  0.00  0.00    +0.000 A 
ATOM      7  C   UNL     1       3.045   6.459  18.657  0.00  0.00    +0.000 A 
ATOM      8  C   UNL     1       2.618   5.992  19.926  0.00  0.00    +0.000 A 
ATOM      9  N   UNL     1       1.839   6.856  20.581  0.00  0.00    +0.000 NA
ATOM     10  N   UNL     1       1.748   7.916  19.731  0.00  0.00    +0.000 N 
ATOM     11  H   UNL     1       3.104   8.679  16.831  0.00  0.00    +0.000 HD
ENDROOT
BRANCH   7  12
ATOM     12  C   UNL     1       3.864   5.814  17.644  0.00  0.00    +0.000 A 
ATOM     13  C   UNL     1       3.765   4.430  17.431  0.00  0.00    +0.000 A 
ATOM     14  C   UNL     1       4.546   3.806  16.454  0.00  0.00    +0.000 A 
ATOM     15  C   UNL     1       5.432   4.560  15.694  0.00  0.00    +0.000 A 
ATOM     16  F   UNL     1       6.186   3.960  14.765  0.00  0.00    +0.000 F 
ATOM     17  C   UNL     1       5.540   5.931  15.880  0.00  0.00    +0.000 A 
ATOM     18  C   UNL     1       4.746   6.559  16.841  0.00  0.00    +0.000 A 
ENDBRANCH   7  12
BRANCH   3  19
ATOM     19  C   UNL     1       0.102  11.285  19.054  0.00  0.00    +0.000 C 
BRANCH  19  20
ATOM     20  C   UNL     1      -1.291  11.088  18.508  0.00  0.00    +0.000 A 
ATOM     21  C   UNL     1      -1.556  10.081  17.568  0.00  0.00    +0.000 A 
ATOM     22  C   UNL     1      -2.863   9.839  17.139  0.00  0.00    +0.000 A 
ATOM     23  C   UNL     1      -3.914  10.606  17.637  0.00  0.00    +0.000 A 
ATOM     24  C   UNL     1      -3.656  11.636  18.541  0.00  0.00    +0.000 A 
ATOM     25  C   UNL     1      -2.351  11.882  18.969  0.00  0.00    +0.000 A 
ENDBRANCH  19  20
ENDBRANCH   3  19
TORSDOF 3
ENDMDL
MODEL 4
REMARK VINA RESULT:      -8.1      4.966      8.403
REMARK  Name = 
REMARK  3 active torsions:
REMARK  status: ('A' for Active; 'I' for Inactive)
REMARK    1  A    between atoms: C_3  and  C_4
REMARK    2  A    between atoms: C_4  and  C_5
REMARK    3  A    between atoms: C_14  and  C_15
REMARK                            x       y       z     vdW  Elec       q    Type
REMARK                         _______ _______ _______ _____ _____    ______ ____
ROOT
ATOM      1  O   UNL     1       0.389   9.013  21.031  0.00  0.00    +0.000 OA
ATOM      2  C   UNL     1       1.037   8.919  19.996  0.00  0.00    +0.000 A 
ATOM      3  C   UNL     1       1.051   9.959  18.915  0.00  0.00    +0.000 A 
ATOM      4  C   UNL     1       1.799   9.724  17.823  0.00  0.00    +0.000 A 
ATOM      5  N   UNL     1       2.553   8.594  17.631  0.00  0.00    +0.000 N 
ATOM      6  C   UNL     1       2.542   7.590  18.540  0.00  0.00    +0.000 A 
ATOM      7  C   UNL     1       3.101   6.329  18.607  0.00  0.00    +0.000 A 
ATOM      8  C   UNL     1       2.693   5.854  19.880  0.00  0.00    +0.000 A 
ATOM      9  N   UNL     1       1.921   6.713  20.550  0.00  0.00    +0.000 NA
ATOM     10  N   UNL     1       1.815   7.777  19.707  0.00  0.00    +0.000 N 
ATOM     11  H   UNL     1       3.130   8.560  16.793  0.00  0.00    +0.000 HD
ENDROOT
BRANCH   7  12
ATOM     12  C   UNL     1       3.908   5.693  17.579  0.00  0.00    +0.000 A 
ATOM     13  C   UNL     1       4.783   6.459  16.793  0.00  0.00    +0.000 A 
ATOM     14  C   UNL     1       5.566   5.851  15.807  0.00  0.00    +0.000 A 
ATOM     15  C   UNL     1       5.471   4.480  15.600  0.00  0.00    +0.000 A 
ATOM     16  F   UNL     1       6.215   3.900  14.649  0.00  0.00    +0.000 F 
ATOM     17  C   UNL     1       4.621   3.701  16.371  0.00  0.00    +0.000 A 
ATOM     18  C   UNL     1       3.854   4.303  17.370  0.00  0.00    +0.000 A 
ENDBRANCH   7  12
BRANCH   3  19
ATOM     19  C   UNL     1       0.152  11.145  19.072  0.00  0.00    +0.000 C 
BRANCH  19  20
ATOM     20  C   UNL     1      -1.249  10.946  18.547  0.00  0.00    +0.000 A 
ATOM     21  C   UNL     1      -2.315  11.712  19.043  0.00  0.00    +0.000 A 
ATOM     22  C   UNL     1      -3.590  11.594  18.487  0.00  0.00    +0.000 A 
ATOM     23  C   UNL     1      -3.815  10.702  17.441  0.00  0.00    +0.000 A 
ATOM     24  C   UNL     1      -2.772   9.907  16.968  0.00  0.00    +0.000 A 
ATOM     25  C   UNL     1      -1.497  10.021  17.523  0.00  0.00    +0.000 A 
ENDBRANCH  19  20
ENDBRANCH   3  19
TORSDOF 3
ENDMDL
MODEL 5
REMARK VINA RESULT:      -8.0      1.288      1.905
REMARK  Name = 
REMARK  3 active torsions:
REMARK  status: ('A' for Active; 'I' for Inactive)
REMARK    1  A    between atoms: C_3  and  C_4
REMARK    2  A    between atoms: C_4  and  C_5
REMARK    3  A    between atoms: C_14  and  C_15
REMARK                            x       y       z     vdW  Elec       q    Type
REMARK                         _______ _______ _______ _____ _____    ______ ____
ROOT
ATOM      1  O   UNL     1       7.814   6.094  15.685  0.00  0.00    +0.000 OA
ATOM      2  C   UNL     1       6.907   5.319  15.966  0.00  0.00    +0.000 A 
ATOM      3  C   UNL     1       6.274   4.376  14.986  0.00  0.00    +0.000 A 
ATOM      4  C   UNL     1       5.278   3.586  15.424  0.00  0.00    +0.000 A 
ATOM      5  N   UNL     1       4.804   3.583  16.712  0.00  0.00    +0.000 N 
ATOM      6  C   UNL     1       5.292   4.448  17.633  0.00  0.00    +0.000 A 
ATOM      7  C   UNL     1       4.985   4.750  18.945  0.00  0.00    +0.000 A 
ATOM      8  C   UNL     1       5.943   5.738  19.289  0.00  0.00    +0.000 A 
ATOM      9  N   UNL     1       6.763   6.061  18.285  0.00  0.00    +0.000 NA
ATOM     10  N   UNL     1       6.342   5.273  17.258  0.00  0.00    +0.000 N 
ATOM     11  H   UNL     1       4.092   2.892  16.941  0.00  0.00    +0.000 HD
ENDROOT
BRANCH   7  12
ATOM     12  C   UNL     1       3.917   4.161  19.734  0.00  0.00    +0.000 A 
ATOM     13  C   UNL     1       4.023   2.837  20.189  0.00  0.00    +0.000 A 
ATOM     14  C   UNL     1       3.000   2.267  20.955  0.00  0.00    +0.000 A 
ATOM     15  C   UNL     1       1.869   3.014  21.259  0.00  0.00    +0.000 A 
ATOM     16  F   UNL     1       0.887   2.464  21.984  0.00  0.00    +0.000 F 
ATOM     17  C   UNL     1       1.746   4.327  20.829  0.00  0.00    +0.000 A 
ATOM     18  C   UNL     1       2.775   4.904  20.083  0.00  0.00    +0.000 A 
ENDBRANCH   7  12
BRANCH   3  19
ATOM     19  C   UNL     1       6.716   4.447  13.558  0.00  0.00    +0.000 C 
BRANCH  19  20
ATOM     20  C   UNL     1       5.955   3.543  12.618  0.00  0.00    +0.000 A 
ATOM     21  C   UNL     1       4.676   3.896  12.163  0.00  0.00    +0.000 A 
ATOM     22  C   UNL     1       4.017   3.107  11.219  0.00  0.00    +0.000 A 
ATOM     23  C   UNL     1       4.624   1.952  10.729  0.00  0.00    +0.000 A 
ATOM     24  C   UNL     1       5.878   1.570  11.205  0.00  0.00    +0.000 A 
ATOM     25  C   UNL     1       6.538   2.357  12.151  0.00  0.00    +0.000 A 
ENDBRANCH  19  20
ENDBRANCH   3  19
TORSDOF 3
ENDMDL
MODEL 6
REMARK VINA RESULT:      -8.0      3.204      4.440
REMARK  Name = 
REMARK  3 active torsions:
REMARK  status: ('A' for Active; 'I' for Inactive)
REMARK    1  A    between atoms: C_3  and  C_4
REMARK    2  A    between atoms: C_4  and  C_5
REMARK    3  A    between atoms: C_14  and  C_15
REMARK                            x       y       z     vdW  Elec       q    Type
REMARK                         _______ _______ _______ _____ _____    ______ ____
ROOT
ATOM      1  O   UNL     1       5.841   3.658  18.383  0.00  0.00    +0.000 OA
ATOM      2  C   UNL     1       5.351   4.718  18.014  0.00  0.00    +0.000 A 
ATOM      3  C   UNL     1       5.864   5.526  16.859  0.00  0.00    +0.000 A 
ATOM      4  C   UNL     1       5.239   6.680  16.568  0.00  0.00    +0.000 A 
ATOM      5  N   UNL     1       4.157   7.167  17.257  0.00  0.00    +0.000 N 
ATOM      6  C   UNL     1       3.677   6.518  18.344  0.00  0.00    +0.000 A 
ATOM      7  C   UNL     1       2.692   6.775  19.277  0.00  0.00    +0.000 A 
ATOM      8  C   UNL     1       2.720   5.629  20.112  0.00  0.00    +0.000 A 
ATOM      9  N   UNL     1       3.655   4.739  19.769  0.00  0.00    +0.000 NA
ATOM     10  N   UNL     1       4.256   5.304  18.685  0.00  0.00    +0.000 N 
ATOM     11  H   UNL     1       3.727   8.018  16.900  0.00  0.00    +0.000 HD
ENDROOT
BRANCH   7  12
ATOM     12  C   UNL     1       1.855   7.962  19.337  0.00  0.00    +0.000 A 
ATOM     13  C   UNL     1       1.561   8.678  18.166  0.00  0.00    +0.000 A 
ATOM     14  C   UNL     1       0.751   9.818  18.217  0.00  0.00    +0.000 A 
ATOM     15  C   UNL     1       0.243  10.247  19.436  0.00  0.00    +0.000 A 
ATOM     16  F   UNL     1      -0.525  11.343  19.485  0.00  0.00    +0.000 F 
ATOM     17  C   UNL     1       0.512   9.550  20.605  0.00  0.00    +0.000 A 
ATOM     18  C   UNL     1       1.302   8.401  20.553  0.00  0.00    +0.000 A 
ENDBRANCH   7  12
BRANCH   3  19
ATOM     19  C   UNL     1       7.105   5.052  16.169  0.00  0.00    +0.000 C 
BRANCH  19  20
ATOM     20  C   UNL     1       6.929   4.736  14.704  0.00  0.00    +0.000 A 
ATOM     21  C   UNL     1       7.763   5.321  13.739  0.00  0.00    +0.000 A 
ATOM     22  C   UNL     1       7.661   4.951  12.397  0.00  0.00    +0.000 A 
ATOM     23  C   UNL     1       6.717   4.005  12.004  0.00  0.00    +0.000 A 
ATOM     24  C   UNL     1       5.856   3.448  12.947  0.00  0.00    +0.000 A 
ATOM     25  C   UNL     1       5.954   3.817  14.290  0.00  0.00    +0.000 A 
ENDBRANCH  19  20
ENDBRANCH   3  19
TORSDOF 3
ENDMDL
MODEL 7
REMARK VINA RESULT:      -8.0      1.343      1.755
REMARK  Name = 
REMARK  3 active torsions:
REMARK  status: ('A' for Active; 'I' for Inactive)
REMARK    1  A    between atoms: C_3  and  C_4
REMARK    2  A    between atoms: C_4  and  C_5
REMARK    3  A    between atoms: C_14  and  C_15
REMARK                            x       y       z     vdW  Elec       q    Type
REMARK                         _______ _______ _______ _____ _____    ______ ____
ROOT
ATOM      1  O   UNL     1       7.933   6.110  15.674  0.00  0.00    +0.000 OA
ATOM      2  C   UNL     1       6.933   5.435  15.889  0.00  0.00    +0.000 A 
ATOM      3  C   UNL     1       6.144   4.737  14.821  0.00  0.00    +0.000 A 
ATOM      4  C   UNL     1       5.058   4.038  15.194  0.00  0.00    +0.000 A 
ATOM      5  N   UNL     1       4.624   3.918  16.491  0.00  0.00    +0.000 N 
ATOM      6  C   UNL     1       5.256   4.567  17.496  0.00  0.00    +0.000 A 
ATOM      7  C   UNL     1       5.032   4.720  18.850  0.00  0.00    +0.000 A 
ATOM      8  C   UNL     1       6.131   5.507  19.280  0.00  0.00    +0.000 A 
ATOM      9  N   UNL     1       6.961   5.853  18.293  0.00  0.00    +0.000 NA
ATOM     10  N   UNL     1       6.403   5.284  17.188  0.00  0.00    +0.000 N 
ATOM     11  H   UNL     1       3.827   3.306  16.656  0.00  0.00    +0.000 HD
ENDROOT
BRANCH   7  12
ATOM     12  C   UNL     1       3.912   4.177  19.602  0.00  0.00    +0.000 A 
ATOM     13  C   UNL     1       3.905   2.826  19.980  0.00  0.00    +0.000 A 
ATOM     14  C   UNL     1       2.833   2.300  20.708  0.00  0.00    +0.000 A 
ATOM     15  C   UNL     1       1.766   3.120  21.053  0.00  0.00    +0.000 A 
ATOM     16  F   UNL     1       0.736   2.613  21.742  0.00  0.00    +0.000 F 
ATOM     17  C   UNL     1       1.756   4.462  20.698  0.00  0.00    +0.000 A 
ATOM     18  C   UNL     1       2.835   4.993  19.990  0.00  0.00    +0.000 A 
ENDBRANCH   7  12
BRANCH   3  19
ATOM     19  C   UNL     1       6.552   4.949  13.397  0.00  0.00    +0.000 C 
BRANCH  19  20
ATOM     20  C   UNL     1       6.309   3.766  12.490  0.00  0.00    +0.000 A 
ATOM     21  C   UNL     1       7.379   2.987  12.027  0.00  0.00    +0.000 A 
ATOM     22  C   UNL     1       7.143   1.838  11.270  0.00  0.00    +0.000 A 
ATOM     23  C   UNL     1       5.838   1.464  10.959  0.00  0.00    +0.000 A 
ATOM     24  C   UNL     1       4.769   2.253  11.379  0.00  0.00    +0.000 A 
ATOM     25  C   UNL     1       5.002   3.404  12.135  0.00  0.00    +0.000 A 
ENDBRANCH  19  20
ENDBRANCH   3  19
TORSDOF 3
ENDMDL
MODEL 8
REMARK VINA RESULT:      -7.9      3.203      4.479
REMARK  Name = 
REMARK  3 active torsions:
REMARK  status: ('A' for Active; 'I' for Inactive)
REMARK    1  A    between atoms: C_3  and  C_4
REMARK    2  A    between atoms: C_4  and  C_5
REMARK    3  A    between atoms: C_14  and  C_15
REMARK                            x       y       z     vdW  Elec       q    Type
REMARK                         _______ _______ _______ _____ _____    ______ ____
ROOT
ATOM      1  O   UNL     1       5.255   3.326  17.929  0.00  0.00    +0.000 OA
ATOM      2  C   UNL     1       4.974   4.499  17.715  0.00  0.00    +0.000 A 
ATOM      3  C   UNL     1       5.738   5.390  16.780  0.00  0.00    +0.000 A 
ATOM      4  C   UNL     1       5.329   6.663  16.646  0.00  0.00    +0.000 A 
ATOM      5  N   UNL     1       4.255   7.203  17.308  0.00  0.00    +0.000 N 
ATOM      6  C   UNL     1       3.556   6.472  18.209  0.00  0.00    +0.000 A 
ATOM      7  C   UNL     1       2.514   6.732  19.077  0.00  0.00    +0.000 A 
ATOM      8  C   UNL     1       2.272   5.475  19.688  0.00  0.00    +0.000 A 
ATOM      9  N   UNL     1       3.100   4.512  19.277  0.00  0.00    +0.000 NA
ATOM     10  N   UNL     1       3.905   5.140  18.376  0.00  0.00    +0.000 N 
ATOM     11  H   UNL     1       4.002   8.161  17.074  0.00  0.00    +0.000 HD
ENDROOT
BRANCH   7  12
ATOM     12  C   UNL     1       1.860   8.015  19.273  0.00  0.00    +0.000 A 
ATOM     13  C   UNL     1       1.404   8.387  20.548  0.00  0.00    +0.000 A 
ATOM     14  C   UNL     1       0.780   9.623  20.744  0.00  0.00    +0.000 A 
ATOM     15  C   UNL     1       0.604  10.485  19.668  0.00  0.00    +0.000 A 
ATOM     16  F   UNL     1      -0.001  11.664  19.855  0.00  0.00    +0.000 F 
ATOM     17  C   UNL     1       1.056  10.143  18.401  0.00  0.00    +0.000 A 
ATOM     18  C   UNL     1       1.698   8.919  18.209  0.00  0.00    +0.000 A 
ENDBRANCH   7  12
BRANCH   3  19
ATOM     19  C   UNL     1       6.970   4.837  16.134  0.00  0.00    +0.000 C 
BRANCH  19  20
ATOM     20  C   UNL     1       6.858   4.623  14.644  0.00  0.00    +0.000 A 
ATOM     21  C   UNL     1       7.734   5.271  13.760  0.00  0.00    +0.000 A 
ATOM     22  C   UNL     1       7.690   4.996  12.392  0.00  0.00    +0.000 A 
ATOM     23  C   UNL     1       6.765   4.082  11.893  0.00  0.00    +0.000 A 
ATOM     24  C   UNL     1       5.863   3.463  12.757  0.00  0.00    +0.000 A 
ATOM     25  C   UNL     1       5.902   3.738  14.125  0.00  0.00    +0.000 A 
ENDBRANCH  19  20
ENDBRANCH   3  19
TORSDOF 3
ENDMDL
MODEL 9
REMARK VINA RESULT:      -7.9      5.446      7.813
REMARK  Name = 
REMARK  3 active torsions:
REMARK  status: ('A' for Active; 'I' for Inactive)
REMARK    1  A    between atoms: C_3  and  C_4
REMARK    2  A    between atoms: C_4  and  C_5
REMARK    3  A    between atoms: C_14  and  C_15
REMARK                            x       y       z     vdW  Elec       q    Type
REMARK                         _______ _______ _______ _____ _____    ______ ____
ROOT
ATOM      1  O   UNL     1       2.357   5.887  20.410  0.00  0.00    +0.000 OA
ATOM      2  C   UNL     1       2.246   6.849  19.660  0.00  0.00    +0.000 A 
ATOM      3  C   UNL     1       2.823   6.909  18.277  0.00  0.00    +0.000 A 
ATOM      4  C   UNL     1       2.637   8.033  17.563  0.00  0.00    +0.000 A 
ATOM      5  N   UNL     1       1.948   9.131  18.016  0.00  0.00    +0.000 N 
ATOM      6  C   UNL     1       1.450   9.166  19.274  0.00  0.00    +0.000 A 
ATOM      7  C   UNL     1       0.805  10.116  20.041  0.00  0.00    +0.000 A 
ATOM      8  C   UNL     1       0.541   9.436  21.257  0.00  0.00    +0.000 A 
ATOM      9  N   UNL     1       1.002   8.183  21.281  0.00  0.00    +0.000 NA
ATOM     10  N   UNL     1       1.580   8.028  20.058  0.00  0.00    +0.000 N 
ATOM     11  H   UNL     1       1.816   9.897  17.358  0.00  0.00    +0.000 HD
ENDROOT
BRANCH   7  12
ATOM     12  C   UNL     1       0.497  11.479  19.639  0.00  0.00    +0.000 A 
ATOM     13  C   UNL     1      -0.489  11.724  18.671  0.00  0.00    +0.000 A 
ATOM     14  C   UNL     1      -0.793  13.034  18.285  0.00  0.00    +0.000 A 
ATOM     15  C   UNL     1      -0.108  14.097  18.859  0.00  0.00    +0.000 A 
ATOM     16  F   UNL     1      -0.394  15.350  18.482  0.00  0.00    +0.000 F 
ATOM     17  C   UNL     1       0.864  13.880  19.825  0.00  0.00    +0.000 A 
ATOM     18  C   UNL     1       1.154  12.575  20.226  0.00  0.00    +0.000 A 
ENDBRANCH   7  12
BRANCH   3  19
ATOM     19  C   UNL     1       3.661   5.758  17.816  0.00  0.00    +0.000 C 
BRANCH  19  20
ATOM     20  C   UNL     1       5.144   5.928  18.041  0.00  0.00    +0.000 A 
ATOM     21  C   UNL     1       5.910   6.738  17.190  0.00  0.00    +0.000 A 
ATOM     22  C   UNL     1       7.260   6.970  17.458  0.00  0.00    +0.000 A 
ATOM     23  C   UNL     1       7.860   6.388  18.572  0.00  0.00    +0.000 A 
ATOM     24  C   UNL     1       7.118   5.549  19.403  0.00  0.00    +0.000 A 
ATOM     25  C   UNL     1       5.769   5.312  19.135  0.00  0.00    +0.000 A 
ENDBRANCH  19  20
ENDBRANCH   3  19
TORSDOF 3
ENDMDL
