MODEL 1
REMARK VINA RESULT:      -7.5      0.000      0.000
REMARK  Name = 
REMARK  4 active torsions:
REMARK  status: ('A' for Active; 'I' for Inactive)
REMARK    1  A    between atoms: N_2  and  C_4
REMARK    2  A    between atoms: C_7  and  C_8
REMARK    3  A    between atoms: C_9  and  C_10
REMARK    4  A    between atoms: C_13  and  C_14
REMARK                            x       y       z     vdW  Elec       q    Type
REMARK                         _______ _______ _______ _____ _____    ______ ____
ROOT
ATOM      1  C   UNL     1       8.623   9.255  18.625  0.00  0.00    +0.000 C 
ATOM      2  C   UNL     1       8.045   8.584  17.615  0.00  0.00    +0.000 C 
ENDROOT
BRANCH   1   6
ATOM      3  C   UNL     1      10.269  13.181  18.225  0.00  0.00    +0.000 A 
ATOM      4  C   UNL     1       9.056  12.851  17.613  0.00  0.00    +0.000 A 
ATOM      5  C   UNL     1       8.541  11.560  17.768  0.00  0.00    +0.000 A 
ATOM      6  C   UNL     1       9.227  10.592  18.520  0.00  0.00    +0.000 A 
ATOM      7  C   UNL     1      10.431  10.947  19.143  0.00  0.00    +0.000 A 
ATOM      8  C   UNL     1      10.956  12.236  18.995  0.00  0.00    +0.000 A 
BRANCH   3  10
ATOM      9  O   UNL     1      11.230  14.855  16.939  0.00  0.00    +0.000 OA
ATOM     10  N   UNL     1      10.820  14.532  18.062  0.00  0.00    +0.000 N 
ATOM     11  O   UNL     1      10.843  15.269  19.057  0.00  0.00    +0.000 OA
ENDBRANCH   3  10
ENDBRANCH   1   6
BRANCH   2  12
ATOM     12  C   UNL     1       7.355   7.351  17.832  0.00  0.00    +0.000 A 
ATOM     13  C   UNL     1       7.698   6.241  18.587  0.00  0.00    +0.000 A 
ATOM     14  C   UNL     1       6.677   5.251  18.630  0.00  0.00    +0.000 A 
ATOM     15  C   UNL     1       5.564   5.602  17.892  0.00  0.00    +0.000 A 
ATOM     16  S   UNL     1       5.804   7.111  17.117  0.00  0.00    +0.000 S 
BRANCH  15  17
ATOM     17  C   UNL     1       4.330   4.864  17.759  0.00  0.00    +0.000 A 
ATOM     18  C   UNL     1       4.146   3.594  17.244  0.00  0.00    +0.000 A 
ATOM     19  C   UNL     1       2.778   3.192  17.242  0.00  0.00    +0.000 A 
ATOM     20  C   UNL     1       1.954   4.166  17.755  0.00  0.00    +0.000 A 
ATOM     21  S   UNL     1       2.829   5.547  18.249  0.00  0.00    +0.000 S 
ENDBRANCH  15  17
ENDBRANCH   2  12
TORSDOF 4
ENDMDL
MODEL 2
REMARK VINA RESULT:      -7.4      0.506      1.237
REMARK  Name = 
REMARK  4 active torsions:
REMARK  status: ('A' for Active; 'I' for Inactive)
REMARK    1  A    between atoms: N_2  and  C_4
REMARK    2  A    between atoms: C_7  and  C_8
REMARK    3  A    between atoms: C_9  and  C_10
REMARK    4  A    between atoms: C_13  and  C_14
REMARK                            x       y       z     vdW  Elec       q    Type
REMARK                         _______ _______ _______ _____ _____    ______ ____
ROOT
ATOM      1  C   UNL     1       8.724   9.328  18.751  0.00  0.00    +0.000 C 
ATOM      2  C   UNL     1       8.129   8.690  17.729  0.00  0.00    +0.000 C 
ENDROOT
BRANCH   1   6
ATOM      3  C   UNL     1      10.528  13.204  18.676  0.00  0.00    +0.000 A 
ATOM      4  C   UNL     1      10.989  12.220  19.556  0.00  0.00    +0.000 A 
ATOM      5  C   UNL     1      10.382  10.960  19.552  0.00  0.00    +0.000 A 
ATOM      6  C   UNL     1       9.314  10.673  18.685  0.00  0.00    +0.000 A 
ATOM      7  C   UNL     1       8.878  11.665  17.797  0.00  0.00    +0.000 A 
ATOM      8  C   UNL     1       9.478  12.930  17.792  0.00  0.00    +0.000 A 
BRANCH   3  10
ATOM      9  O   UNL     1      12.264  14.643  19.220  0.00  0.00    +0.000 OA
ATOM     10  N   UNL     1      11.155  14.530  18.680  0.00  0.00    +0.000 N 
ATOM     11  O   UNL     1      10.537  15.461  18.143  0.00  0.00    +0.000 OA
ENDBRANCH   3  10
ENDBRANCH   1   6
BRANCH   2  12
ATOM     12  C   UNL     1       7.455   7.443  17.914  0.00  0.00    +0.000 A 
ATOM     13  C   UNL     1       7.803   6.326  18.656  0.00  0.00    +0.000 A 
ATOM     14  C   UNL     1       6.797   5.319  18.665  0.00  0.00    +0.000 A 
ATOM     15  C   UNL     1       5.691   5.666  17.915  0.00  0.00    +0.000 A 
ATOM     16  S   UNL     1       5.920   7.192  17.169  0.00  0.00    +0.000 S 
BRANCH  15  17
ATOM     17  C   UNL     1       4.471   4.912  17.749  0.00  0.00    +0.000 A 
ATOM     18  C   UNL     1       4.300   3.694  17.117  0.00  0.00    +0.000 A 
ATOM     19  C   UNL     1       2.942   3.257  17.118  0.00  0.00    +0.000 A 
ATOM     20  C   UNL     1       2.113   4.154  17.751  0.00  0.00    +0.000 A 
ATOM     21  S   UNL     1       2.971   5.503  18.351  0.00  0.00    +0.000 S 
ENDBRANCH  15  17
ENDBRANCH   2  12
TORSDOF 4
ENDMDL
MODEL 3
REMARK VINA RESULT:      -7.4      0.799      1.017
REMARK  Name = 
REMARK  4 active torsions:
REMARK  status: ('A' for Active; 'I' for Inactive)
REMARK    1  A    between atoms: N_2  and  C_4
REMARK    2  A    between atoms: C_7  and  C_8
REMARK    3  A    between atoms: C_9  and  C_10
REMARK    4  A    between atoms: C_13  and  C_14
REMARK                            x       y       z     vdW  Elec       q    Type
REMARK                         _______ _______ _______ _____ _____    ______ ____
ROOT
ATOM      1  C   UNL     1       8.442   8.687  18.684  0.00  0.00    +0.000 C 
ATOM      2  C   UNL     1       7.741   8.239  17.629  0.00  0.00    +0.000 C 
ENDROOT
BRANCH   1   6
ATOM      3  C   UNL     1      10.054  12.640  18.923  0.00  0.00    +0.000 A 
ATOM      4  C   UNL     1       9.224  12.272  17.859  0.00  0.00    +0.000 A 
ATOM      5  C   UNL     1       8.708  10.973  17.813  0.00  0.00    +0.000 A 
ATOM      6  C   UNL     1       9.017  10.034  18.813  0.00  0.00    +0.000 A 
ATOM      7  C   UNL     1       9.833  10.428  19.881  0.00  0.00    +0.000 A 
ATOM      8  C   UNL     1      10.356  11.725  19.938  0.00  0.00    +0.000 A 
BRANCH   3  10
ATOM      9  O   UNL     1      11.131  14.369  20.034  0.00  0.00    +0.000 OA
ATOM     10  N   UNL     1      10.605  13.999  18.975  0.00  0.00    +0.000 N 
ATOM     11  O   UNL     1      10.512  14.698  17.956  0.00  0.00    +0.000 OA
ENDBRANCH   3  10
ENDBRANCH   1   6
BRANCH   2  12
ATOM     12  C   UNL     1       7.096   6.964  17.644  0.00  0.00    +0.000 A 
ATOM     13  C   UNL     1       7.602   5.695  17.870  0.00  0.00    +0.000 A 
ATOM     14  C   UNL     1       6.598   4.686  17.904  0.00  0.00    +0.000 A 
ATOM     15  C   UNL     1       5.331   5.188  17.686  0.00  0.00    +0.000 A 
ATOM     16  S   UNL     1       5.392   6.875  17.392  0.00  0.00    +0.000 S 
BRANCH  15  17
ATOM     17  C   UNL     1       4.083   4.463  17.706  0.00  0.00    +0.000 A 
ATOM     18  C   UNL     1       3.870   3.124  17.433  0.00  0.00    +0.000 A 
ATOM     19  C   UNL     1       2.495   2.754  17.523  0.00  0.00    +0.000 A 
ATOM     20  C   UNL     1       1.696   3.821  17.861  0.00  0.00    +0.000 A 
ATOM     21  S   UNL     1       2.601   5.251  18.084  0.00  0.00    +0.000 S 
ENDBRANCH  15  17
ENDBRANCH   2  12
TORSDOF 4
ENDMDL
MODEL 4
REMARK VINA RESULT:      -7.3      7.071      8.982
REMARK  Name = 
REMARK  4 active torsions:
REMARK  status: ('A' for Active; 'I' for Inactive)
REMARK    1  A    between atoms: N_2  and  C_4
REMARK    2  A    between atoms: C_7  and  C_8
REMARK    3  A    between atoms: C_9  and  C_10
REMARK    4  A    between atoms: C_13  and  C_14
REMARK                            x       y       z     vdW  Elec       q    Type
REMARK                         _______ _______ _______ _____ _____    ______ ____
ROOT
ATOM      1  C   UNL     1       2.802   6.695  18.778  0.00  0.00    +0.000 C 
ATOM      2  C   UNL     1       2.263   7.925  18.718  0.00  0.00    +0.000 C 
ENDROOT
BRANCH   1   6
ATOM      3  C   UNL     1       5.545   5.186  15.867  0.00  0.00    +0.000 A 
ATOM      4  C   UNL     1       5.358   6.562  16.023  0.00  0.00    +0.000 A 
ATOM      5  C   UNL     1       4.458   7.025  16.989  0.00  0.00    +0.000 A 
ATOM      6  C   UNL     1       3.736   6.128  17.795  0.00  0.00    +0.000 A 
ATOM      7  C   UNL     1       3.951   4.753  17.637  0.00  0.00    +0.000 A 
ATOM      8  C   UNL     1       4.850   4.278  16.674  0.00  0.00    +0.000 A 
BRANCH   3  10
ATOM      9  O   UNL     1       7.632   5.152  14.855  0.00  0.00    +0.000 OA
ATOM     10  N   UNL     1       6.482   4.692  14.851  0.00  0.00    +0.000 N 
ATOM     11  O   UNL     1       6.067   3.846  14.046  0.00  0.00    +0.000 OA
ENDBRANCH   3  10
ENDBRANCH   1   6
BRANCH   2  12
ATOM     12  C   UNL     1       1.476   8.452  19.789  0.00  0.00    +0.000 A 
ATOM     13  C   UNL     1       1.322   8.023  21.096  0.00  0.00    +0.000 A 
ATOM     14  C   UNL     1       0.522   8.896  21.886  0.00  0.00    +0.000 A 
ATOM     15  C   UNL     1       0.053   9.980  21.171  0.00  0.00    +0.000 A 
ATOM     16  S   UNL     1       0.555   9.888  19.535  0.00  0.00    +0.000 S 
BRANCH  15  17
ATOM     17  C   UNL     1      -0.736  11.083  21.665  0.00  0.00    +0.000 A 
ATOM     18  C   UNL     1      -1.204  11.290  22.949  0.00  0.00    +0.000 A 
ATOM     19  C   UNL     1      -1.980  12.481  23.070  0.00  0.00    +0.000 A 
ATOM     20  C   UNL     1      -2.084  13.151  21.873  0.00  0.00    +0.000 A 
ATOM     21  S   UNL     1      -1.238  12.356  20.621  0.00  0.00    +0.000 S 
ENDBRANCH  15  17
ENDBRANCH   2  12
TORSDOF 4
ENDMDL
MODEL 5
REMARK VINA RESULT:      -7.2      1.070      1.606
REMARK  Name = 
REMARK  4 active torsions:
REMARK  status: ('A' for Active; 'I' for Inactive)
REMARK    1  A    between atoms: N_2  and  C_4
REMARK    2  A    between atoms: C_7  and  C_8
REMARK    3  A    between atoms: C_9  and  C_10
REMARK    4  A    between atoms: C_13  and  C_14
REMARK                            x       y       z     vdW  Elec       q    Type
REMARK                         _______ _______ _______ _____ _____    ______ ____
ROOT
ATOM      1  C   UNL     1       8.467   8.783  18.616  0.00  0.00    +0.000 C 
ATOM      2  C   UNL     1       7.781   8.235  17.598  0.00  0.00    +0.000 C 
ENDROOT
BRANCH   1   6
ATOM      3  C   UNL     1      10.034  12.754  18.846  0.00  0.00    +0.000 A 
ATOM      4  C   UNL     1      10.397  11.789  19.790  0.00  0.00    +0.000 A 
ATOM      5  C   UNL     1       9.873  10.497  19.684  0.00  0.00    +0.000 A 
ATOM      6  C   UNL     1       8.982  10.160  18.650  0.00  0.00    +0.000 A 
ATOM      7  C   UNL     1       8.645  11.134  17.702  0.00  0.00    +0.000 A 
ATOM      8  C   UNL     1       9.164  12.431  17.798  0.00  0.00    +0.000 A 
BRANCH   3  10
ATOM      9  O   UNL     1      11.377  14.345  19.870  0.00  0.00    +0.000 OA
ATOM     10  N   UNL     1      10.575  14.114  18.954  0.00  0.00    +0.000 N 
ATOM     11  O   UNL     1      10.197  14.953  18.125  0.00  0.00    +0.000 OA
ENDBRANCH   3  10
ENDBRANCH   1   6
BRANCH   2  12
ATOM     12  C   UNL     1       7.193   6.937  17.704  0.00  0.00    +0.000 A 
ATOM     13  C   UNL     1       7.765   5.700  17.950  0.00  0.00    +0.000 A 
ATOM     14  C   UNL     1       6.810   4.653  18.085  0.00  0.00    +0.000 A 
ATOM     15  C   UNL     1       5.512   5.094  17.923  0.00  0.00    +0.000 A 
ATOM     16  S   UNL     1       5.482   6.768  17.559  0.00  0.00    +0.000 S 
BRANCH  15  17
ATOM     17  C   UNL     1       4.300   4.320  18.047  0.00  0.00    +0.000 A 
ATOM     18  C   UNL     1       3.140   4.426  17.302  0.00  0.00    +0.000 A 
ATOM     19  C   UNL     1       2.128   3.512  17.723  0.00  0.00    +0.000 A 
ATOM     20  C   UNL     1       2.543   2.734  18.778  0.00  0.00    +0.000 A 
ATOM     21  S   UNL     1       4.145   3.094  19.245  0.00  0.00    +0.000 S 
ENDBRANCH  15  17
ENDBRANCH   2  12
TORSDOF 4
ENDMDL
MODEL 6
REMARK VINA RESULT:      -7.0      7.185      9.106
REMARK  Name = 
REMARK  4 active torsions:
REMARK  status: ('A' for Active; 'I' for Inactive)
REMARK    1  A    between atoms: N_2  and  C_4
REMARK    2  A    between atoms: C_7  and  C_8
REMARK    3  A    between atoms: C_9  and  C_10
REMARK    4  A    between atoms: C_13  and  C_14
REMARK                            x       y       z     vdW  Elec       q    Type
REMARK                         _______ _______ _______ _____ _____    ______ ____
ROOT
ATOM      1  C   UNL     1       2.611   6.802  18.766  0.00  0.00    +0.000 C 
ATOM      2  C   UNL     1       2.288   8.103  18.865  0.00  0.00    +0.000 C 
ENDROOT
BRANCH   1   6
ATOM      3  C   UNL     1       5.482   5.036  16.136  0.00  0.00    +0.000 A 
ATOM      4  C   UNL     1       4.615   4.236  16.885  0.00  0.00    +0.000 A 
ATOM      5  C   UNL     1       3.683   4.843  17.732  0.00  0.00    +0.000 A 
ATOM      6  C   UNL     1       3.611   6.243  17.845  0.00  0.00    +0.000 A 
ATOM      7  C   UNL     1       4.474   7.029  17.071  0.00  0.00    +0.000 A 
ATOM      8  C   UNL     1       5.412   6.431  16.220  0.00  0.00    +0.000 A 
BRANCH   3  10
ATOM      9  O   UNL     1       6.046   3.794  14.259  0.00  0.00    +0.000 OA
ATOM     10  N   UNL     1       6.468   4.406  15.250  0.00  0.00    +0.000 N 
ATOM     11  O   UNL     1       7.666   4.521  15.547  0.00  0.00    +0.000 OA
ENDBRANCH   3  10
ENDBRANCH   1   6
BRANCH   2  12
ATOM     12  C   UNL     1       1.408   8.581  19.885  0.00  0.00    +0.000 A 
ATOM     13  C   UNL     1       1.126   8.082  21.146  0.00  0.00    +0.000 A 
ATOM     14  C   UNL     1       0.263   8.922  21.904  0.00  0.00    +0.000 A 
ATOM     15  C   UNL     1      -0.125  10.051  21.211  0.00  0.00    +0.000 A 
ATOM     16  S   UNL     1       0.530  10.043  19.627  0.00  0.00    +0.000 S 
BRANCH  15  17
ATOM     17  C   UNL     1      -0.946  11.137  21.690  0.00  0.00    +0.000 A 
ATOM     18  C   UNL     1      -1.375  11.377  22.983  0.00  0.00    +0.000 A 
ATOM     19  C   UNL     1      -2.202  12.535  23.085  0.00  0.00    +0.000 A 
ATOM     20  C   UNL     1      -2.382  13.148  21.867  0.00  0.00    +0.000 A 
ATOM     21  S   UNL     1      -1.547  12.340  20.616  0.00  0.00    +0.000 S 
ENDBRANCH  15  17
ENDBRANCH   2  12
TORSDOF 4
ENDMDL
MODEL 7
REMARK VINA RESULT:      -7.0      5.555      9.634
REMARK  Name = 
REMARK  4 active torsions:
REMARK  status: ('A' for Active; 'I' for Inactive)
REMARK    1  A    between atoms: N_2  and  C_4
REMARK    2  A    between atoms: C_7  and  C_8
REMARK    3  A    between atoms: C_9  and  C_10
REMARK    4  A    between atoms: C_13  and  C_14
REMARK                            x       y       z     vdW  Elec       q    Type
REMARK                         _______ _______ _______ _____ _____    ______ ____
ROOT
ATOM      1  C   UNL     1       8.599   8.757  18.455  0.00  0.00    +0.000 C 
ATOM      2  C   UNL     1       8.317   9.987  17.991  0.00  0.00    +0.000 C 
ENDROOT
BRANCH   1   6
ATOM      3  C   UNL     1       6.277   5.297  17.495  0.00  0.00    +0.000 A 
ATOM      4  C   UNL     1       6.076   6.502  16.814  0.00  0.00    +0.000 A 
ATOM      5  C   UNL     1       6.856   7.614  17.147  0.00  0.00    +0.000 A 
ATOM      6  C   UNL     1       7.829   7.540  18.158  0.00  0.00    +0.000 A 
ATOM      7  C   UNL     1       8.030   6.319  18.815  0.00  0.00    +0.000 A 
ATOM      8  C   UNL     1       7.255   5.199  18.491  0.00  0.00    +0.000 A 
BRANCH   3  10
ATOM      9  O   UNL     1       5.536   3.683  16.002  0.00  0.00    +0.000 OA
ATOM     10  N   UNL     1       5.458   4.128  17.156  0.00  0.00    +0.000 N 
ATOM     11  O   UNL     1       4.734   3.655  18.043  0.00  0.00    +0.000 OA
ENDBRANCH   3  10
ENDBRANCH   1   6
BRANCH   2  12
ATOM     12  C   UNL     1       9.197  11.091  18.211  0.00  0.00    +0.000 A 
ATOM     13  C   UNL     1      10.452  11.147  18.792  0.00  0.00    +0.000 A 
ATOM     14  C   UNL     1      11.049  12.438  18.722  0.00  0.00    +0.000 A 
ATOM     15  C   UNL     1      10.237  13.366  18.102  0.00  0.00    +0.000 A 
ATOM     16  S   UNL     1       8.739  12.660  17.661  0.00  0.00    +0.000 S 
BRANCH  15  17
ATOM     17  C   UNL     1      10.543  14.747  17.813  0.00  0.00    +0.000 A 
ATOM     18  C   UNL     1      11.768  15.298  17.483  0.00  0.00    +0.000 A 
ATOM     19  C   UNL     1      11.704  16.711  17.291  0.00  0.00    +0.000 A 
ATOM     20  C   UNL     1      10.432  17.199  17.480  0.00  0.00    +0.000 A 
ATOM     21  S   UNL     1       9.324  15.959  17.870  0.00  0.00    +0.000 S 
ENDBRANCH  15  17
ENDBRANCH   2  12
TORSDOF 4
ENDMDL
MODEL 8
REMARK VINA RESULT:      -7.0      7.120      8.931
REMARK  Name = 
REMARK  4 active torsions:
REMARK  status: ('A' for Active; 'I' for Inactive)
REMARK    1  A    between atoms: N_2  and  C_4
REMARK    2  A    between atoms: C_7  and  C_8
REMARK    3  A    between atoms: C_9  and  C_10
REMARK    4  A    between atoms: C_13  and  C_14
REMARK                            x       y       z     vdW  Elec       q    Type
REMARK                         _______ _______ _______ _____ _____    ______ ____
ROOT
ATOM      1  C   UNL     1       2.405   7.595  18.466  0.00  0.00    +0.000 C 
ATOM      2  C   UNL     1       2.086   8.780  17.917  0.00  0.00    +0.000 C 
ENDROOT
BRANCH   1   6
ATOM      3  C   UNL     1       5.983   5.453  17.522  0.00  0.00    +0.000 A 
ATOM      4  C   UNL     1       5.547   6.505  16.711  0.00  0.00    +0.000 A 
ATOM      5  C   UNL     1       4.376   7.191  17.050  0.00  0.00    +0.000 A 
ATOM      6  C   UNL     1       3.630   6.832  18.186  0.00  0.00    +0.000 A 
ATOM      7  C   UNL     1       4.092   5.789  18.997  0.00  0.00    +0.000 A 
ATOM      8  C   UNL     1       5.264   5.095  18.668  0.00  0.00    +0.000 A 
BRANCH   3  10
ATOM      9  O   UNL     1       7.925   4.320  18.094  0.00  0.00    +0.000 OA
ATOM     10  N   UNL     1       7.206   4.724  17.169  0.00  0.00    +0.000 N 
ATOM     11  O   UNL     1       7.451   4.557  15.966  0.00  0.00    +0.000 OA
ENDBRANCH   3  10
ENDBRANCH   1   6
BRANCH   2  12
ATOM     12  C   UNL     1       0.945   9.524  18.350  0.00  0.00    +0.000 A 
ATOM     13  C   UNL     1      -0.287   9.725  17.750  0.00  0.00    +0.000 A 
ATOM     14  C   UNL     1      -1.201  10.450  18.566  0.00  0.00    +0.000 A 
ATOM     15  C   UNL     1      -0.655  10.814  19.781  0.00  0.00    +0.000 A 
ATOM     16  S   UNL     1       0.980  10.310  19.885  0.00  0.00    +0.000 S 
BRANCH  15  17
ATOM     17  C   UNL     1      -1.310  11.504  20.866  0.00  0.00    +0.000 A 
ATOM     18  C   UNL     1      -2.277  12.490  20.791  0.00  0.00    +0.000 A 
ATOM     19  C   UNL     1      -2.680  12.968  22.073  0.00  0.00    +0.000 A 
ATOM     20  C   UNL     1      -2.009  12.334  23.093  0.00  0.00    +0.000 A 
ATOM     21  S   UNL     1      -0.915  11.162  22.506  0.00  0.00    +0.000 S 
ENDBRANCH  15  17
ENDBRANCH   2  12
TORSDOF 4
ENDMDL
MODEL 9
REMARK VINA RESULT:      -7.0      8.834     10.875
REMARK  Name = 
REMARK  4 active torsions:
REMARK  status: ('A' for Active; 'I' for Inactive)
REMARK    1  A    between atoms: N_2  and  C_4
REMARK    2  A    between atoms: C_7  and  C_8
REMARK    3  A    between atoms: C_9  and  C_10
REMARK    4  A    between atoms: C_13  and  C_14
REMARK                            x       y       z     vdW  Elec       q    Type
REMARK                         _______ _______ _______ _____ _____    ______ ____
ROOT
ATOM      1  C   UNL     1       1.928   7.581  20.200  0.00  0.00    +0.000 C 
ATOM      2  C   UNL     1       1.091   7.933  21.191  0.00  0.00    +0.000 C 
ENDROOT
BRANCH   1   6
ATOM      3  C   UNL     1       3.472   3.623  19.722  0.00  0.00    +0.000 A 
ATOM      4  C   UNL     1       2.324   3.853  20.487  0.00  0.00    +0.000 A 
ATOM      5  C   UNL     1       1.840   5.158  20.618  0.00  0.00    +0.000 A 
ATOM      6  C   UNL     1       2.495   6.239  20.003  0.00  0.00    +0.000 A 
ATOM      7  C   UNL     1       3.632   5.987  19.225  0.00  0.00    +0.000 A 
ATOM      8  C   UNL     1       4.126   4.684  19.086  0.00  0.00    +0.000 A 
BRANCH   3  10
ATOM      9  O   UNL     1       3.438   1.510  18.765  0.00  0.00    +0.000 OA
ATOM     10  N   UNL     1       3.990   2.257  19.585  0.00  0.00    +0.000 N 
ATOM     11  O   UNL     1       4.949   1.929  20.298  0.00  0.00    +0.000 OA
ENDBRANCH   3  10
ENDBRANCH   1   6
BRANCH   2  12
ATOM     12  C   UNL     1       0.474   9.222  21.229  0.00  0.00    +0.000 A 
ATOM     13  C   UNL     1       0.232  10.140  20.222  0.00  0.00    +0.000 A 
ATOM     14  C   UNL     1      -0.513  11.273  20.657  0.00  0.00    +0.000 A 
ATOM     15  C   UNL     1      -0.820  11.221  22.002  0.00  0.00    +0.000 A 
ATOM     16  S   UNL     1      -0.152   9.816  22.722  0.00  0.00    +0.000 S 
BRANCH  15  17
ATOM     17  C   UNL     1      -1.604  12.166  22.761  0.00  0.00    +0.000 A 
ATOM     18  C   UNL     1      -2.822  11.960  23.384  0.00  0.00    +0.000 A 
ATOM     19  C   UNL     1      -3.322  13.134  24.022  0.00  0.00    +0.000 A 
ATOM     20  C   UNL     1      -2.472  14.205  23.868  0.00  0.00    +0.000 A 
ATOM     21  S   UNL     1      -1.077  13.790  22.976  0.00  0.00    +0.000 S 
ENDBRANCH  15  17
ENDBRANCH   2  12
TORSDOF 4
ENDMDL
