MODEL 1
REMARK VINA RESULT:      -7.7      0.000      0.000
REMARK  Name = 
REMARK  6 active torsions:
REMARK  status: ('A' for Active; 'I' for Inactive)
REMARK    1  A    between atoms: C_1  and  C_2
REMARK    2  A    between atoms: C_2  and  N_3
REMARK    3  A    between atoms: N_6  and  C_7
REMARK    4  A    between atoms: C_10  and  S_11
REMARK    5  A    between atoms: S_11  and  O_14
REMARK    6  A    between atoms: O_14  and  C_15
REMARK                            x       y       z     vdW  Elec       q    Type
REMARK                         _______ _______ _______ _____ _____    ______ ____
ROOT
ATOM      1  C   UNL     1       2.776   6.897  18.451  0.00  0.00    +0.000 A 
ATOM      2  C   UNL     1       2.485   8.051  17.710  0.00  0.00    +0.000 A 
ATOM      3  C   UNL     1       1.782   9.113  18.278  0.00  0.00    +0.000 A 
ATOM      4  C   UNL     1       1.387   9.038  19.613  0.00  0.00    +0.000 A 
ATOM      5  C   UNL     1       1.651   7.893  20.368  0.00  0.00    +0.000 A 
ATOM      6  C   UNL     1       2.334   6.822  19.781  0.00  0.00    +0.000 A 
ENDROOT
BRANCH   1  10
ATOM      7  N   UNL     1       4.990   4.632  16.690  0.00  0.00    +0.000 N 
ATOM      8  C   UNL     1       3.973   3.687  17.076  0.00  0.00    +0.000 C 
ATOM      9  C   UNL     1       3.213   4.432  18.160  0.00  0.00    +0.000 C 
ATOM     10  N   UNL     1       3.466   5.822  17.854  0.00  0.00    +0.000 N 
ATOM     11  C   UNL     1       4.647   5.930  17.081  0.00  0.00    +0.000 C 
ATOM     12  O   UNL     1       5.305   6.928  16.838  0.00  0.00    +0.000 OA
BRANCH   7  14
ATOM     13  C   UNL     1       6.260   4.114  14.666  0.00  0.00    +0.000 C 
ATOM     14  C   UNL     1       6.290   4.252  16.181  0.00  0.00    +0.000 C 
ENDBRANCH   7  14
ENDBRANCH   1  10
BRANCH   4  15
ATOM     15  S   UNL     1       0.420  10.358  20.305  0.00  0.00    +0.000 S 
ATOM     16  O   UNL     1      -0.706   9.738  20.979  0.00  0.00    +0.000 OA
ATOM     17  O   UNL     1       1.341  11.204  21.038  0.00  0.00    +0.000 OA
BRANCH  15  18
ATOM     18  O   UNL     1      -0.128  11.181  19.004  0.00  0.00    +0.000 OA
BRANCH  18  19
ATOM     19  C   UNL     1      -1.433  11.063  18.580  0.00  0.00    +0.000 A 
ATOM     20  C   UNL     1      -1.685  10.061  17.635  0.00  0.00    +0.000 A 
ATOM     21  C   UNL     1      -2.976   9.873  17.128  0.00  0.00    +0.000 A 
ATOM     22  C   UNL     1      -4.020  10.683  17.567  0.00  0.00    +0.000 A 
ATOM     23  C   UNL     1      -3.764  11.669  18.510  0.00  0.00    +0.000 A 
ATOM     24  F   UNL     1      -4.766  12.450  18.936  0.00  0.00    +0.000 F 
ATOM     25  C   UNL     1      -2.487  11.867  19.020  0.00  0.00    +0.000 A 
ENDBRANCH  18  19
ENDBRANCH  15  18
ENDBRANCH   4  15
TORSDOF 5
ENDMDL
MODEL 2
REMARK VINA RESULT:      -7.7      0.939      1.344
REMARK  Name = 
REMARK  6 active torsions:
REMARK  status: ('A' for Active; 'I' for Inactive)
REMARK    1  A    between atoms: C_1  and  C_2
REMARK    2  A    between atoms: C_2  and  N_3
REMARK    3  A    between atoms: N_6  and  C_7
REMARK    4  A    between atoms: C_10  and  S_11
REMARK    5  A    between atoms: S_11  and  O_14
REMARK    6  A    between atoms: O_14  and  C_15
REMARK                            x       y       z     vdW  Elec       q    Type
REMARK                         _______ _______ _______ _____ _____    ______ ____
ROOT
ATOM      1  C   UNL     1       2.700   7.008  18.465  0.00  0.00    +0.000 A 
ATOM      2  C   UNL     1       2.404   8.164  17.728  0.00  0.00    +0.000 A 
ATOM      3  C   UNL     1       1.711   9.227  18.306  0.00  0.00    +0.000 A 
ATOM      4  C   UNL     1       1.330   9.152  19.645  0.00  0.00    +0.000 A 
ATOM      5  C   UNL     1       1.600   8.004  20.395  0.00  0.00    +0.000 A 
ATOM      6  C   UNL     1       2.273   6.933  19.799  0.00  0.00    +0.000 A 
ENDROOT
BRANCH   1  10
ATOM      7  N   UNL     1       4.924   4.728  16.735  0.00  0.00    +0.000 N 
ATOM      8  C   UNL     1       3.843   3.815  17.005  0.00  0.00    +0.000 C 
ATOM      9  C   UNL     1       3.046   4.542  18.075  0.00  0.00    +0.000 C 
ATOM     10  N   UNL     1       3.380   5.932  17.859  0.00  0.00    +0.000 N 
ATOM     11  C   UNL     1       4.614   6.021  17.170  0.00  0.00    +0.000 C 
ATOM     12  O   UNL     1       5.330   6.997  17.022  0.00  0.00    +0.000 OA
BRANCH   7  14
ATOM     13  C   UNL     1       6.374   4.463  14.785  0.00  0.00    +0.000 C 
ATOM     14  C   UNL     1       6.237   4.312  16.293  0.00  0.00    +0.000 C 
ENDBRANCH   7  14
ENDBRANCH   1  10
BRANCH   4  15
ATOM     15  S   UNL     1       0.375  10.474  20.350  0.00  0.00    +0.000 S 
ATOM     16  O   UNL     1      -0.768   9.859  20.999  0.00  0.00    +0.000 OA
ATOM     17  O   UNL     1       1.300  11.292  21.108  0.00  0.00    +0.000 OA
BRANCH  15  18
ATOM     18  O   UNL     1      -0.145  11.328  19.057  0.00  0.00    +0.000 OA
BRANCH  18  19
ATOM     19  C   UNL     1      -1.391  11.114  18.513  0.00  0.00    +0.000 A 
ATOM     20  C   UNL     1      -2.429  11.905  19.021  0.00  0.00    +0.000 A 
ATOM     21  C   UNL     1      -3.736  11.752  18.545  0.00  0.00    +0.000 A 
ATOM     22  C   UNL     1      -4.010  10.810  17.557  0.00  0.00    +0.000 A 
ATOM     23  C   UNL     1      -2.975  10.035  17.051  0.00  0.00    +0.000 A 
ATOM     24  F   UNL     1      -3.234   9.129  16.100  0.00  0.00    +0.000 F 
ATOM     25  C   UNL     1      -1.674  10.177  17.516  0.00  0.00    +0.000 A 
ENDBRANCH  18  19
ENDBRANCH  15  18
ENDBRANCH   4  15
TORSDOF 5
ENDMDL
MODEL 3
REMARK VINA RESULT:      -7.7      2.000      2.572
REMARK  Name = 
REMARK  6 active torsions:
REMARK  status: ('A' for Active; 'I' for Inactive)
REMARK    1  A    between atoms: C_1  and  C_2
REMARK    2  A    between atoms: C_2  and  N_3
REMARK    3  A    between atoms: N_6  and  C_7
REMARK    4  A    between atoms: C_10  and  S_11
REMARK    5  A    between atoms: S_11  and  O_14
REMARK    6  A    between atoms: O_14  and  C_15
REMARK                            x       y       z     vdW  Elec       q    Type
REMARK                         _______ _______ _______ _____ _____    ______ ____
ROOT
ATOM      1  C   UNL     1       2.442   7.215  19.246  0.00  0.00    +0.000 A 
ATOM      2  C   UNL     1       1.830   7.614  20.443  0.00  0.00    +0.000 A 
ATOM      3  C   UNL     1       1.073   8.783  20.509  0.00  0.00    +0.000 A 
ATOM      4  C   UNL     1       0.899   9.554  19.361  0.00  0.00    +0.000 A 
ATOM      5  C   UNL     1       1.512   9.186  18.161  0.00  0.00    +0.000 A 
ATOM      6  C   UNL     1       2.290   8.025  18.111  0.00  0.00    +0.000 A 
ENDROOT
BRANCH   1  10
ATOM      7  N   UNL     1       3.888   3.896  19.419  0.00  0.00    +0.000 N 
ATOM      8  C   UNL     1       5.048   4.616  18.958  0.00  0.00    +0.000 C 
ATOM      9  C   UNL     1       4.458   5.924  18.459  0.00  0.00    +0.000 C 
ATOM     10  N   UNL     1       3.224   6.043  19.202  0.00  0.00    +0.000 N 
ATOM     11  C   UNL     1       2.815   4.763  19.649  0.00  0.00    +0.000 C 
ATOM     12  O   UNL     1       1.728   4.425  20.089  0.00  0.00    +0.000 OA
BRANCH   7  14
ATOM     13  C   UNL     1       3.331   1.947  18.053  0.00  0.00    +0.000 C 
ATOM     14  C   UNL     1       3.782   2.454  19.415  0.00  0.00    +0.000 C 
ENDBRANCH   7  14
ENDBRANCH   1  10
BRANCH   4  15
ATOM     15  S   UNL     1       0.004  11.085  19.473  0.00  0.00    +0.000 S 
ATOM     16  O   UNL     1       0.309  11.649  20.775  0.00  0.00    +0.000 OA
ATOM     17  O   UNL     1       0.300  11.826  18.263  0.00  0.00    +0.000 OA
BRANCH  15  18
ATOM     18  O   UNL     1      -1.567  10.636  19.445  0.00  0.00    +0.000 OA
BRANCH  18  19
ATOM     19  C   UNL     1      -2.311  10.705  18.288  0.00  0.00    +0.000 A 
ATOM     20  C   UNL     1      -1.909   9.861  17.246  0.00  0.00    +0.000 A 
ATOM     21  C   UNL     1      -2.590   9.869  16.024  0.00  0.00    +0.000 A 
ATOM     22  C   UNL     1      -3.677  10.720  15.840  0.00  0.00    +0.000 A 
ATOM     23  C   UNL     1      -4.075  11.549  16.880  0.00  0.00    +0.000 A 
ATOM     24  F   UNL     1      -5.121  12.368  16.707  0.00  0.00    +0.000 F 
ATOM     25  C   UNL     1      -3.407  11.550  18.098  0.00  0.00    +0.000 A 
ENDBRANCH  18  19
ENDBRANCH  15  18
ENDBRANCH   4  15
TORSDOF 5
ENDMDL
MODEL 4
REMARK VINA RESULT:      -7.7      1.053      1.803
REMARK  Name = 
REMARK  6 active torsions:
REMARK  status: ('A' for Active; 'I' for Inactive)
REMARK    1  A    between atoms: C_1  and  C_2
REMARK    2  A    between atoms: C_2  and  N_3
REMARK    3  A    between atoms: N_6  and  C_7
REMARK    4  A    between atoms: C_10  and  S_11
REMARK    5  A    between atoms: S_11  and  O_14
REMARK    6  A    between atoms: O_14  and  C_15
REMARK                            x       y       z     vdW  Elec       q    Type
REMARK                         _______ _______ _______ _____ _____    ______ ____
ROOT
ATOM      1  C   UNL     1       2.858   6.989  18.518  0.00  0.00    +0.000 A 
ATOM      2  C   UNL     1       2.362   6.880  19.824  0.00  0.00    +0.000 A 
ATOM      3  C   UNL     1       1.594   7.898  20.391  0.00  0.00    +0.000 A 
ATOM      4  C   UNL     1       1.293   9.030  19.636  0.00  0.00    +0.000 A 
ATOM      5  C   UNL     1       1.789   9.169  18.338  0.00  0.00    +0.000 A 
ATOM      6  C   UNL     1       2.579   8.155  17.788  0.00  0.00    +0.000 A 
ENDROOT
BRANCH   1  10
ATOM      7  N   UNL     1       5.331   4.875  16.922  0.00  0.00    +0.000 N 
ATOM      8  C   UNL     1       4.342   3.869  17.216  0.00  0.00    +0.000 C 
ATOM      9  C   UNL     1       3.456   4.557  18.241  0.00  0.00    +0.000 C 
ATOM     10  N   UNL     1       3.653   5.962  17.970  0.00  0.00    +0.000 N 
ATOM     11  C   UNL     1       4.885   6.146  17.295  0.00  0.00    +0.000 C 
ATOM     12  O   UNL     1       5.503   7.183  17.115  0.00  0.00    +0.000 OA
BRANCH   7  14
ATOM     13  C   UNL     1       7.624   4.577  17.715  0.00  0.00    +0.000 C 
ATOM     14  C   UNL     1       6.687   4.575  16.517  0.00  0.00    +0.000 C 
ENDBRANCH   7  14
ENDBRANCH   1  10
BRANCH   4  15
ATOM     15  S   UNL     1       0.386  10.358  20.391  0.00  0.00    +0.000 S 
ATOM     16  O   UNL     1      -0.771   9.759  21.031  0.00  0.00    +0.000 OA
ATOM     17  O   UNL     1       1.343  11.122  21.167  0.00  0.00    +0.000 OA
BRANCH  15  18
ATOM     18  O   UNL     1      -0.117  11.269  19.132  0.00  0.00    +0.000 OA
BRANCH  18  19
ATOM     19  C   UNL     1      -1.350  11.071  18.552  0.00  0.00    +0.000 A 
ATOM     20  C   UNL     1      -2.406  11.827  19.076  0.00  0.00    +0.000 A 
ATOM     21  C   UNL     1      -3.702  11.685  18.567  0.00  0.00    +0.000 A 
ATOM     22  C   UNL     1      -3.946  10.789  17.528  0.00  0.00    +0.000 A 
ATOM     23  C   UNL     1      -2.892  10.049  17.008  0.00  0.00    +0.000 A 
ATOM     24  F   UNL     1      -3.123   9.187  16.009  0.00  0.00    +0.000 F 
ATOM     25  C   UNL     1      -1.602  10.180  17.506  0.00  0.00    +0.000 A 
ENDBRANCH  18  19
ENDBRANCH  15  18
ENDBRANCH   4  15
TORSDOF 5
ENDMDL
MODEL 5
REMARK VINA RESULT:      -7.6      2.239      2.777
REMARK  Name = 
REMARK  6 active torsions:
REMARK  status: ('A' for Active; 'I' for Inactive)
REMARK    1  A    between atoms: C_1  and  C_2
REMARK    2  A    between atoms: C_2  and  N_3
REMARK    3  A    between atoms: N_6  and  C_7
REMARK    4  A    between atoms: C_10  and  S_11
REMARK    5  A    between atoms: S_11  and  O_14
REMARK    6  A    between atoms: O_14  and  C_15
REMARK                            x       y       z     vdW  Elec       q    Type
REMARK                         _______ _______ _______ _____ _____    ______ ____
ROOT
ATOM      1  C   UNL     1       2.334   7.421  19.221  0.00  0.00    +0.000 A 
ATOM      2  C   UNL     1       2.206   8.277  18.118  0.00  0.00    +0.000 A 
ATOM      3  C   UNL     1       1.497   9.475  18.215  0.00  0.00    +0.000 A 
ATOM      4  C   UNL     1       0.929   9.839  19.435  0.00  0.00    +0.000 A 
ATOM      5  C   UNL     1       1.029   8.995  20.543  0.00  0.00    +0.000 A 
ATOM      6  C   UNL     1       1.720   7.785  20.429  0.00  0.00    +0.000 A 
ENDROOT
BRANCH   1  10
ATOM      7  N   UNL     1       3.569   4.014  19.232  0.00  0.00    +0.000 N 
ATOM      8  C   UNL     1       4.738   4.669  18.700  0.00  0.00    +0.000 C 
ATOM      9  C   UNL     1       4.200   6.022  18.267  0.00  0.00    +0.000 C 
ATOM     10  N   UNL     1       3.033   6.203  19.100  0.00  0.00    +0.000 N 
ATOM     11  C   UNL     1       2.574   4.943  19.554  0.00  0.00    +0.000 C 
ATOM     12  O   UNL     1       1.502   4.665  20.066  0.00  0.00    +0.000 OA
BRANCH   7  14
ATOM     13  C   UNL     1       2.837   2.128  17.860  0.00  0.00    +0.000 C 
ATOM     14  C   UNL     1       3.370   2.582  19.211  0.00  0.00    +0.000 C 
ENDBRANCH   7  14
ENDBRANCH   1  10
BRANCH   4  15
ATOM     15  S   UNL     1      -0.044  11.323  19.528  0.00  0.00    +0.000 S 
ATOM     16  O   UNL     1       0.211  11.904  20.834  0.00  0.00    +0.000 OA
ATOM     17  O   UNL     1       0.234  12.075  18.321  0.00  0.00    +0.000 OA
BRANCH  15  18
ATOM     18  O   UNL     1      -1.589  10.796  19.475  0.00  0.00    +0.000 OA
BRANCH  18  19
ATOM     19  C   UNL     1      -2.300  10.776  18.296  0.00  0.00    +0.000 A 
ATOM     20  C   UNL     1      -3.422  11.612  18.239  0.00  0.00    +0.000 A 
ATOM     21  C   UNL     1      -4.220  11.651  17.090  0.00  0.00    +0.000 A 
ATOM     22  C   UNL     1      -3.897  10.857  15.993  0.00  0.00    +0.000 A 
ATOM     23  C   UNL     1      -2.779  10.037  16.053  0.00  0.00    +0.000 A 
ATOM     24  F   UNL     1      -2.465   9.272  14.999  0.00  0.00    +0.000 F 
ATOM     25  C   UNL     1      -1.979   9.988  17.187  0.00  0.00    +0.000 A 
ENDBRANCH  18  19
ENDBRANCH  15  18
ENDBRANCH   4  15
TORSDOF 5
ENDMDL
MODEL 6
REMARK VINA RESULT:      -7.5      1.485      1.916
REMARK  Name = 
REMARK  6 active torsions:
REMARK  status: ('A' for Active; 'I' for Inactive)
REMARK    1  A    between atoms: C_1  and  C_2
REMARK    2  A    between atoms: C_2  and  N_3
REMARK    3  A    between atoms: N_6  and  C_7
REMARK    4  A    between atoms: C_10  and  S_11
REMARK    5  A    between atoms: S_11  and  O_14
REMARK    6  A    between atoms: O_14  and  C_15
REMARK                            x       y       z     vdW  Elec       q    Type
REMARK                         _______ _______ _______ _____ _____    ______ ____
ROOT
ATOM      1  C   UNL     1       2.559   7.367  18.788  0.00  0.00    +0.000 A 
ATOM      2  C   UNL     1       2.287   8.287  17.766  0.00  0.00    +0.000 A 
ATOM      3  C   UNL     1       1.492   9.409  18.001  0.00  0.00    +0.000 A 
ATOM      4  C   UNL     1       0.981   9.633  19.278  0.00  0.00    +0.000 A 
ATOM      5  C   UNL     1       1.225   8.722  20.309  0.00  0.00    +0.000 A 
ATOM      6  C   UNL     1       2.002   7.587  20.057  0.00  0.00    +0.000 A 
ENDROOT
BRANCH   1  10
ATOM      7  N   UNL     1       4.861   4.827  17.613  0.00  0.00    +0.000 N 
ATOM      8  C   UNL     1       4.141   4.038  18.580  0.00  0.00    +0.000 C 
ATOM      9  C   UNL     1       3.438   5.091  19.420  0.00  0.00    +0.000 C 
ATOM     10  N   UNL     1       3.344   6.225  18.529  0.00  0.00    +0.000 N 
ATOM     11  C   UNL     1       4.329   6.116  17.517  0.00  0.00    +0.000 C 
ATOM     12  O   UNL     1       4.716   6.974  16.741  0.00  0.00    +0.000 OA
BRANCH   7  14
ATOM     13  C   UNL     1       5.875   3.910  15.586  0.00  0.00    +0.000 C 
ATOM     14  C   UNL     1       6.106   4.413  17.003  0.00  0.00    +0.000 C 
ENDBRANCH   7  14
ENDBRANCH   1  10
BRANCH   4  15
ATOM     15  S   UNL     1      -0.098  11.018  19.548  0.00  0.00    +0.000 S 
ATOM     16  O   UNL     1       0.081  11.420  20.931  0.00  0.00    +0.000 OA
ATOM     17  O   UNL     1       0.153  11.954  18.471  0.00  0.00    +0.000 OA
BRANCH  15  18
ATOM     18  O   UNL     1      -1.600  10.399  19.368  0.00  0.00    +0.000 OA
BRANCH  18  19
ATOM     19  C   UNL     1      -2.299  10.548  18.191  0.00  0.00    +0.000 A 
ATOM     20  C   UNL     1      -3.391  11.424  18.229  0.00  0.00    +0.000 A 
ATOM     21  C   UNL     1      -4.176  11.630  17.090  0.00  0.00    +0.000 A 
ATOM     22  C   UNL     1      -3.871  10.963  15.906  0.00  0.00    +0.000 A 
ATOM     23  C   UNL     1      -2.782  10.102  15.872  0.00  0.00    +0.000 A 
ATOM     24  F   UNL     1      -2.485   9.459  14.736  0.00  0.00    +0.000 F 
ATOM     25  C   UNL     1      -1.996   9.888  16.997  0.00  0.00    +0.000 A 
ENDBRANCH  18  19
ENDBRANCH  15  18
ENDBRANCH   4  15
TORSDOF 5
ENDMDL
MODEL 7
REMARK VINA RESULT:      -7.5      4.106      8.207
REMARK  Name = 
REMARK  6 active torsions:
REMARK  status: ('A' for Active; 'I' for Inactive)
REMARK    1  A    between atoms: C_1  and  C_2
REMARK    2  A    between atoms: C_2  and  N_3
REMARK    3  A    between atoms: N_6  and  C_7
REMARK    4  A    between atoms: C_10  and  S_11
REMARK    5  A    between atoms: S_11  and  O_14
REMARK    6  A    between atoms: O_14  and  C_15
REMARK                            x       y       z     vdW  Elec       q    Type
REMARK                         _______ _______ _______ _____ _____    ______ ____
ROOT
ATOM      1  C   UNL     1       1.480   8.862  19.236  0.00  0.00    +0.000 A 
ATOM      2  C   UNL     1       1.844   7.776  20.044  0.00  0.00    +0.000 A 
ATOM      3  C   UNL     1       2.738   6.807  19.590  0.00  0.00    +0.000 A 
ATOM      4  C   UNL     1       3.301   6.935  18.321  0.00  0.00    +0.000 A 
ATOM      5  C   UNL     1       2.943   7.999  17.490  0.00  0.00    +0.000 A 
ATOM      6  C   UNL     1       2.026   8.952  17.946  0.00  0.00    +0.000 A 
ENDROOT
BRANCH   1  10
ATOM      7  N   UNL     1      -0.547  11.264  21.040  0.00  0.00    +0.000 N 
ATOM      8  C   UNL     1      -1.292  11.232  19.806  0.00  0.00    +0.000 C 
ATOM      9  C   UNL     1      -0.316  10.584  18.839  0.00  0.00    +0.000 C 
ATOM     10  N   UNL     1       0.556   9.820  19.701  0.00  0.00    +0.000 N 
ATOM     11  C   UNL     1       0.514  10.353  21.012  0.00  0.00    +0.000 C 
ATOM     12  O   UNL     1       1.275  10.141  21.942  0.00  0.00    +0.000 OA
BRANCH   7  14
ATOM     13  C   UNL     1      -1.806  11.841  23.054  0.00  0.00    +0.000 C 
ATOM     14  C   UNL     1      -0.731  12.267  22.065  0.00  0.00    +0.000 C 
ENDBRANCH   7  14
ENDBRANCH   1  10
BRANCH   4  15
ATOM     15  S   UNL     1       4.373   5.654  17.717  0.00  0.00    +0.000 S 
ATOM     16  O   UNL     1       4.830   6.079  16.406  0.00  0.00    +0.000 OA
ATOM     17  O   UNL     1       5.326   5.380  18.774  0.00  0.00    +0.000 OA
BRANCH  15  18
ATOM     18  O   UNL     1       3.394   4.358  17.542  0.00  0.00    +0.000 OA
BRANCH  18  19
ATOM     19  C   UNL     1       2.755   3.792  18.622  0.00  0.00    +0.000 A 
ATOM     20  C   UNL     1       1.356   3.769  18.567  0.00  0.00    +0.000 A 
ATOM     21  C   UNL     1       0.613   3.231  19.623  0.00  0.00    +0.000 A 
ATOM     22  C   UNL     1       1.266   2.710  20.738  0.00  0.00    +0.000 A 
ATOM     23  C   UNL     1       2.654   2.729  20.782  0.00  0.00    +0.000 A 
ATOM     24  F   UNL     1       3.286   2.228  21.852  0.00  0.00    +0.000 F 
ATOM     25  C   UNL     1       3.402   3.261  19.740  0.00  0.00    +0.000 A 
ENDBRANCH  18  19
ENDBRANCH  15  18
ENDBRANCH   4  15
TORSDOF 5
ENDMDL
MODEL 8
REMARK VINA RESULT:      -7.4      1.432      1.905
REMARK  Name = 
REMARK  6 active torsions:
REMARK  status: ('A' for Active; 'I' for Inactive)
REMARK    1  A    between atoms: C_1  and  C_2
REMARK    2  A    between atoms: C_2  and  N_3
REMARK    3  A    between atoms: N_6  and  C_7
REMARK    4  A    between atoms: C_10  and  S_11
REMARK    5  A    between atoms: S_11  and  O_14
REMARK    6  A    between atoms: O_14  and  C_15
REMARK                            x       y       z     vdW  Elec       q    Type
REMARK                         _______ _______ _______ _____ _____    ______ ____
ROOT
ATOM      1  C   UNL     1       2.490   7.190  18.760  0.00  0.00    +0.000 A 
ATOM      2  C   UNL     1       2.247   8.242  17.866  0.00  0.00    +0.000 A 
ATOM      3  C   UNL     1       1.602   9.407  18.282  0.00  0.00    +0.000 A 
ATOM      4  C   UNL     1       1.218   9.539  19.616  0.00  0.00    +0.000 A 
ATOM      5  C   UNL     1       1.435   8.499  20.522  0.00  0.00    +0.000 A 
ATOM      6  C   UNL     1       2.059   7.324  20.089  0.00  0.00    +0.000 A 
ENDROOT
BRANCH   1  10
ATOM      7  N   UNL     1       3.529   3.837  17.860  0.00  0.00    +0.000 N 
ATOM      8  C   UNL     1       4.740   4.540  17.519  0.00  0.00    +0.000 C 
ATOM      9  C   UNL     1       4.286   5.989  17.464  0.00  0.00    +0.000 C 
ATOM     10  N   UNL     1       3.120   6.010  18.317  0.00  0.00    +0.000 N 
ATOM     11  C   UNL     1       2.584   4.703  18.420  0.00  0.00    +0.000 C 
ATOM     12  O   UNL     1       1.491   4.362  18.842  0.00  0.00    +0.000 OA
BRANCH   7  14
ATOM     13  C   UNL     1       3.556   1.504  18.587  0.00  0.00    +0.000 C 
ATOM     14  C   UNL     1       3.249   2.476  17.458  0.00  0.00    +0.000 C 
ENDBRANCH   7  14
ENDBRANCH   1  10
BRANCH   4  15
ATOM     15  S   UNL     1       0.324  10.989  20.120  0.00  0.00    +0.000 S 
ATOM     16  O   UNL     1      -0.725  10.539  21.016  0.00  0.00    +0.000 OA
ATOM     17  O   UNL     1       1.312  11.949  20.568  0.00  0.00    +0.000 OA
BRANCH  15  18
ATOM     18  O   UNL     1      -0.359  11.540  18.741  0.00  0.00    +0.000 OA
BRANCH  18  19
ATOM     19  C   UNL     1      -1.676  11.277  18.439  0.00  0.00    +0.000 A 
ATOM     20  C   UNL     1      -1.910  10.154  17.635  0.00  0.00    +0.000 A 
ATOM     21  C   UNL     1      -3.213   9.812  17.257  0.00  0.00    +0.000 A 
ATOM     22  C   UNL     1      -4.287  10.589  17.684  0.00  0.00    +0.000 A 
ATOM     23  C   UNL     1      -4.048  11.696  18.487  0.00  0.00    +0.000 A 
ATOM     24  F   UNL     1      -5.079  12.445  18.900  0.00  0.00    +0.000 F 
ATOM     25  C   UNL     1      -2.760  12.047  18.868  0.00  0.00    +0.000 A 
ENDBRANCH  18  19
ENDBRANCH  15  18
ENDBRANCH   4  15
TORSDOF 5
ENDMDL
MODEL 9
REMARK VINA RESULT:      -7.4      4.228      8.502
REMARK  Name = 
REMARK  6 active torsions:
REMARK  status: ('A' for Active; 'I' for Inactive)
REMARK    1  A    between atoms: C_1  and  C_2
REMARK    2  A    between atoms: C_2  and  N_3
REMARK    3  A    between atoms: N_6  and  C_7
REMARK    4  A    between atoms: C_10  and  S_11
REMARK    5  A    between atoms: S_11  and  O_14
REMARK    6  A    between atoms: O_14  and  C_15
REMARK                            x       y       z     vdW  Elec       q    Type
REMARK                         _______ _______ _______ _____ _____    ______ ____
ROOT
ATOM      1  C   UNL     1       1.913   7.439  19.732  0.00  0.00    +0.000 A 
ATOM      2  C   UNL     1       2.553   7.160  18.517  0.00  0.00    +0.000 A 
ATOM      3  C   UNL     1       3.081   5.896  18.254  0.00  0.00    +0.000 A 
ATOM      4  C   UNL     1       2.946   4.886  19.205  0.00  0.00    +0.000 A 
ATOM      5  C   UNL     1       2.327   5.143  20.430  0.00  0.00    +0.000 A 
ATOM      6  C   UNL     1       1.823   6.421  20.694  0.00  0.00    +0.000 A 
ENDROOT
BRANCH   1  10
ATOM      7  N   UNL     1       0.553  10.798  19.700  0.00  0.00    +0.000 N 
ATOM      8  C   UNL     1       0.828  10.688  21.110  0.00  0.00    +0.000 C 
ATOM      9  C   UNL     1       1.012   9.192  21.302  0.00  0.00    +0.000 C 
ATOM     10  N   UNL     1       1.407   8.729  19.992  0.00  0.00    +0.000 N 
ATOM     11  C   UNL     1       0.979   9.657  19.012  0.00  0.00    +0.000 C 
ATOM     12  O   UNL     1       0.911   9.507  17.803  0.00  0.00    +0.000 OA
BRANCH   7  14
ATOM     13  C   UNL     1      -1.737  11.468  19.169  0.00  0.00    +0.000 C 
ATOM     14  C   UNL     1      -0.263  11.841  19.118  0.00  0.00    +0.000 C 
ENDBRANCH   7  14
ENDBRANCH   1  10
BRANCH   4  15
ATOM     15  S   UNL     1       3.694   3.303  18.899  0.00  0.00    +0.000 S 
ATOM     16  O   UNL     1       3.190   2.402  19.919  0.00  0.00    +0.000 OA
ATOM     17  O   UNL     1       3.486   3.014  17.494  0.00  0.00    +0.000 OA
BRANCH  15  18
ATOM     18  O   UNL     1       5.288   3.555  19.154  0.00  0.00    +0.000 OA
BRANCH  18  19
ATOM     19  C   UNL     1       6.000   4.460  18.400  0.00  0.00    +0.000 A 
ATOM     20  C   UNL     1       6.633   5.489  19.107  0.00  0.00    +0.000 A 
ATOM     21  C   UNL     1       7.367   6.469  18.431  0.00  0.00    +0.000 A 
ATOM     22  C   UNL     1       7.475   6.421  17.043  0.00  0.00    +0.000 A 
ATOM     23  C   UNL     1       6.852   5.393  16.348  0.00  0.00    +0.000 A 
ATOM     24  F   UNL     1       6.954   5.344  15.013  0.00  0.00    +0.000 F 
ATOM     25  C   UNL     1       6.119   4.415  17.008  0.00  0.00    +0.000 A 
ENDBRANCH  18  19
ENDBRANCH  15  18
ENDBRANCH   4  15
TORSDOF 5
ENDMDL
