MODEL 1
REMARK VINA RESULT:      -6.7      0.000      0.000
REMARK  Name = 
REMARK  14 active torsions:
REMARK  status: ('A' for Active; 'I' for Inactive)
REMARK    1  A    between atoms: C_1  and  C_2
REMARK    2  A    between atoms: C_2  and  O_3
REMARK    3  A    between atoms: O_3  and  C_4
REMARK    4  A    between atoms: C_4  and  C_6
REMARK    5  A    between atoms: C_6  and  C_7
REMARK    6  A    between atoms: C_7  and  C_8
REMARK    7  A    between atoms: C_8  and  N_9
REMARK    8  A    between atoms: C_10  and  C_12
REMARK    9  A    between atoms: C_12  and  O_13
REMARK   10  A    between atoms: O_13  and  C_14
REMARK   11  A    between atoms: C_14  and  C_16
REMARK   12  A    between atoms: C_16  and  C_17
REMARK   13  A    between atoms: C_17  and  C_18
REMARK   14  A    between atoms: C_18  and  C_20
REMARK                            x       y       z     vdW  Elec       q    Type
REMARK                         _______ _______ _______ _____ _____    ______ ____
ROOT
ATOM      1  O   UNL     1       1.232   2.323  19.843  0.00  0.00    +0.000 OA
ENDROOT
BRANCH   1   2
ATOM      2  C   UNL     1       1.614   3.176  20.839  0.00  0.00    +0.000 C 
ATOM      3  O   UNL     1       2.202   2.845  21.861  0.00  0.00    +0.000 OA
BRANCH   2   4
ATOM      4  C   UNL     1       1.126   4.572  20.557  0.00  0.00    +0.000 C 
BRANCH   4   5
ATOM      5  C   UNL     1       2.200   5.613  20.865  0.00  0.00    +0.000 C 
BRANCH   5   6
ATOM      6  C   UNL     1       2.576   6.433  19.641  0.00  0.00    +0.000 C 
ATOM      7  O   UNL     1       3.350   6.006  18.785  0.00  0.00    +0.000 OA
BRANCH   6   8
ATOM      8  C   UNL     1       1.964   7.788  19.469  0.00  0.00    +0.000 A 
ATOM      9  C   UNL     1       1.854   8.404  18.214  0.00  0.00    +0.000 A 
ATOM     10  C   UNL     1       1.291   9.679  18.104  0.00  0.00    +0.000 A 
ATOM     11  C   UNL     1       0.837  10.332  19.244  0.00  0.00    +0.000 A 
ATOM     12  F   UNL     1       0.298  11.553  19.132  0.00  0.00    +0.000 F 
ATOM     13  C   UNL     1       0.937   9.738  20.496  0.00  0.00    +0.000 A 
ATOM     14  C   UNL     1       1.502   8.466  20.609  0.00  0.00    +0.000 A 
ENDBRANCH   6   8
ENDBRANCH   5   6
ENDBRANCH   4   5
ENDBRANCH   2   4
ENDBRANCH   1   2
BRANCH   1  15
ATOM     15  C   UNL     1       1.484   2.819  18.529  0.00  0.00    +0.000 C 
BRANCH  15  17
ATOM     16  N   UNL     1       3.511   3.495  17.329  0.00  0.00    +0.000 N 
ATOM     17  C   UNL     1       2.868   2.460  17.981  0.00  0.00    +0.000 C 
ATOM     18  O   UNL     1       3.383   1.366  18.170  0.00  0.00    +0.000 OA
ATOM     19  H   UNL     1       3.030   4.382  17.234  0.00  0.00    +0.000 HD
BRANCH  16  20
ATOM     20  C   UNL     1       4.823   3.319  16.736  0.00  0.00    +0.000 C 
BRANCH  20  21
ATOM     21  C   UNL     1       5.522   4.643  16.439  0.00  0.00    +0.000 C 
BRANCH  21  22
ATOM     22  C   UNL     1       6.942   4.703  16.994  0.00  0.00    +0.000 C 
BRANCH  22  23
ATOM     23  C   UNL     1       6.947   5.142  18.438  0.00  0.00    +0.000 C 
ATOM     24  O   UNL     1       6.400   4.540  19.352  0.00  0.00    +0.000 OA
BRANCH  23  25
ATOM     25  O   UNL     1       7.513   6.379  18.539  0.00  0.00    +0.000 OA
BRANCH  25  27
ATOM     26  C   UNL     1       7.997   8.546  17.683  0.00  0.00    +0.000 C 
ATOM     27  C   UNL     1       7.193   7.279  17.469  0.00  0.00    +0.000 C 
ENDBRANCH  25  27
ENDBRANCH  23  25
ENDBRANCH  22  23
ENDBRANCH  21  22
ENDBRANCH  20  21
ENDBRANCH  16  20
ENDBRANCH  15  17
ENDBRANCH   1  15
TORSDOF 13
ENDMDL
MODEL 2
REMARK VINA RESULT:      -6.5      1.777      2.921
REMARK  Name = 
REMARK  14 active torsions:
REMARK  status: ('A' for Active; 'I' for Inactive)
REMARK    1  A    between atoms: C_1  and  C_2
REMARK    2  A    between atoms: C_2  and  O_3
REMARK    3  A    between atoms: O_3  and  C_4
REMARK    4  A    between atoms: C_4  and  C_6
REMARK    5  A    between atoms: C_6  and  C_7
REMARK    6  A    between atoms: C_7  and  C_8
REMARK    7  A    between atoms: C_8  and  N_9
REMARK    8  A    between atoms: C_10  and  C_12
REMARK    9  A    between atoms: C_12  and  O_13
REMARK   10  A    between atoms: O_13  and  C_14
REMARK   11  A    between atoms: C_14  and  C_16
REMARK   12  A    between atoms: C_16  and  C_17
REMARK   13  A    between atoms: C_17  and  C_18
REMARK   14  A    between atoms: C_18  and  C_20
REMARK                            x       y       z     vdW  Elec       q    Type
REMARK                         _______ _______ _______ _____ _____    ______ ____
ROOT
ATOM      1  O   UNL     1       2.284   1.644  18.208  0.00  0.00    +0.000 OA
ENDROOT
BRANCH   1   2
ATOM      2  C   UNL     1       1.155   2.145  18.790  0.00  0.00    +0.000 C 
ATOM      3  O   UNL     1       0.106   2.379  18.204  0.00  0.00    +0.000 OA
BRANCH   2   4
ATOM      4  C   UNL     1       1.403   2.463  20.241  0.00  0.00    +0.000 C 
BRANCH   4   5
ATOM      5  C   UNL     1       0.861   3.841  20.611  0.00  0.00    +0.000 C 
BRANCH   5   6
ATOM      6  C   UNL     1       1.972   4.853  20.849  0.00  0.00    +0.000 C 
ATOM      7  O   UNL     1       2.860   4.658  21.677  0.00  0.00    +0.000 OA
BRANCH   6   8
ATOM      8  C   UNL     1       1.989   6.106  20.032  0.00  0.00    +0.000 A 
ATOM      9  C   UNL     1       1.693   7.361  20.584  0.00  0.00    +0.000 A 
ATOM     10  C   UNL     1       1.705   8.503  19.778  0.00  0.00    +0.000 A 
ATOM     11  C   UNL     1       2.015   8.391  18.428  0.00  0.00    +0.000 A 
ATOM     12  F   UNL     1       2.025   9.489  17.661  0.00  0.00    +0.000 F 
ATOM     13  C   UNL     1       2.312   7.157  17.864  0.00  0.00    +0.000 A 
ATOM     14  C   UNL     1       2.299   6.013  18.665  0.00  0.00    +0.000 A 
ENDBRANCH   6   8
ENDBRANCH   5   6
ENDBRANCH   4   5
ENDBRANCH   2   4
ENDBRANCH   1   2
BRANCH   1  15
ATOM     15  C   UNL     1       3.482   1.929  18.929  0.00  0.00    +0.000 C 
BRANCH  15  17
ATOM     16  N   UNL     1       5.420   3.424  19.062  0.00  0.00    +0.000 N 
ATOM     17  C   UNL     1       4.361   3.003  18.281  0.00  0.00    +0.000 C 
ATOM     18  O   UNL     1       4.173   3.399  17.139  0.00  0.00    +0.000 OA
ATOM     19  H   UNL     1       5.525   3.030  19.990  0.00  0.00    +0.000 HD
BRANCH  16  20
ATOM     20  C   UNL     1       6.340   4.447  18.605  0.00  0.00    +0.000 C 
BRANCH  20  21
ATOM     21  C   UNL     1       5.751   5.852  18.680  0.00  0.00    +0.000 C 
BRANCH  21  22
ATOM     22  C   UNL     1       5.695   6.548  17.323  0.00  0.00    +0.000 C 
BRANCH  22  23
ATOM     23  C   UNL     1       7.071   6.679  16.719  0.00  0.00    +0.000 C 
ATOM     24  O   UNL     1       7.849   7.597  16.947  0.00  0.00    +0.000 OA
BRANCH  23  25
ATOM     25  O   UNL     1       7.250   5.714  15.773  0.00  0.00    +0.000 OA
BRANCH  25  27
ATOM     26  C   UNL     1       6.338   4.088  14.295  0.00  0.00    +0.000 C 
ATOM     27  C   UNL     1       6.086   5.410  14.992  0.00  0.00    +0.000 C 
ENDBRANCH  25  27
ENDBRANCH  23  25
ENDBRANCH  22  23
ENDBRANCH  21  22
ENDBRANCH  20  21
ENDBRANCH  16  20
ENDBRANCH  15  17
ENDBRANCH   1  15
TORSDOF 13
ENDMDL
MODEL 3
REMARK VINA RESULT:      -6.5      1.792      2.823
REMARK  Name = 
REMARK  14 active torsions:
REMARK  status: ('A' for Active; 'I' for Inactive)
REMARK    1  A    between atoms: C_1  and  C_2
REMARK    2  A    between atoms: C_2  and  O_3
REMARK    3  A    between atoms: O_3  and  C_4
REMARK    4  A    between atoms: C_4  and  C_6
REMARK    5  A    between atoms: C_6  and  C_7
REMARK    6  A    between atoms: C_7  and  C_8
REMARK    7  A    between atoms: C_8  and  N_9
REMARK    8  A    between atoms: C_10  and  C_12
REMARK    9  A    between atoms: C_12  and  O_13
REMARK   10  A    between atoms: O_13  and  C_14
REMARK   11  A    between atoms: C_14  and  C_16
REMARK   12  A    between atoms: C_16  and  C_17
REMARK   13  A    between atoms: C_17  and  C_18
REMARK   14  A    between atoms: C_18  and  C_20
REMARK                            x       y       z     vdW  Elec       q    Type
REMARK                         _______ _______ _______ _____ _____    ______ ____
ROOT
ATOM      1  O   UNL     1       3.029   2.940  17.650  0.00  0.00    +0.000 OA
ENDROOT
BRANCH   1   2
ATOM      2  C   UNL     1       1.728   3.135  18.011  0.00  0.00    +0.000 C 
ATOM      3  O   UNL     1       0.944   2.248  18.326  0.00  0.00    +0.000 OA
BRANCH   2   4
ATOM      4  C   UNL     1       1.353   4.588  17.880  0.00  0.00    +0.000 C 
BRANCH   4   5
ATOM      5  C   UNL     1       2.590   5.480  17.813  0.00  0.00    +0.000 C 
BRANCH   5   6
ATOM      6  C   UNL     1       2.772   6.309  19.075  0.00  0.00    +0.000 C 
ATOM      7  O   UNL     1       3.454   5.913  20.019  0.00  0.00    +0.000 OA
BRANCH   6   8
ATOM      8  C   UNL     1       2.115   7.651  19.154  0.00  0.00    +0.000 A 
ATOM      9  C   UNL     1       1.539   8.132  20.339  0.00  0.00    +0.000 A 
ATOM     10  C   UNL     1       0.921   9.386  20.361  0.00  0.00    +0.000 A 
ATOM     11  C   UNL     1       0.883  10.156  19.205  0.00  0.00    +0.000 A 
ATOM     12  F   UNL     1       0.290  11.357  19.232  0.00  0.00    +0.000 F 
ATOM     13  C   UNL     1       1.449   9.697  18.022  0.00  0.00    +0.000 A 
ATOM     14  C   UNL     1       2.065   8.444  17.995  0.00  0.00    +0.000 A 
ENDBRANCH   6   8
ENDBRANCH   5   6
ENDBRANCH   4   5
ENDBRANCH   2   4
ENDBRANCH   1   2
BRANCH   1  15
ATOM     15  C   UNL     1       3.728   2.013  18.480  0.00  0.00    +0.000 C 
BRANCH  15  17
ATOM     16  N   UNL     1       5.411   3.759  18.838  0.00  0.00    +0.000 N 
ATOM     17  C   UNL     1       4.781   2.658  19.386  0.00  0.00    +0.000 C 
ATOM     18  O   UNL     1       4.991   2.265  20.525  0.00  0.00    +0.000 OA
ATOM     19  H   UNL     1       5.164   4.041  17.896  0.00  0.00    +0.000 HD
BRANCH  16  20
ATOM     20  C   UNL     1       6.445   4.477  19.557  0.00  0.00    +0.000 C 
BRANCH  20  21
ATOM     21  C   UNL     1       7.384   5.248  18.634  0.00  0.00    +0.000 C 
BRANCH  21  22
ATOM     22  C   UNL     1       7.385   4.714  17.205  0.00  0.00    +0.000 C 
BRANCH  22  23
ATOM     23  C   UNL     1       6.967   5.780  16.222  0.00  0.00    +0.000 C 
ATOM     24  O   UNL     1       6.270   6.747  16.498  0.00  0.00    +0.000 OA
BRANCH  23  25
ATOM     25  O   UNL     1       7.350   5.419  14.965  0.00  0.00    +0.000 OA
BRANCH  25  27
ATOM     26  C   UNL     1       5.333   4.380  14.248  0.00  0.00    +0.000 C 
ATOM     27  C   UNL     1       6.812   4.172  14.503  0.00  0.00    +0.000 C 
ENDBRANCH  25  27
ENDBRANCH  23  25
ENDBRANCH  22  23
ENDBRANCH  21  22
ENDBRANCH  20  21
ENDBRANCH  16  20
ENDBRANCH  15  17
ENDBRANCH   1  15
TORSDOF 13
ENDMDL
MODEL 4
REMARK VINA RESULT:      -6.4      1.761      2.578
REMARK  Name = 
REMARK  14 active torsions:
REMARK  status: ('A' for Active; 'I' for Inactive)
REMARK    1  A    between atoms: C_1  and  C_2
REMARK    2  A    between atoms: C_2  and  O_3
REMARK    3  A    between atoms: O_3  and  C_4
REMARK    4  A    between atoms: C_4  and  C_6
REMARK    5  A    between atoms: C_6  and  C_7
REMARK    6  A    between atoms: C_7  and  C_8
REMARK    7  A    between atoms: C_8  and  N_9
REMARK    8  A    between atoms: C_10  and  C_12
REMARK    9  A    between atoms: C_12  and  O_13
REMARK   10  A    between atoms: O_13  and  C_14
REMARK   11  A    between atoms: C_14  and  C_16
REMARK   12  A    between atoms: C_16  and  C_17
REMARK   13  A    between atoms: C_17  and  C_18
REMARK   14  A    between atoms: C_18  and  C_20
REMARK                            x       y       z     vdW  Elec       q    Type
REMARK                         _______ _______ _______ _____ _____    ______ ____
ROOT
ATOM      1  O   UNL     1       2.576   2.596  19.934  0.00  0.00    +0.000 OA
ENDROOT
BRANCH   1   2
ATOM      2  C   UNL     1       1.939   3.039  21.057  0.00  0.00    +0.000 C 
ATOM      3  O   UNL     1       1.818   2.402  22.095  0.00  0.00    +0.000 OA
BRANCH   2   4
ATOM      4  C   UNL     1       1.316   4.389  20.815  0.00  0.00    +0.000 C 
BRANCH   4   5
ATOM      5  C   UNL     1       2.378   5.464  20.593  0.00  0.00    +0.000 C 
BRANCH   5   6
ATOM      6  C   UNL     1       2.208   6.175  19.260  0.00  0.00    +0.000 C 
ATOM      7  O   UNL     1       2.310   5.580  18.188  0.00  0.00    +0.000 OA
BRANCH   6   8
ATOM      8  C   UNL     1       1.886   7.636  19.262  0.00  0.00    +0.000 A 
ATOM      9  C   UNL     1       1.361   8.284  20.390  0.00  0.00    +0.000 A 
ATOM     10  C   UNL     1       1.059   9.648  20.340  0.00  0.00    +0.000 A 
ATOM     11  C   UNL     1       1.285  10.362  19.169  0.00  0.00    +0.000 A 
ATOM     12  F   UNL     1       0.995  11.668  19.127  0.00  0.00    +0.000 F 
ATOM     13  C   UNL     1       1.806   9.738  18.041  0.00  0.00    +0.000 A 
ATOM     14  C   UNL     1       2.105   8.375  18.087  0.00  0.00    +0.000 A 
ENDBRANCH   6   8
ENDBRANCH   5   6
ENDBRANCH   4   5
ENDBRANCH   2   4
ENDBRANCH   1   2
BRANCH   1  15
ATOM     15  C   UNL     1       3.992   2.486  20.077  0.00  0.00    +0.000 C 
BRANCH  15  17
ATOM     16  N   UNL     1       4.290   3.085  17.719  0.00  0.00    +0.000 N 
ATOM     17  C   UNL     1       4.788   3.228  19.000  0.00  0.00    +0.000 C 
ATOM     18  O   UNL     1       5.744   3.943  19.270  0.00  0.00    +0.000 OA
ATOM     19  H   UNL     1       3.478   2.496  17.578  0.00  0.00    +0.000 HD
BRANCH  16  20
ATOM     20  C   UNL     1       4.935   3.710  16.581  0.00  0.00    +0.000 C 
BRANCH  20  21
ATOM     21  C   UNL     1       4.722   5.220  16.533  0.00  0.00    +0.000 C 
BRANCH  21  22
ATOM     22  C   UNL     1       5.847   5.957  15.812  0.00  0.00    +0.000 C 
BRANCH  22  23
ATOM     23  C   UNL     1       7.078   5.093  15.693  0.00  0.00    +0.000 C 
ATOM     24  O   UNL     1       7.700   4.630  16.640  0.00  0.00    +0.000 OA
BRANCH  23  25
ATOM     25  O   UNL     1       7.475   5.038  14.390  0.00  0.00    +0.000 OA
BRANCH  25  27
ATOM     26  C   UNL     1       7.106   4.382  12.133  0.00  0.00    +0.000 C 
ATOM     27  C   UNL     1       6.766   4.090  13.581  0.00  0.00    +0.000 C 
ENDBRANCH  25  27
ENDBRANCH  23  25
ENDBRANCH  22  23
ENDBRANCH  21  22
ENDBRANCH  20  21
ENDBRANCH  16  20
ENDBRANCH  15  17
ENDBRANCH   1  15
TORSDOF 13
ENDMDL
MODEL 5
REMARK VINA RESULT:      -6.4      2.527      5.723
REMARK  Name = 
REMARK  14 active torsions:
REMARK  status: ('A' for Active; 'I' for Inactive)
REMARK    1  A    between atoms: C_1  and  C_2
REMARK    2  A    between atoms: C_2  and  O_3
REMARK    3  A    between atoms: O_3  and  C_4
REMARK    4  A    between atoms: C_4  and  C_6
REMARK    5  A    between atoms: C_6  and  C_7
REMARK    6  A    between atoms: C_7  and  C_8
REMARK    7  A    between atoms: C_8  and  N_9
REMARK    8  A    between atoms: C_10  and  C_12
REMARK    9  A    between atoms: C_12  and  O_13
REMARK   10  A    between atoms: O_13  and  C_14
REMARK   11  A    between atoms: C_14  and  C_16
REMARK   12  A    between atoms: C_16  and  C_17
REMARK   13  A    between atoms: C_17  and  C_18
REMARK   14  A    between atoms: C_18  and  C_20
REMARK                            x       y       z     vdW  Elec       q    Type
REMARK                         _______ _______ _______ _____ _____    ______ ____
ROOT
ATOM      1  O   UNL     1       1.658   2.035  18.981  0.00  0.00    +0.000 OA
ENDROOT
BRANCH   1   2
ATOM      2  C   UNL     1       2.949   2.059  18.540  0.00  0.00    +0.000 C 
ATOM      3  O   UNL     1       3.909   1.600  19.148  0.00  0.00    +0.000 OA
BRANCH   2   4
ATOM      4  C   UNL     1       3.053   2.814  17.242  0.00  0.00    +0.000 C 
BRANCH   4   5
ATOM      5  C   UNL     1       3.725   4.171  17.437  0.00  0.00    +0.000 C 
BRANCH   5   6
ATOM      6  C   UNL     1       5.120   4.215  16.832  0.00  0.00    +0.000 C 
ATOM      7  O   UNL     1       5.451   3.473  15.908  0.00  0.00    +0.000 OA
BRANCH   6   8
ATOM      8  C   UNL     1       6.105   5.206  17.367  0.00  0.00    +0.000 A 
ATOM      9  C   UNL     1       6.998   4.887  18.401  0.00  0.00    +0.000 A 
ATOM     10  C   UNL     1       7.889   5.851  18.881  0.00  0.00    +0.000 A 
ATOM     11  C   UNL     1       7.890   7.126  18.328  0.00  0.00    +0.000 A 
ATOM     12  F   UNL     1       8.746   8.045  18.792  0.00  0.00    +0.000 F 
ATOM     13  C   UNL     1       7.013   7.460  17.302  0.00  0.00    +0.000 A 
ATOM     14  C   UNL     1       6.120   6.500  16.822  0.00  0.00    +0.000 A 
ENDBRANCH   6   8
ENDBRANCH   5   6
ENDBRANCH   4   5
ENDBRANCH   2   4
ENDBRANCH   1   2
BRANCH   1  15
ATOM     15  C   UNL     1       1.526   2.170  20.396  0.00  0.00    +0.000 C 
BRANCH  15  17
ATOM     16  N   UNL     1       1.296   4.597  20.140  0.00  0.00    +0.000 N 
ATOM     17  C   UNL     1       1.815   3.580  20.919  0.00  0.00    +0.000 C 
ATOM     18  O   UNL     1       2.397   3.778  21.977  0.00  0.00    +0.000 OA
ATOM     19  H   UNL     1       0.802   4.352  19.289  0.00  0.00    +0.000 HD
BRANCH  16  20
ATOM     20  C   UNL     1       1.491   5.991  20.485  0.00  0.00    +0.000 C 
BRANCH  20  21
ATOM     21  C   UNL     1       2.680   6.620  19.764  0.00  0.00    +0.000 C 
BRANCH  21  22
ATOM     22  C   UNL     1       2.331   7.124  18.367  0.00  0.00    +0.000 C 
BRANCH  22  23
ATOM     23  C   UNL     1       1.943   8.582  18.393  0.00  0.00    +0.000 C 
ATOM     24  O   UNL     1       2.006   9.338  17.433  0.00  0.00    +0.000 OA
BRANCH  23  25
ATOM     25  O   UNL     1       1.664   8.958  19.674  0.00  0.00    +0.000 OA
BRANCH  25  27
ATOM     26  C   UNL     1      -0.170   9.304  21.150  0.00  0.00    +0.000 C 
ATOM     27  C   UNL     1       0.457   9.716  19.832  0.00  0.00    +0.000 C 
ENDBRANCH  25  27
ENDBRANCH  23  25
ENDBRANCH  22  23
ENDBRANCH  21  22
ENDBRANCH  20  21
ENDBRANCH  16  20
ENDBRANCH  15  17
ENDBRANCH   1  15
TORSDOF 13
ENDMDL
MODEL 6
REMARK VINA RESULT:      -6.4      3.681      6.301
REMARK  Name = 
REMARK  14 active torsions:
REMARK  status: ('A' for Active; 'I' for Inactive)
REMARK    1  A    between atoms: C_1  and  C_2
REMARK    2  A    between atoms: C_2  and  O_3
REMARK    3  A    between atoms: O_3  and  C_4
REMARK    4  A    between atoms: C_4  and  C_6
REMARK    5  A    between atoms: C_6  and  C_7
REMARK    6  A    between atoms: C_7  and  C_8
REMARK    7  A    between atoms: C_8  and  N_9
REMARK    8  A    between atoms: C_10  and  C_12
REMARK    9  A    between atoms: C_12  and  O_13
REMARK   10  A    between atoms: O_13  and  C_14
REMARK   11  A    between atoms: C_14  and  C_16
REMARK   12  A    between atoms: C_16  and  C_17
REMARK   13  A    between atoms: C_17  and  C_18
REMARK   14  A    between atoms: C_18  and  C_20
REMARK                            x       y       z     vdW  Elec       q    Type
REMARK                         _______ _______ _______ _____ _____    ______ ____
ROOT
ATOM      1  O   UNL     1       7.478   4.959  15.931  0.00  0.00    +0.000 OA
ENDROOT
BRANCH   1   2
ATOM      2  C   UNL     1       6.332   4.452  15.390  0.00  0.00    +0.000 C 
ATOM      3  O   UNL     1       6.284   3.543  14.570  0.00  0.00    +0.000 OA
BRANCH   2   4
ATOM      4  C   UNL     1       5.132   5.227  15.866  0.00  0.00    +0.000 C 
BRANCH   4   5
ATOM      5  C   UNL     1       4.193   4.351  16.692  0.00  0.00    +0.000 C 
BRANCH   5   6
ATOM      6  C   UNL     1       3.416   5.154  17.725  0.00  0.00    +0.000 C 
ATOM      7  O   UNL     1       3.335   6.380  17.666  0.00  0.00    +0.000 OA
BRANCH   6   8
ATOM      8  C   UNL     1       2.716   4.423  18.825  0.00  0.00    +0.000 A 
ATOM      9  C   UNL     1       1.856   3.344  18.575  0.00  0.00    +0.000 A 
ATOM     10  C   UNL     1       1.209   2.700  19.635  0.00  0.00    +0.000 A 
ATOM     11  C   UNL     1       1.425   3.131  20.938  0.00  0.00    +0.000 A 
ATOM     12  F   UNL     1       0.804   2.511  21.949  0.00  0.00    +0.000 F 
ATOM     13  C   UNL     1       2.275   4.198  21.206  0.00  0.00    +0.000 A 
ATOM     14  C   UNL     1       2.920   4.845  20.150  0.00  0.00    +0.000 A 
ENDBRANCH   6   8
ENDBRANCH   5   6
ENDBRANCH   4   5
ENDBRANCH   2   4
ENDBRANCH   1   2
BRANCH   1  15
ATOM     15  C   UNL     1       7.541   4.859  17.353  0.00  0.00    +0.000 C 
BRANCH  15  17
ATOM     16  N   UNL     1       7.577   7.307  17.234  0.00  0.00    +0.000 N 
ATOM     17  C   UNL     1       7.610   6.209  18.072  0.00  0.00    +0.000 C 
ATOM     18  O   UNL     1       7.624   6.299  19.292  0.00  0.00    +0.000 OA
ATOM     19  H   UNL     1       7.539   7.152  16.233  0.00  0.00    +0.000 HD
BRANCH  16  20
ATOM     20  C   UNL     1       7.649   8.659  17.751  0.00  0.00    +0.000 C 
BRANCH  20  21
ATOM     21  C   UNL     1       8.951   8.941  18.495  0.00  0.00    +0.000 C 
BRANCH  21  22
ATOM     22  C   UNL     1       9.016  10.355  19.066  0.00  0.00    +0.000 C 
BRANCH  22  23
ATOM     23  C   UNL     1       9.546  11.332  18.046  0.00  0.00    +0.000 C 
ATOM     24  O   UNL     1      10.675  11.306  17.575  0.00  0.00    +0.000 OA
BRANCH  23  25
ATOM     25  O   UNL     1       8.636  12.329  17.852  0.00  0.00    +0.000 OA
BRANCH  25  27
ATOM     26  C   UNL     1       9.491  14.542  18.035  0.00  0.00    +0.000 C 
ATOM     27  C   UNL     1       8.748  13.435  18.757  0.00  0.00    +0.000 C 
ENDBRANCH  25  27
ENDBRANCH  23  25
ENDBRANCH  22  23
ENDBRANCH  21  22
ENDBRANCH  20  21
ENDBRANCH  16  20
ENDBRANCH  15  17
ENDBRANCH   1  15
TORSDOF 13
ENDMDL
MODEL 7
REMARK VINA RESULT:      -6.4      2.361      3.142
REMARK  Name = 
REMARK  14 active torsions:
REMARK  status: ('A' for Active; 'I' for Inactive)
REMARK    1  A    between atoms: C_1  and  C_2
REMARK    2  A    between atoms: C_2  and  O_3
REMARK    3  A    between atoms: O_3  and  C_4
REMARK    4  A    between atoms: C_4  and  C_6
REMARK    5  A    between atoms: C_6  and  C_7
REMARK    6  A    between atoms: C_7  and  C_8
REMARK    7  A    between atoms: C_8  and  N_9
REMARK    8  A    between atoms: C_10  and  C_12
REMARK    9  A    between atoms: C_12  and  O_13
REMARK   10  A    between atoms: O_13  and  C_14
REMARK   11  A    between atoms: C_14  and  C_16
REMARK   12  A    between atoms: C_16  and  C_17
REMARK   13  A    between atoms: C_17  and  C_18
REMARK   14  A    between atoms: C_18  and  C_20
REMARK                            x       y       z     vdW  Elec       q    Type
REMARK                         _______ _______ _______ _____ _____    ______ ____
ROOT
ATOM      1  O   UNL     1       2.988   2.397  19.786  0.00  0.00    +0.000 OA
ENDROOT
BRANCH   1   2
ATOM      2  C   UNL     1       2.494   2.948  20.933  0.00  0.00    +0.000 C 
ATOM      3  O   UNL     1       2.682   2.510  22.061  0.00  0.00    +0.000 OA
BRANCH   2   4
ATOM      4  C   UNL     1       1.602   4.120  20.617  0.00  0.00    +0.000 C 
BRANCH   4   5
ATOM      5  C   UNL     1       2.342   5.446  20.781  0.00  0.00    +0.000 C 
BRANCH   5   6
ATOM      6  C   UNL     1       2.164   6.357  19.576  0.00  0.00    +0.000 C 
ATOM      7  O   UNL     1       2.377   5.966  18.430  0.00  0.00    +0.000 OA
BRANCH   6   8
ATOM      8  C   UNL     1       1.695   7.760  19.800  0.00  0.00    +0.000 A 
ATOM      9  C   UNL     1       1.705   8.722  18.780  0.00  0.00    +0.000 A 
ATOM     10  C   UNL     1       1.273  10.026  19.040  0.00  0.00    +0.000 A 
ATOM     11  C   UNL     1       0.830  10.365  20.313  0.00  0.00    +0.000 A 
ATOM     12  F   UNL     1       0.417  11.615  20.556  0.00  0.00    +0.000 F 
ATOM     13  C   UNL     1       0.811   9.425  21.336  0.00  0.00    +0.000 A 
ATOM     14  C   UNL     1       1.245   8.122  21.080  0.00  0.00    +0.000 A 
ENDBRANCH   6   8
ENDBRANCH   5   6
ENDBRANCH   4   5
ENDBRANCH   2   4
ENDBRANCH   1   2
BRANCH   1  15
ATOM     15  C   UNL     1       4.389   2.595  19.604  0.00  0.00    +0.000 C 
BRANCH  15  17
ATOM     16  N   UNL     1       5.952   4.132  18.506  0.00  0.00    +0.000 N 
ATOM     17  C   UNL     1       4.745   3.467  18.397  0.00  0.00    +0.000 C 
ATOM     18  O   UNL     1       4.047   3.511  17.393  0.00  0.00    +0.000 OA
ATOM     19  H   UNL     1       6.488   4.026  19.360  0.00  0.00    +0.000 HD
BRANCH  16  20
ATOM     20  C   UNL     1       6.431   5.011  17.459  0.00  0.00    +0.000 C 
BRANCH  20  21
ATOM     21  C   UNL     1       6.988   4.255  16.257  0.00  0.00    +0.000 C 
BRANCH  21  22
ATOM     22  C   UNL     1       6.272   4.597  14.953  0.00  0.00    +0.000 C 
BRANCH  22  23
ATOM     23  C   UNL     1       7.257   4.936  13.861  0.00  0.00    +0.000 C 
ATOM     24  O   UNL     1       8.234   5.659  14.003  0.00  0.00    +0.000 OA
BRANCH  23  25
ATOM     25  O   UNL     1       6.807   4.446  12.671  0.00  0.00    +0.000 OA
BRANCH  25  27
ATOM     26  C   UNL     1       4.872   3.307  11.883  0.00  0.00    +0.000 C 
ATOM     27  C   UNL     1       6.105   3.199  12.758  0.00  0.00    +0.000 C 
ENDBRANCH  25  27
ENDBRANCH  23  25
ENDBRANCH  22  23
ENDBRANCH  21  22
ENDBRANCH  20  21
ENDBRANCH  16  20
ENDBRANCH  15  17
ENDBRANCH   1  15
TORSDOF 13
ENDMDL
MODEL 8
REMARK VINA RESULT:      -6.3      3.090      6.274
REMARK  Name = 
REMARK  14 active torsions:
REMARK  status: ('A' for Active; 'I' for Inactive)
REMARK    1  A    between atoms: C_1  and  C_2
REMARK    2  A    between atoms: C_2  and  O_3
REMARK    3  A    between atoms: O_3  and  C_4
REMARK    4  A    between atoms: C_4  and  C_6
REMARK    5  A    between atoms: C_6  and  C_7
REMARK    6  A    between atoms: C_7  and  C_8
REMARK    7  A    between atoms: C_8  and  N_9
REMARK    8  A    between atoms: C_10  and  C_12
REMARK    9  A    between atoms: C_12  and  O_13
REMARK   10  A    between atoms: O_13  and  C_14
REMARK   11  A    between atoms: C_14  and  C_16
REMARK   12  A    between atoms: C_16  and  C_17
REMARK   13  A    between atoms: C_17  and  C_18
REMARK   14  A    between atoms: C_18  and  C_20
REMARK                            x       y       z     vdW  Elec       q    Type
REMARK                         _______ _______ _______ _____ _____    ______ ____
ROOT
ATOM      1  O   UNL     1       2.569   2.455  21.145  0.00  0.00    +0.000 OA
ENDROOT
BRANCH   1   2
ATOM      2  C   UNL     1       3.466   2.388  20.119  0.00  0.00    +0.000 C 
ATOM      3  O   UNL     1       4.650   2.691  20.197  0.00  0.00    +0.000 OA
BRANCH   2   4
ATOM      4  C   UNL     1       2.780   1.980  18.841  0.00  0.00    +0.000 C 
BRANCH   4   5
ATOM      5  C   UNL     1       3.539   2.481  17.615  0.00  0.00    +0.000 C 
BRANCH   5   6
ATOM      6  C   UNL     1       3.379   3.979  17.410  0.00  0.00    +0.000 C 
ATOM      7  O   UNL     1       2.273   4.514  17.368  0.00  0.00    +0.000 OA
BRANCH   6   8
ATOM      8  C   UNL     1       4.609   4.821  17.279  0.00  0.00    +0.000 A 
ATOM      9  C   UNL     1       5.865   4.268  16.992  0.00  0.00    +0.000 A 
ATOM     10  C   UNL     1       6.990   5.093  16.896  0.00  0.00    +0.000 A 
ATOM     11  C   UNL     1       6.859   6.464  17.082  0.00  0.00    +0.000 A 
ATOM     12  F   UNL     1       7.940   7.248  16.988  0.00  0.00    +0.000 F 
ATOM     13  C   UNL     1       5.622   7.030  17.366  0.00  0.00    +0.000 A 
ATOM     14  C   UNL     1       4.496   6.209  17.466  0.00  0.00    +0.000 A 
ENDBRANCH   6   8
ENDBRANCH   5   6
ENDBRANCH   4   5
ENDBRANCH   2   4
ENDBRANCH   1   2
BRANCH   1  15
ATOM     15  C   UNL     1       2.464   3.749  21.738  0.00  0.00    +0.000 C 
BRANCH  15  17
ATOM     16  N   UNL     1       2.409   5.979  20.723  0.00  0.00    +0.000 N 
ATOM     17  C   UNL     1       1.740   4.779  20.866  0.00  0.00    +0.000 C 
ATOM     18  O   UNL     1       0.691   4.525  20.290  0.00  0.00    +0.000 OA
ATOM     19  H   UNL     1       3.288   6.106  21.212  0.00  0.00    +0.000 HD
BRANCH  16  20
ATOM     20  C   UNL     1       1.855   7.068  19.943  0.00  0.00    +0.000 C 
BRANCH  20  21
ATOM     21  C   UNL     1       1.617   8.329  20.769  0.00  0.00    +0.000 C 
BRANCH  21  22
ATOM     22  C   UNL     1       0.307   8.291  21.550  0.00  0.00    +0.000 C 
BRANCH  22  23
ATOM     23  C   UNL     1       0.117   9.549  22.361  0.00  0.00    +0.000 C 
ATOM     24  O   UNL     1       0.473   9.690  23.524  0.00  0.00    +0.000 OA
BRANCH  23  25
ATOM     25  O   UNL     1      -0.641  10.438  21.658  0.00  0.00    +0.000 OA
BRANCH  25  27
ATOM     26  C   UNL     1       0.849  11.997  20.653  0.00  0.00    +0.000 C 
ATOM     27  C   UNL     1      -0.199  11.800  21.730  0.00  0.00    +0.000 C 
ENDBRANCH  25  27
ENDBRANCH  23  25
ENDBRANCH  22  23
ENDBRANCH  21  22
ENDBRANCH  20  21
ENDBRANCH  16  20
ENDBRANCH  15  17
ENDBRANCH   1  15
TORSDOF 13
ENDMDL
MODEL 9
REMARK VINA RESULT:      -6.3      3.699      6.352
REMARK  Name = 
REMARK  14 active torsions:
REMARK  status: ('A' for Active; 'I' for Inactive)
REMARK    1  A    between atoms: C_1  and  C_2
REMARK    2  A    between atoms: C_2  and  O_3
REMARK    3  A    between atoms: O_3  and  C_4
REMARK    4  A    between atoms: C_4  and  C_6
REMARK    5  A    between atoms: C_6  and  C_7
REMARK    6  A    between atoms: C_7  and  C_8
REMARK    7  A    between atoms: C_8  and  N_9
REMARK    8  A    between atoms: C_10  and  C_12
REMARK    9  A    between atoms: C_12  and  O_13
REMARK   10  A    between atoms: O_13  and  C_14
REMARK   11  A    between atoms: C_14  and  C_16
REMARK   12  A    between atoms: C_16  and  C_17
REMARK   13  A    between atoms: C_17  and  C_18
REMARK   14  A    between atoms: C_18  and  C_20
REMARK                            x       y       z     vdW  Elec       q    Type
REMARK                         _______ _______ _______ _____ _____    ______ ____
ROOT
ATOM      1  O   UNL     1       7.523   4.859  16.194  0.00  0.00    +0.000 OA
ENDROOT
BRANCH   1   2
ATOM      2  C   UNL     1       6.432   4.489  15.462  0.00  0.00    +0.000 C 
ATOM      3  O   UNL     1       6.449   3.708  14.519  0.00  0.00    +0.000 OA
BRANCH   2   4
ATOM      4  C   UNL     1       5.210   5.247  15.911  0.00  0.00    +0.000 C 
BRANCH   4   5
ATOM      5  C   UNL     1       4.332   4.399  16.828  0.00  0.00    +0.000 C 
BRANCH   5   6
ATOM      6  C   UNL     1       3.723   5.215  17.958  0.00  0.00    +0.000 C 
ATOM      7  O   UNL     1       3.808   6.442  17.992  0.00  0.00    +0.000 OA
BRANCH   6   8
ATOM      8  C   UNL     1       2.983   4.499  19.043  0.00  0.00    +0.000 A 
ATOM      9  C   UNL     1       1.692   4.877  19.442  0.00  0.00    +0.000 A 
ATOM     10  C   UNL     1       1.046   4.188  20.473  0.00  0.00    +0.000 A 
ATOM     11  C   UNL     1       1.685   3.124  21.099  0.00  0.00    +0.000 A 
ATOM     12  F   UNL     1       1.060   2.468  22.085  0.00  0.00    +0.000 F 
ATOM     13  C   UNL     1       2.963   2.734  20.716  0.00  0.00    +0.000 A 
ATOM     14  C   UNL     1       3.613   3.422  19.689  0.00  0.00    +0.000 A 
ENDBRANCH   6   8
ENDBRANCH   5   6
ENDBRANCH   4   5
ENDBRANCH   2   4
ENDBRANCH   1   2
BRANCH   1  15
ATOM     15  C   UNL     1       7.418   4.558  17.584  0.00  0.00    +0.000 C 
BRANCH  15  17
ATOM     16  N   UNL     1       7.873   6.940  17.937  0.00  0.00    +0.000 N 
ATOM     17  C   UNL     1       7.901   5.681  18.506  0.00  0.00    +0.000 C 
ATOM     18  O   UNL     1       8.219   5.480  19.670  0.00  0.00    +0.000 OA
ATOM     19  H   UNL     1       7.573   7.031  16.973  0.00  0.00    +0.000 HD
BRANCH  16  20
ATOM     20  C   UNL     1       8.313   8.113  18.668  0.00  0.00    +0.000 C 
BRANCH  20  21
ATOM     21  C   UNL     1       8.212   9.396  17.848  0.00  0.00    +0.000 C 
BRANCH  21  22
ATOM     22  C   UNL     1       9.266  10.431  18.231  0.00  0.00    +0.000 C 
BRANCH  22  23
ATOM     23  C   UNL     1       8.713  11.832  18.142  0.00  0.00    +0.000 C 
ATOM     24  O   UNL     1       8.009  12.248  17.231  0.00  0.00    +0.000 OA
BRANCH  23  25
ATOM     25  O   UNL     1       9.241  12.597  19.140  0.00  0.00    +0.000 OA
BRANCH  25  27
ATOM     26  C   UNL     1      10.728  14.224  18.245  0.00  0.00    +0.000 C 
ATOM     27  C   UNL     1      10.632  12.908  18.991  0.00  0.00    +0.000 C 
ENDBRANCH  25  27
ENDBRANCH  23  25
ENDBRANCH  22  23
ENDBRANCH  21  22
ENDBRANCH  20  21
ENDBRANCH  16  20
ENDBRANCH  15  17
ENDBRANCH   1  15
TORSDOF 13
ENDMDL
