MODEL 1
REMARK VINA RESULT:      -8.5      0.000      0.000
REMARK  Name = 
REMARK  8 active torsions:
REMARK  status: ('A' for Active; 'I' for Inactive)
REMARK    1  A    between atoms: C_3  and  C_4
REMARK    2  A    between atoms: C_4  and  C_6
REMARK    3  A    between atoms: C_6  and  C_7
REMARK    4  A    between atoms: C_10  and  S_11
REMARK    5  A    between atoms: S_11  and  N_14
REMARK    6  A    between atoms: C_18  and  O_20
REMARK    7  A    between atoms: O_20  and  C_21
REMARK    8  A    between atoms: C_21  and  C_22
REMARK                            x       y       z     vdW  Elec       q    Type
REMARK                         _______ _______ _______ _____ _____    ______ ____
ROOT
ATOM      1  N   UNL     1       3.960   4.336  19.176  0.00  0.00    +0.000 NA
ATOM      2  C   UNL     1       4.234   3.269  18.194  0.00  0.00    +0.000 C 
ATOM      3  C   UNL     1       4.772   3.816  16.864  0.00  0.00    +0.000 C 
ATOM      4  N   UNL     1       5.787   4.863  17.029  0.00  0.00    +0.000 N 
ATOM      5  C   UNL     1       6.765   5.099  16.082  0.00  0.00    +0.000 C 
ATOM      6  O   UNL     1       7.560   6.033  16.144  0.00  0.00    +0.000 OA
ATOM      7  C   UNL     1       5.496   5.895  18.024  0.00  0.00    +0.000 C 
ATOM      8  C   UNL     1       5.065   5.298  19.364  0.00  0.00    +0.000 C 
ENDROOT
BRANCH   1   9
ATOM      9  S   UNL     1       2.421   4.654  19.745  0.00  0.00    +0.000 S 
ATOM     10  O   UNL     1       2.445   4.479  21.184  0.00  0.00    +0.000 OA
ATOM     11  O   UNL     1       1.467   3.948  18.923  0.00  0.00    +0.000 OA
BRANCH   9  15
ATOM     12  C   UNL     1       1.583   9.101  18.990  0.00  0.00    +0.000 A 
ATOM     13  C   UNL     1       1.979   8.272  17.928  0.00  0.00    +0.000 A 
ATOM     14  C   UNL     1       2.268   6.918  18.150  0.00  0.00    +0.000 A 
ATOM     15  C   UNL     1       2.190   6.399  19.447  0.00  0.00    +0.000 A 
ATOM     16  C   UNL     1       1.774   7.213  20.504  0.00  0.00    +0.000 A 
ATOM     17  C   UNL     1       1.452   8.550  20.272  0.00  0.00    +0.000 A 
BRANCH  12  18
ATOM     18  C   UNL     1       1.316  10.574  18.784  0.00  0.00    +0.000 C 
BRANCH  18  19
ATOM     19  C   UNL     1       0.150  11.139  19.567  0.00  0.00    +0.000 C 
ATOM     20  O   UNL     1      -1.038  10.979  19.329  0.00  0.00    +0.000 OA
BRANCH  19  23
ATOM     21  N   UNL     1      -0.254  10.958  22.911  0.00  0.00    +0.000 NA
ATOM     22  N   UNL     1       0.085  11.420  21.927  0.00  0.00    +0.000 NA
ATOM     23  C   UNL     1       0.456  11.943  20.783  0.00  0.00    +0.000 C 
ENDBRANCH  19  23
ENDBRANCH  18  19
ENDBRANCH  12  18
ENDBRANCH   9  15
ENDBRANCH   1   9
BRANCH   5  24
ATOM     24  O   UNL     1       6.733   4.188  15.078  0.00  0.00    +0.000 OA
BRANCH  24  25
ATOM     25  C   UNL     1       6.992   4.665  13.755  0.00  0.00    +0.000 C 
BRANCH  25  26
ATOM     26  C   UNL     1       6.284   3.748  12.791  0.00  0.00    +0.000 A 
ATOM     27  C   UNL     1       6.983   2.755  12.092  0.00  0.00    +0.000 A 
ATOM     28  C   UNL     1       6.323   1.950  11.160  0.00  0.00    +0.000 A 
ATOM     29  C   UNL     1       4.962   2.136  10.916  0.00  0.00    +0.000 A 
ATOM     30  C   UNL     1       4.259   3.120  11.607  0.00  0.00    +0.000 A 
ATOM     31  C   UNL     1       4.917   3.926  12.537  0.00  0.00    +0.000 A 
ENDBRANCH  25  26
ENDBRANCH  24  25
ENDBRANCH   5  24
TORSDOF 8
ENDMDL
MODEL 2
REMARK VINA RESULT:      -8.2      1.280      1.701
REMARK  Name = 
REMARK  8 active torsions:
REMARK  status: ('A' for Active; 'I' for Inactive)
REMARK    1  A    between atoms: C_3  and  C_4
REMARK    2  A    between atoms: C_4  and  C_6
REMARK    3  A    between atoms: C_6  and  C_7
REMARK    4  A    between atoms: C_10  and  S_11
REMARK    5  A    between atoms: S_11  and  N_14
REMARK    6  A    between atoms: C_18  and  O_20
REMARK    7  A    between atoms: O_20  and  C_21
REMARK    8  A    between atoms: C_21  and  C_22
REMARK                            x       y       z     vdW  Elec       q    Type
REMARK                         _______ _______ _______ _____ _____    ______ ____
ROOT
ATOM      1  N   UNL     1       3.380   3.217  18.933  0.00  0.00    +0.000 NA
ATOM      2  C   UNL     1       3.905   2.841  17.606  0.00  0.00    +0.000 C 
ATOM      3  C   UNL     1       4.972   3.819  17.095  0.00  0.00    +0.000 C 
ATOM      4  N   UNL     1       5.943   4.214  18.122  0.00  0.00    +0.000 N 
ATOM      5  C   UNL     1       7.232   4.602  17.809  0.00  0.00    +0.000 C 
ATOM      6  O   UNL     1       8.031   5.037  18.635  0.00  0.00    +0.000 OA
ATOM      7  C   UNL     1       5.394   4.562  19.433  0.00  0.00    +0.000 C 
ATOM      8  C   UNL     1       4.416   3.505  19.945  0.00  0.00    +0.000 C 
ENDROOT
BRANCH   1   9
ATOM      9  S   UNL     1       1.781   3.644  19.175  0.00  0.00    +0.000 S 
ATOM     10  O   UNL     1       1.355   3.043  20.423  0.00  0.00    +0.000 OA
ATOM     11  O   UNL     1       1.051   3.419  17.949  0.00  0.00    +0.000 OA
BRANCH   9  15
ATOM     12  C   UNL     1       1.662   8.181  19.843  0.00  0.00    +0.000 A 
ATOM     13  C   UNL     1       2.139   7.664  18.628  0.00  0.00    +0.000 A 
ATOM     14  C   UNL     1       2.210   6.279  18.421  0.00  0.00    +0.000 A 
ATOM     15  C   UNL     1       1.831   5.408  19.448  0.00  0.00    +0.000 A 
ATOM     16  C   UNL     1       1.334   5.916  20.651  0.00  0.00    +0.000 A 
ATOM     17  C   UNL     1       1.230   7.294  20.838  0.00  0.00    +0.000 A 
BRANCH  12  18
ATOM     18  C   UNL     1       1.625   9.669  20.107  0.00  0.00    +0.000 C 
BRANCH  18  19
ATOM     19  C   UNL     1       0.253  10.246  20.381  0.00  0.00    +0.000 C 
ATOM     20  O   UNL     1      -0.739  10.143  19.674  0.00  0.00    +0.000 OA
BRANCH  19  23
ATOM     21  N   UNL     1       0.319   9.663  23.703  0.00  0.00    +0.000 NA
ATOM     22  N   UNL     1       0.200  10.287  22.757  0.00  0.00    +0.000 NA
ATOM     23  C   UNL     1       0.054  10.986  21.658  0.00  0.00    +0.000 C 
ENDBRANCH  19  23
ENDBRANCH  18  19
ENDBRANCH  12  18
ENDBRANCH   9  15
ENDBRANCH   1   9
BRANCH   5  24
ATOM     24  O   UNL     1       7.501   4.457  16.488  0.00  0.00    +0.000 OA
BRANCH  24  25
ATOM     25  C   UNL     1       6.980   5.451  15.602  0.00  0.00    +0.000 C 
BRANCH  25  26
ATOM     26  C   UNL     1       6.900   4.842  14.226  0.00  0.00    +0.000 A 
ATOM     27  C   UNL     1       7.782   5.232  13.210  0.00  0.00    +0.000 A 
ATOM     28  C   UNL     1       7.659   4.699  11.924  0.00  0.00    +0.000 A 
ATOM     29  C   UNL     1       6.650   3.778  11.644  0.00  0.00    +0.000 A 
ATOM     30  C   UNL     1       5.770   3.382  12.648  0.00  0.00    +0.000 A 
ATOM     31  C   UNL     1       5.890   3.915  13.932  0.00  0.00    +0.000 A 
ENDBRANCH  25  26
ENDBRANCH  24  25
ENDBRANCH   5  24
TORSDOF 8
ENDMDL
MODEL 3
REMARK VINA RESULT:      -8.1      1.329      2.004
REMARK  Name = 
REMARK  8 active torsions:
REMARK  status: ('A' for Active; 'I' for Inactive)
REMARK    1  A    between atoms: C_3  and  C_4
REMARK    2  A    between atoms: C_4  and  C_6
REMARK    3  A    between atoms: C_6  and  C_7
REMARK    4  A    between atoms: C_10  and  S_11
REMARK    5  A    between atoms: S_11  and  N_14
REMARK    6  A    between atoms: C_18  and  O_20
REMARK    7  A    between atoms: O_20  and  C_21
REMARK    8  A    between atoms: C_21  and  C_22
REMARK                            x       y       z     vdW  Elec       q    Type
REMARK                         _______ _______ _______ _____ _____    ______ ____
ROOT
ATOM      1  N   UNL     1       3.466   2.925  18.943  0.00  0.00    +0.000 NA
ATOM      2  C   UNL     1       3.956   2.585  17.593  0.00  0.00    +0.000 C 
ATOM      3  C   UNL     1       4.929   3.633  17.037  0.00  0.00    +0.000 C 
ATOM      4  N   UNL     1       5.916   4.096  18.020  0.00  0.00    +0.000 N 
ATOM      5  C   UNL     1       7.160   4.571  17.650  0.00  0.00    +0.000 C 
ATOM      6  O   UNL     1       7.963   5.061  18.440  0.00  0.00    +0.000 OA
ATOM      7  C   UNL     1       5.403   4.407  19.354  0.00  0.00    +0.000 C 
ATOM      8  C   UNL     1       4.524   3.287  19.908  0.00  0.00    +0.000 C 
ENDROOT
BRANCH   1   9
ATOM      9  S   UNL     1       1.855   3.242  19.256  0.00  0.00    +0.000 S 
ATOM     10  O   UNL     1       1.576   2.784  20.603  0.00  0.00    +0.000 OA
ATOM     11  O   UNL     1       1.067   2.789  18.134  0.00  0.00    +0.000 OA
BRANCH   9  15
ATOM     12  C   UNL     1       1.839   7.829  19.325  0.00  0.00    +0.000 A 
ATOM     13  C   UNL     1       1.642   7.110  20.514  0.00  0.00    +0.000 A 
ATOM     14  C   UNL     1       1.614   5.708  20.503  0.00  0.00    +0.000 A 
ATOM     15  C   UNL     1       1.752   5.025  19.291  0.00  0.00    +0.000 A 
ATOM     16  C   UNL     1       1.971   5.734  18.107  0.00  0.00    +0.000 A 
ATOM     17  C   UNL     1       2.036   7.126  18.128  0.00  0.00    +0.000 A 
BRANCH  12  18
ATOM     18  C   UNL     1       1.822   9.341  19.304  0.00  0.00    +0.000 C 
BRANCH  18  19
ATOM     19  C   UNL     1       0.582   9.984  19.885  0.00  0.00    +0.000 C 
ATOM     20  O   UNL     1      -0.567   9.852  19.488  0.00  0.00    +0.000 OA
BRANCH  19  23
ATOM     21  N   UNL     1       1.072   9.642  23.205  0.00  0.00    +0.000 NA
ATOM     22  N   UNL     1       0.926  10.207  22.227  0.00  0.00    +0.000 NA
ATOM     23  C   UNL     1       0.746  10.840  21.093  0.00  0.00    +0.000 C 
ENDBRANCH  19  23
ENDBRANCH  18  19
ENDBRANCH  12  18
ENDBRANCH   9  15
ENDBRANCH   1   9
BRANCH   5  24
ATOM     24  O   UNL     1       7.379   4.442  16.318  0.00  0.00    +0.000 OA
BRANCH  24  25
ATOM     25  C   UNL     1       6.779   5.416  15.460  0.00  0.00    +0.000 C 
BRANCH  25  26
ATOM     26  C   UNL     1       6.673   4.811  14.084  0.00  0.00    +0.000 A 
ATOM     27  C   UNL     1       5.632   3.932  13.758  0.00  0.00    +0.000 A 
ATOM     28  C   UNL     1       5.580   3.336  12.496  0.00  0.00    +0.000 A 
ATOM     29  C   UNL     1       6.570   3.609  11.553  0.00  0.00    +0.000 A 
ATOM     30  C   UNL     1       7.608   4.484  11.866  0.00  0.00    +0.000 A 
ATOM     31  C   UNL     1       7.663   5.079  13.127  0.00  0.00    +0.000 A 
ENDBRANCH  25  26
ENDBRANCH  24  25
ENDBRANCH   5  24
TORSDOF 8
ENDMDL
MODEL 4
REMARK VINA RESULT:      -8.0      1.336      1.709
REMARK  Name = 
REMARK  8 active torsions:
REMARK  status: ('A' for Active; 'I' for Inactive)
REMARK    1  A    between atoms: C_3  and  C_4
REMARK    2  A    between atoms: C_4  and  C_6
REMARK    3  A    between atoms: C_6  and  C_7
REMARK    4  A    between atoms: C_10  and  S_11
REMARK    5  A    between atoms: S_11  and  N_14
REMARK    6  A    between atoms: C_18  and  O_20
REMARK    7  A    between atoms: O_20  and  C_21
REMARK    8  A    between atoms: C_21  and  C_22
REMARK                            x       y       z     vdW  Elec       q    Type
REMARK                         _______ _______ _______ _____ _____    ______ ____
ROOT
ATOM      1  N   UNL     1       4.053   4.165  19.224  0.00  0.00    +0.000 NA
ATOM      2  C   UNL     1       4.341   3.146  18.196  0.00  0.00    +0.000 C 
ATOM      3  C   UNL     1       4.864   3.758  16.889  0.00  0.00    +0.000 C 
ATOM      4  N   UNL     1       5.861   4.815  17.095  0.00  0.00    +0.000 N 
ATOM      5  C   UNL     1       6.831   5.108  16.155  0.00  0.00    +0.000 C 
ATOM      6  O   UNL     1       7.610   6.053  16.254  0.00  0.00    +0.000 OA
ATOM      7  C   UNL     1       5.556   5.799  18.134  0.00  0.00    +0.000 C 
ATOM      8  C   UNL     1       5.141   5.138  19.448  0.00  0.00    +0.000 C 
ENDROOT
BRANCH   1   9
ATOM      9  S   UNL     1       2.510   4.432  19.811  0.00  0.00    +0.000 S 
ATOM     10  O   UNL     1       2.583   4.391  21.259  0.00  0.00    +0.000 OA
ATOM     11  O   UNL     1       1.586   3.593  19.085  0.00  0.00    +0.000 OA
BRANCH   9  15
ATOM     12  C   UNL     1       1.837   8.816  18.638  0.00  0.00    +0.000 A 
ATOM     13  C   UNL     1       1.729   8.426  19.983  0.00  0.00    +0.000 A 
ATOM     14  C   UNL     1       1.902   7.084  20.351  0.00  0.00    +0.000 A 
ATOM     15  C   UNL     1       2.153   6.124  19.366  0.00  0.00    +0.000 A 
ATOM     16  C   UNL     1       2.284   6.510  18.029  0.00  0.00    +0.000 A 
ATOM     17  C   UNL     1       2.149   7.851  17.672  0.00  0.00    +0.000 A 
BRANCH  12  18
ATOM     18  C   UNL     1       1.604  10.247  18.211  0.00  0.00    +0.000 C 
BRANCH  18  19
ATOM     19  C   UNL     1       0.834  11.102  19.193  0.00  0.00    +0.000 C 
ATOM     20  O   UNL     1       1.301  11.802  20.080  0.00  0.00    +0.000 OA
BRANCH  19  23
ATOM     21  N   UNL     1      -1.584   9.871  17.188  0.00  0.00    +0.000 NA
ATOM     22  N   UNL     1      -1.158  10.461  18.064  0.00  0.00    +0.000 NA
ATOM     23  C   UNL     1      -0.649  11.145  19.060  0.00  0.00    +0.000 C 
ENDBRANCH  19  23
ENDBRANCH  18  19
ENDBRANCH  12  18
ENDBRANCH   9  15
ENDBRANCH   1   9
BRANCH   5  24
ATOM     24  O   UNL     1       6.811   4.240  15.114  0.00  0.00    +0.000 OA
BRANCH  24  25
ATOM     25  C   UNL     1       6.927   4.793  13.801  0.00  0.00    +0.000 C 
BRANCH  25  26
ATOM     26  C   UNL     1       6.289   3.825  12.838  0.00  0.00    +0.000 A 
ATOM     27  C   UNL     1       7.053   2.858  12.171  0.00  0.00    +0.000 A 
ATOM     28  C   UNL     1       6.456   2.005  11.239  0.00  0.00    +0.000 A 
ATOM     29  C   UNL     1       5.094   2.116  10.964  0.00  0.00    +0.000 A 
ATOM     30  C   UNL     1       4.325   3.072  11.624  0.00  0.00    +0.000 A 
ATOM     31  C   UNL     1       4.920   3.926  12.553  0.00  0.00    +0.000 A 
ENDBRANCH  25  26
ENDBRANCH  24  25
ENDBRANCH   5  24
TORSDOF 8
ENDMDL
MODEL 5
REMARK VINA RESULT:      -8.0      0.670      1.152
REMARK  Name = 
REMARK  8 active torsions:
REMARK  status: ('A' for Active; 'I' for Inactive)
REMARK    1  A    between atoms: C_3  and  C_4
REMARK    2  A    between atoms: C_4  and  C_6
REMARK    3  A    between atoms: C_6  and  C_7
REMARK    4  A    between atoms: C_10  and  S_11
REMARK    5  A    between atoms: S_11  and  N_14
REMARK    6  A    between atoms: C_18  and  O_20
REMARK    7  A    between atoms: O_20  and  C_21
REMARK    8  A    between atoms: C_21  and  C_22
REMARK                            x       y       z     vdW  Elec       q    Type
REMARK                         _______ _______ _______ _____ _____    ______ ____
ROOT
ATOM      1  N   UNL     1       3.959   4.339  19.180  0.00  0.00    +0.000 NA
ATOM      2  C   UNL     1       4.197   3.273  18.186  0.00  0.00    +0.000 C 
ATOM      3  C   UNL     1       4.733   3.817  16.855  0.00  0.00    +0.000 C 
ATOM      4  N   UNL     1       5.774   4.838  17.016  0.00  0.00    +0.000 N 
ATOM      5  C   UNL     1       6.746   5.058  16.059  0.00  0.00    +0.000 C 
ATOM      6  O   UNL     1       7.564   5.973  16.119  0.00  0.00    +0.000 OA
ATOM      7  C   UNL     1       5.518   5.870  18.021  0.00  0.00    +0.000 C 
ATOM      8  C   UNL     1       5.089   5.273  19.361  0.00  0.00    +0.000 C 
ENDROOT
BRANCH   1   9
ATOM      9  S   UNL     1       2.434   4.689  19.769  0.00  0.00    +0.000 S 
ATOM     10  O   UNL     1       2.486   4.561  21.212  0.00  0.00    +0.000 OA
ATOM     11  O   UNL     1       1.459   3.965  18.989  0.00  0.00    +0.000 OA
BRANCH   9  15
ATOM     12  C   UNL     1       1.617   9.115  18.881  0.00  0.00    +0.000 A 
ATOM     13  C   UNL     1       2.005   8.252  17.843  0.00  0.00    +0.000 A 
ATOM     14  C   UNL     1       2.288   6.904  18.106  0.00  0.00    +0.000 A 
ATOM     15  C   UNL     1       2.212   6.426  19.417  0.00  0.00    +0.000 A 
ATOM     16  C   UNL     1       1.804   7.274  20.451  0.00  0.00    +0.000 A 
ATOM     17  C   UNL     1       1.488   8.604  20.179  0.00  0.00    +0.000 A 
BRANCH  12  18
ATOM     18  C   UNL     1       1.357  10.583  18.630  0.00  0.00    +0.000 C 
BRANCH  18  19
ATOM     19  C   UNL     1       0.371  11.238  19.573  0.00  0.00    +0.000 C 
ATOM     20  O   UNL     1      -0.841  11.081  19.590  0.00  0.00    +0.000 OA
BRANCH  19  23
ATOM     21  N   UNL     1      -0.454  14.105  21.147  0.00  0.00    +0.000 NA
ATOM     22  N   UNL     1       0.185  13.191  20.915  0.00  0.00    +0.000 NA
ATOM     23  C   UNL     1       0.913  12.140  20.627  0.00  0.00    +0.000 C 
ENDBRANCH  19  23
ENDBRANCH  18  19
ENDBRANCH  12  18
ENDBRANCH   9  15
ENDBRANCH   1   9
BRANCH   5  24
ATOM     24  O   UNL     1       6.681   4.156  15.049  0.00  0.00    +0.000 OA
BRANCH  24  25
ATOM     25  C   UNL     1       7.053   4.608  13.745  0.00  0.00    +0.000 C 
BRANCH  25  26
ATOM     26  C   UNL     1       6.321   3.757  12.739  0.00  0.00    +0.000 A 
ATOM     27  C   UNL     1       4.949   3.926  12.509  0.00  0.00    +0.000 A 
ATOM     28  C   UNL     1       4.274   3.091  11.616  0.00  0.00    +0.000 A 
ATOM     29  C   UNL     1       4.964   2.079  10.949  0.00  0.00    +0.000 A 
ATOM     30  C   UNL     1       6.329   1.904  11.169  0.00  0.00    +0.000 A 
ATOM     31  C   UNL     1       7.004   2.736  12.063  0.00  0.00    +0.000 A 
ENDBRANCH  25  26
ENDBRANCH  24  25
ENDBRANCH   5  24
TORSDOF 8
ENDMDL
MODEL 6
REMARK VINA RESULT:      -7.9      1.440      1.572
REMARK  Name = 
REMARK  8 active torsions:
REMARK  status: ('A' for Active; 'I' for Inactive)
REMARK    1  A    between atoms: C_3  and  C_4
REMARK    2  A    between atoms: C_4  and  C_6
REMARK    3  A    between atoms: C_6  and  C_7
REMARK    4  A    between atoms: C_10  and  S_11
REMARK    5  A    between atoms: S_11  and  N_14
REMARK    6  A    between atoms: C_18  and  O_20
REMARK    7  A    between atoms: O_20  and  C_21
REMARK    8  A    between atoms: C_21  and  C_22
REMARK                            x       y       z     vdW  Elec       q    Type
REMARK                         _______ _______ _______ _____ _____    ______ ____
ROOT
ATOM      1  N   UNL     1       3.916   3.851  18.580  0.00  0.00    +0.000 NA
ATOM      2  C   UNL     1       3.840   3.457  17.159  0.00  0.00    +0.000 C 
ATOM      3  C   UNL     1       4.418   4.523  16.219  0.00  0.00    +0.000 C 
ATOM      4  N   UNL     1       5.679   5.102  16.696  0.00  0.00    +0.000 N 
ATOM      5  C   UNL     1       6.624   5.625  15.834  0.00  0.00    +0.000 C 
ATOM      6  O   UNL     1       7.638   6.209  16.209  0.00  0.00    +0.000 OA
ATOM      7  C   UNL     1       5.731   5.465  18.113  0.00  0.00    +0.000 C 
ATOM      8  C   UNL     1       5.243   4.331  19.015  0.00  0.00    +0.000 C 
ENDROOT
BRANCH   1   9
ATOM      9  S   UNL     1       2.551   4.092  19.516  0.00  0.00    +0.000 S 
ATOM     10  O   UNL     1       2.904   3.778  20.886  0.00  0.00    +0.000 OA
ATOM     11  O   UNL     1       1.427   3.457  18.869  0.00  0.00    +0.000 OA
BRANCH   9  15
ATOM     12  C   UNL     1       1.599   8.577  19.357  0.00  0.00    +0.000 A 
ATOM     13  C   UNL     1       2.003   7.905  18.193  0.00  0.00    +0.000 A 
ATOM     14  C   UNL     1       2.327   6.541  18.233  0.00  0.00    +0.000 A 
ATOM     15  C   UNL     1       2.276   5.855  19.450  0.00  0.00    +0.000 A 
ATOM     16  C   UNL     1       1.852   6.513  20.609  0.00  0.00    +0.000 A 
ATOM     17  C   UNL     1       1.495   7.859  20.556  0.00  0.00    +0.000 A 
BRANCH  12  18
ATOM     18  C   UNL     1       1.294  10.058  19.349  0.00  0.00    +0.000 C 
BRANCH  18  19
ATOM     19  C   UNL     1      -0.175  10.419  19.383  0.00  0.00    +0.000 C 
ATOM     20  O   UNL     1      -0.804  10.837  20.345  0.00  0.00    +0.000 OA
BRANCH  19  23
ATOM     21  N   UNL     1      -3.004  11.630  18.001  0.00  0.00    +0.000 NA
ATOM     22  N   UNL     1      -2.046  11.014  18.044  0.00  0.00    +0.000 NA
ATOM     23  C   UNL     1      -0.948  10.303  18.116  0.00  0.00    +0.000 C 
ENDBRANCH  19  23
ENDBRANCH  18  19
ENDBRANCH  12  18
ENDBRANCH   9  15
ENDBRANCH   1   9
BRANCH   5  24
ATOM     24  O   UNL     1       6.292   5.428  14.534  0.00  0.00    +0.000 OA
BRANCH  24  25
ATOM     25  C   UNL     1       7.228   4.713  13.723  0.00  0.00    +0.000 C 
BRANCH  25  26
ATOM     26  C   UNL     1       6.445   3.798  12.818  0.00  0.00    +0.000 A 
ATOM     27  C   UNL     1       7.070   2.745  12.136  0.00  0.00    +0.000 A 
ATOM     28  C   UNL     1       6.341   1.941  11.256  0.00  0.00    +0.000 A 
ATOM     29  C   UNL     1       4.984   2.186  11.048  0.00  0.00    +0.000 A 
ATOM     30  C   UNL     1       4.353   3.229  11.723  0.00  0.00    +0.000 A 
ATOM     31  C   UNL     1       5.080   4.034  12.600  0.00  0.00    +0.000 A 
ENDBRANCH  25  26
ENDBRANCH  24  25
ENDBRANCH   5  24
TORSDOF 8
ENDMDL
MODEL 7
REMARK VINA RESULT:      -7.8      1.383      1.941
REMARK  Name = 
REMARK  8 active torsions:
REMARK  status: ('A' for Active; 'I' for Inactive)
REMARK    1  A    between atoms: C_3  and  C_4
REMARK    2  A    between atoms: C_4  and  C_6
REMARK    3  A    between atoms: C_6  and  C_7
REMARK    4  A    between atoms: C_10  and  S_11
REMARK    5  A    between atoms: S_11  and  N_14
REMARK    6  A    between atoms: C_18  and  O_20
REMARK    7  A    between atoms: O_20  and  C_21
REMARK    8  A    between atoms: C_21  and  C_22
REMARK                            x       y       z     vdW  Elec       q    Type
REMARK                         _______ _______ _______ _____ _____    ______ ____
ROOT
ATOM      1  N   UNL     1       3.758   3.627  18.622  0.00  0.00    +0.000 NA
ATOM      2  C   UNL     1       3.649   3.349  17.176  0.00  0.00    +0.000 C 
ATOM      3  C   UNL     1       4.281   4.451  16.315  0.00  0.00    +0.000 C 
ATOM      4  N   UNL     1       5.577   4.918  16.820  0.00  0.00    +0.000 N 
ATOM      5  C   UNL     1       6.544   5.452  15.989  0.00  0.00    +0.000 C 
ATOM      6  O   UNL     1       7.593   5.946  16.396  0.00  0.00    +0.000 OA
ATOM      7  C   UNL     1       5.659   5.167  18.259  0.00  0.00    +0.000 C 
ATOM      8  C   UNL     1       5.114   3.996  19.077  0.00  0.00    +0.000 C 
ENDROOT
BRANCH   1   9
ATOM      9  S   UNL     1       2.417   3.872  19.590  0.00  0.00    +0.000 S 
ATOM     10  O   UNL     1       2.819   3.625  20.960  0.00  0.00    +0.000 OA
ATOM     11  O   UNL     1       1.291   3.183  19.005  0.00  0.00    +0.000 OA
BRANCH   9  15
ATOM     12  C   UNL     1       1.828   8.409  19.242  0.00  0.00    +0.000 A 
ATOM     13  C   UNL     1       1.684   7.777  20.488  0.00  0.00    +0.000 A 
ATOM     14  C   UNL     1       1.831   6.387  20.603  0.00  0.00    +0.000 A 
ATOM     15  C   UNL     1       2.092   5.623  19.461  0.00  0.00    +0.000 A 
ATOM     16  C   UNL     1       2.259   6.249  18.222  0.00  0.00    +0.000 A 
ATOM     17  C   UNL     1       2.149   7.635  18.119  0.00  0.00    +0.000 A 
BRANCH  12  18
ATOM     18  C   UNL     1       1.623   9.898  19.085  0.00  0.00    +0.000 C 
BRANCH  18  19
ATOM     19  C   UNL     1       0.741  10.547  20.129  0.00  0.00    +0.000 C 
ATOM     20  O   UNL     1       1.106  11.221  21.081  0.00  0.00    +0.000 OA
BRANCH  19  23
ATOM     21  N   UNL     1      -1.571  10.392  17.677  0.00  0.00    +0.000 NA
ATOM     22  N   UNL     1      -1.189  10.388  18.750  0.00  0.00    +0.000 NA
ATOM     23  C   UNL     1      -0.734  10.399  19.979  0.00  0.00    +0.000 C 
ENDBRANCH  19  23
ENDBRANCH  18  19
ENDBRANCH  12  18
ENDBRANCH   9  15
ENDBRANCH   1   9
BRANCH   5  24
ATOM     24  O   UNL     1       6.192   5.375  14.682  0.00  0.00    +0.000 OA
BRANCH  24  25
ATOM     25  C   UNL     1       7.177   4.884  13.769  0.00  0.00    +0.000 C 
BRANCH  25  26
ATOM     26  C   UNL     1       6.490   3.935  12.821  0.00  0.00    +0.000 A 
ATOM     27  C   UNL     1       5.099   3.959  12.654  0.00  0.00    +0.000 A 
ATOM     28  C   UNL     1       4.472   3.036  11.815  0.00  0.00    +0.000 A 
ATOM     29  C   UNL     1       5.229   2.078  11.140  0.00  0.00    +0.000 A 
ATOM     30  C   UNL     1       6.613   2.047  11.298  0.00  0.00    +0.000 A 
ATOM     31  C   UNL     1       7.241   2.968  12.138  0.00  0.00    +0.000 A 
ENDBRANCH  25  26
ENDBRANCH  24  25
ENDBRANCH   5  24
TORSDOF 8
ENDMDL
MODEL 8
REMARK VINA RESULT:      -7.8      3.927      6.588
REMARK  Name = 
REMARK  8 active torsions:
REMARK  status: ('A' for Active; 'I' for Inactive)
REMARK    1  A    between atoms: C_3  and  C_4
REMARK    2  A    between atoms: C_4  and  C_6
REMARK    3  A    between atoms: C_6  and  C_7
REMARK    4  A    between atoms: C_10  and  S_11
REMARK    5  A    between atoms: S_11  and  N_14
REMARK    6  A    between atoms: C_18  and  O_20
REMARK    7  A    between atoms: O_20  and  C_21
REMARK    8  A    between atoms: C_21  and  C_22
REMARK                            x       y       z     vdW  Elec       q    Type
REMARK                         _______ _______ _______ _____ _____    ______ ____
ROOT
ATOM      1  N   UNL     1       0.429  10.158  19.589  0.00  0.00    +0.000 NA
ATOM      2  C   UNL     1       1.038   9.750  18.308  0.00  0.00    +0.000 C 
ATOM      3  C   UNL     1       2.244   8.820  18.498  0.00  0.00    +0.000 C 
ATOM      4  N   UNL     1       2.025   7.777  19.507  0.00  0.00    +0.000 N 
ATOM      5  C   UNL     1       2.681   6.561  19.467  0.00  0.00    +0.000 C 
ATOM      6  O   UNL     1       2.597   5.713  20.352  0.00  0.00    +0.000 OA
ATOM      7  C   UNL     1       1.402   8.208  20.759  0.00  0.00    +0.000 C 
ATOM      8  C   UNL     1       0.146   9.044  20.518  0.00  0.00    +0.000 C 
ENDROOT
BRANCH   1   9
ATOM      9  S   UNL     1       0.406  11.749  20.103  0.00  0.00    +0.000 S 
ATOM     10  O   UNL     1       0.581  12.586  18.933  0.00  0.00    +0.000 OA
ATOM     11  O   UNL     1       1.274  11.878  21.250  0.00  0.00    +0.000 OA
BRANCH   9  15
ATOM     12  C   UNL     1      -3.860  12.656  21.526  0.00  0.00    +0.000 A 
ATOM     13  C   UNL     1      -2.863  12.333  22.461  0.00  0.00    +0.000 A 
ATOM     14  C   UNL     1      -1.562  12.024  22.038  0.00  0.00    +0.000 A 
ATOM     15  C   UNL     1      -1.267  12.007  20.671  0.00  0.00    +0.000 A 
ATOM     16  C   UNL     1      -2.249  12.349  19.737  0.00  0.00    +0.000 A 
ATOM     17  C   UNL     1      -3.530  12.693  20.165  0.00  0.00    +0.000 A 
BRANCH  12  18
ATOM     18  C   UNL     1      -5.281  12.942  21.955  0.00  0.00    +0.000 C 
BRANCH  18  19
ATOM     19  C   UNL     1      -5.439  13.485  23.358  0.00  0.00    +0.000 C 
ATOM     20  O   UNL     1      -5.131  14.601  23.751  0.00  0.00    +0.000 OA
BRANCH  19  23
ATOM     21  N   UNL     1      -7.916  11.205  23.569  0.00  0.00    +0.000 NA
ATOM     22  N   UNL     1      -7.056  11.847  23.951  0.00  0.00    +0.000 NA
ATOM     23  C   UNL     1      -6.072  12.601  24.376  0.00  0.00    +0.000 C 
ENDBRANCH  19  23
ENDBRANCH  18  19
ENDBRANCH  12  18
ENDBRANCH   9  15
ENDBRANCH   1   9
BRANCH   5  24
ATOM     24  O   UNL     1       3.431   6.424  18.346  0.00  0.00    +0.000 OA
BRANCH  24  25
ATOM     25  C   UNL     1       3.450   5.135  17.727  0.00  0.00    +0.000 C 
BRANCH  25  26
ATOM     26  C   UNL     1       4.755   5.002  16.984  0.00  0.00    +0.000 A 
ATOM     27  C   UNL     1       5.816   5.887  17.222  0.00  0.00    +0.000 A 
ATOM     28  C   UNL     1       6.998   5.785  16.485  0.00  0.00    +0.000 A 
ATOM     29  C   UNL     1       7.127   4.804  15.503  0.00  0.00    +0.000 A 
ATOM     30  C   UNL     1       6.079   3.919  15.261  0.00  0.00    +0.000 A 
ATOM     31  C   UNL     1       4.896   4.020  15.994  0.00  0.00    +0.000 A 
ENDBRANCH  25  26
ENDBRANCH  24  25
ENDBRANCH   5  24
TORSDOF 8
ENDMDL
MODEL 9
REMARK VINA RESULT:      -7.7      1.008      1.426
REMARK  Name = 
REMARK  8 active torsions:
REMARK  status: ('A' for Active; 'I' for Inactive)
REMARK    1  A    between atoms: C_3  and  C_4
REMARK    2  A    between atoms: C_4  and  C_6
REMARK    3  A    between atoms: C_6  and  C_7
REMARK    4  A    between atoms: C_10  and  S_11
REMARK    5  A    between atoms: S_11  and  N_14
REMARK    6  A    between atoms: C_18  and  O_20
REMARK    7  A    between atoms: O_20  and  C_21
REMARK    8  A    between atoms: C_21  and  C_22
REMARK                            x       y       z     vdW  Elec       q    Type
REMARK                         _______ _______ _______ _____ _____    ______ ____
ROOT
ATOM      1  N   UNL     1       3.352   3.348  19.057  0.00  0.00    +0.000 NA
ATOM      2  C   UNL     1       3.085   3.087  17.629  0.00  0.00    +0.000 C 
ATOM      3  C   UNL     1       3.868   4.026  16.701  0.00  0.00    +0.000 C 
ATOM      4  N   UNL     1       5.266   4.217  17.106  0.00  0.00    +0.000 N 
ATOM      5  C   UNL     1       6.260   4.531  16.199  0.00  0.00    +0.000 C 
ATOM      6  O   UNL     1       7.415   4.799  16.522  0.00  0.00    +0.000 OA
ATOM      7  C   UNL     1       5.500   4.455  18.530  0.00  0.00    +0.000 C 
ATOM      8  C   UNL     1       4.784   3.431  19.410  0.00  0.00    +0.000 C 
ENDROOT
BRANCH   1   9
ATOM      9  S   UNL     1       2.164   3.876  20.108  0.00  0.00    +0.000 S 
ATOM     10  O   UNL     1       2.656   3.674  21.457  0.00  0.00    +0.000 OA
ATOM     11  O   UNL     1       0.896   3.329  19.686  0.00  0.00    +0.000 OA
BRANCH   9  15
ATOM     12  C   UNL     1       1.737   8.391  19.420  0.00  0.00    +0.000 A 
ATOM     13  C   UNL     1       2.207   7.566  18.386  0.00  0.00    +0.000 A 
ATOM     14  C   UNL     1       2.372   6.189  18.592  0.00  0.00    +0.000 A 
ATOM     15  C   UNL     1       2.094   5.641  19.848  0.00  0.00    +0.000 A 
ATOM     16  C   UNL     1       1.603   6.453  20.875  0.00  0.00    +0.000 A 
ATOM     17  C   UNL     1       1.406   7.815  20.654  0.00  0.00    +0.000 A 
BRANCH  12  18
ATOM     18  C   UNL     1       1.601   9.886  19.238  0.00  0.00    +0.000 C 
BRANCH  18  19
ATOM     19  C   UNL     1       0.353  10.502  19.832  0.00  0.00    +0.000 C 
ATOM     20  O   UNL     1      -0.782  10.436  19.384  0.00  0.00    +0.000 OA
BRANCH  19  23
ATOM     21  N   UNL     1       2.023  13.145  21.101  0.00  0.00    +0.000 NA
ATOM     22  N   UNL     1       1.303  12.261  21.118  0.00  0.00    +0.000 NA
ATOM     23  C   UNL     1       0.489  11.234  21.122  0.00  0.00    +0.000 C 
ENDBRANCH  19  23
ENDBRANCH  18  19
ENDBRANCH  12  18
ENDBRANCH   9  15
ENDBRANCH   1   9
BRANCH   5  24
ATOM     24  O   UNL     1       5.807   4.518  14.921  0.00  0.00    +0.000 OA
BRANCH  24  25
ATOM     25  C   UNL     1       6.778   4.337  13.887  0.00  0.00    +0.000 C 
BRANCH  25  26
ATOM     26  C   UNL     1       6.117   3.574  12.767  0.00  0.00    +0.000 A 
ATOM     27  C   UNL     1       4.809   3.872  12.362  0.00  0.00    +0.000 A 
ATOM     28  C   UNL     1       4.191   3.119  11.361  0.00  0.00    +0.000 A 
ATOM     29  C   UNL     1       4.873   2.060  10.762  0.00  0.00    +0.000 A 
ATOM     30  C   UNL     1       6.174   1.757  11.157  0.00  0.00    +0.000 A 
ATOM     31  C   UNL     1       6.793   2.507  12.158  0.00  0.00    +0.000 A 
ENDBRANCH  25  26
ENDBRANCH  24  25
ENDBRANCH   5  24
TORSDOF 8
ENDMDL
