MODEL 1
REMARK VINA RESULT:      -8.0      0.000      0.000
REMARK  Name = 
REMARK  12 active torsions:
REMARK  status: ('A' for Active; 'I' for Inactive)
REMARK    1  A    between atoms: C_1  and  C_2
REMARK    2  A    between atoms: C_2  and  C_3
REMARK    3  A    between atoms: C_4  and  C_5
REMARK    4  A    between atoms: C_5  and  O_6
REMARK    5  A    between atoms: O_6  and  C_7
REMARK    6  A    between atoms: C_7  and  C_8
REMARK    7  A    between atoms: C_7  and  C_9
REMARK    8  A    between atoms: C_11  and  C_12
REMARK    9  A    between atoms: C_11  and  C_13
REMARK   10  A    between atoms: C_18  and  C_19
REMARK   11  A    between atoms: C_24  and  O_25
REMARK   12  A    between atoms: O_25  and  C_26
REMARK                            x       y       z     vdW  Elec       q    Type
REMARK                         _______ _______ _______ _____ _____    ______ ____
ROOT
ATOM      1  C   UNL     1       4.272   4.888  18.277  0.00  0.00    +0.000 C 
ATOM      2  C   UNL     1       4.479   3.557  18.305  0.00  0.00    +0.000 C 
ATOM      3  C   UNL     1       3.782   2.566  19.193  0.00  0.00    +0.000 C 
ATOM      4  C   UNL     1       4.783   2.016  20.214  0.00  0.00    +0.000 C 
ATOM      5  C   UNL     1       3.229   1.423  18.325  0.00  0.00    +0.000 C 
ATOM      6  N   UNL     1       2.644   3.155  19.890  0.00  0.00    +0.000 N 
ATOM      7  C   UNL     1       2.499   4.538  19.994  0.00  0.00    +0.000 A 
ATOM      8  C   UNL     1       1.440   5.040  20.762  0.00  0.00    +0.000 A 
ATOM      9  C   UNL     1       1.123   6.406  20.773  0.00  0.00    +0.000 A 
ATOM     10  C   UNL     1       1.874   7.335  20.047  0.00  0.00    +0.000 A 
ATOM     11  C   UNL     1       2.982   6.810  19.333  0.00  0.00    +0.000 A 
ATOM     12  C   UNL     1       3.261   5.433  19.225  0.00  0.00    +0.000 A 
ATOM     13  H   UNL     1       2.317   2.635  20.695  0.00  0.00    +0.000 HD
ENDROOT
BRANCH  10  14
ATOM     14  C   UNL     1       1.484   8.781  19.908  0.00  0.00    +0.000 A 
ATOM     15  C   UNL     1       1.368   9.315  18.598  0.00  0.00    +0.000 A 
ATOM     16  C   UNL     1       1.008  10.639  18.343  0.00  0.00    +0.000 A 
ATOM     17  C   UNL     1       0.726  11.485  19.398  0.00  0.00    +0.000 A 
ATOM     18  C   UNL     1       0.800  11.001  20.702  0.00  0.00    +0.000 A 
ATOM     19  C   UNL     1       1.157   9.662  20.972  0.00  0.00    +0.000 A 
BRANCH  19  20
ATOM     20  O   UNL     1       1.238   9.201  22.266  0.00  0.00    +0.000 OA
ATOM     21  C   UNL     1       0.051   9.322  23.051  0.00  0.00    +0.000 C 
ENDBRANCH  19  20
ENDBRANCH  10  14
BRANCH   1  22
ATOM     22  C   UNL     1       4.973   5.772  17.252  0.00  0.00    +0.000 C 
ATOM     23  C   UNL     1       5.227   4.949  15.983  0.00  0.00    +0.000 C 
BRANCH  22  24
ATOM     24  O   UNL     1       6.220   6.243  17.801  0.00  0.00    +0.000 OA
BRANCH  24  25
ATOM     25  C   UNL     1       6.800   7.331  17.087  0.00  0.00    +0.000 C 
BRANCH  25  27
ATOM     26  C   UNL     1       8.131   9.245  18.007  0.00  0.00    +0.000 C 
ATOM     27  C   UNL     1       7.872   7.928  17.949  0.00  0.00    +0.000 C 
BRANCH  26  29
ATOM     28  C   UNL     1       9.788  11.085  18.197  0.00  0.00    +0.000 C 
ATOM     29  C   UNL     1       9.172   9.876  18.882  0.00  0.00    +0.000 C 
ENDBRANCH  26  29
ENDBRANCH  25  27
ENDBRANCH  24  25
ENDBRANCH  22  24
ENDBRANCH   1  22
TORSDOF 7
ENDMDL
MODEL 2
REMARK VINA RESULT:      -7.9      3.125      8.383
REMARK  Name = 
REMARK  12 active torsions:
REMARK  status: ('A' for Active; 'I' for Inactive)
REMARK    1  A    between atoms: C_1  and  C_2
REMARK    2  A    between atoms: C_2  and  C_3
REMARK    3  A    between atoms: C_4  and  C_5
REMARK    4  A    between atoms: C_5  and  O_6
REMARK    5  A    between atoms: O_6  and  C_7
REMARK    6  A    between atoms: C_7  and  C_8
REMARK    7  A    between atoms: C_7  and  C_9
REMARK    8  A    between atoms: C_11  and  C_12
REMARK    9  A    between atoms: C_11  and  C_13
REMARK   10  A    between atoms: C_18  and  C_19
REMARK   11  A    between atoms: C_24  and  O_25
REMARK   12  A    between atoms: O_25  and  C_26
REMARK                            x       y       z     vdW  Elec       q    Type
REMARK                         _______ _______ _______ _____ _____    ______ ____
ROOT
ATOM      1  C   UNL     1       0.875  10.042  20.859  0.00  0.00    +0.000 C 
ATOM      2  C   UNL     1       0.610  11.268  20.366  0.00  0.00    +0.000 C 
ATOM      3  C   UNL     1       0.870  11.740  18.964  0.00  0.00    +0.000 C 
ATOM      4  C   UNL     1       1.994  12.780  18.985  0.00  0.00    +0.000 C 
ATOM      5  C   UNL     1      -0.419  12.363  18.403  0.00  0.00    +0.000 C 
ATOM      6  N   UNL     1       1.233  10.644  18.072  0.00  0.00    +0.000 N 
ATOM      7  C   UNL     1       1.652   9.413  18.575  0.00  0.00    +0.000 A 
ATOM      8  C   UNL     1       2.083   8.436  17.668  0.00  0.00    +0.000 A 
ATOM      9  C   UNL     1       2.353   7.122  18.076  0.00  0.00    +0.000 A 
ATOM     10  C   UNL     1       2.239   6.736  19.416  0.00  0.00    +0.000 A 
ATOM     11  C   UNL     1       1.868   7.761  20.324  0.00  0.00    +0.000 A 
ATOM     12  C   UNL     1       1.496   9.061  19.926  0.00  0.00    +0.000 A 
ATOM     13  H   UNL     1       1.684  10.924  17.210  0.00  0.00    +0.000 HD
ENDROOT
BRANCH  10  14
ATOM     14  C   UNL     1       2.370   5.310  19.876  0.00  0.00    +0.000 A 
ATOM     15  C   UNL     1       1.213   4.670  20.394  0.00  0.00    +0.000 A 
ATOM     16  C   UNL     1       1.209   3.350  20.845  0.00  0.00    +0.000 A 
ATOM     17  C   UNL     1       2.370   2.602  20.778  0.00  0.00    +0.000 A 
ATOM     18  C   UNL     1       3.525   3.177  20.254  0.00  0.00    +0.000 A 
ATOM     19  C   UNL     1       3.539   4.510  19.788  0.00  0.00    +0.000 A 
BRANCH  19  20
ATOM     20  O   UNL     1       4.692   5.068  19.284  0.00  0.00    +0.000 OA
ATOM     21  C   UNL     1       5.197   4.487  18.081  0.00  0.00    +0.000 C 
ENDBRANCH  19  20
ENDBRANCH  10  14
BRANCH   1  22
ATOM     22  C   UNL     1       0.465   9.657  22.276  0.00  0.00    +0.000 C 
ATOM     23  C   UNL     1      -0.653   8.611  22.197  0.00  0.00    +0.000 C 
BRANCH  22  24
ATOM     24  O   UNL     1       0.005  10.831  22.974  0.00  0.00    +0.000 OA
BRANCH  24  25
ATOM     25  C   UNL     1      -1.404  10.869  23.189  0.00  0.00    +0.000 C 
BRANCH  25  27
ATOM     26  C   UNL     1      -1.000  13.335  22.984  0.00  0.00    +0.000 C 
ATOM     27  C   UNL     1      -1.848  12.297  23.081  0.00  0.00    +0.000 C 
BRANCH  26  29
ATOM     28  C   UNL     1      -1.940  15.309  24.162  0.00  0.00    +0.000 C 
ATOM     29  C   UNL     1      -1.413  14.768  22.842  0.00  0.00    +0.000 C 
ENDBRANCH  26  29
ENDBRANCH  25  27
ENDBRANCH  24  25
ENDBRANCH  22  24
ENDBRANCH   1  22
TORSDOF 7
ENDMDL
MODEL 3
REMARK VINA RESULT:      -7.9      2.952      8.743
REMARK  Name = 
REMARK  12 active torsions:
REMARK  status: ('A' for Active; 'I' for Inactive)
REMARK    1  A    between atoms: C_1  and  C_2
REMARK    2  A    between atoms: C_2  and  C_3
REMARK    3  A    between atoms: C_4  and  C_5
REMARK    4  A    between atoms: C_5  and  O_6
REMARK    5  A    between atoms: O_6  and  C_7
REMARK    6  A    between atoms: C_7  and  C_8
REMARK    7  A    between atoms: C_7  and  C_9
REMARK    8  A    between atoms: C_11  and  C_12
REMARK    9  A    between atoms: C_11  and  C_13
REMARK   10  A    between atoms: C_18  and  C_19
REMARK   11  A    between atoms: C_24  and  O_25
REMARK   12  A    between atoms: O_25  and  C_26
REMARK                            x       y       z     vdW  Elec       q    Type
REMARK                         _______ _______ _______ _____ _____    ______ ____
ROOT
ATOM      1  C   UNL     1       0.837  10.079  20.790  0.00  0.00    +0.000 C 
ATOM      2  C   UNL     1       0.511  11.290  20.296  0.00  0.00    +0.000 C 
ATOM      3  C   UNL     1       0.719  11.762  18.886  0.00  0.00    +0.000 C 
ATOM      4  C   UNL     1       1.799  12.847  18.874  0.00  0.00    +0.000 C 
ATOM      5  C   UNL     1      -0.606  12.327  18.350  0.00  0.00    +0.000 C 
ATOM      6  N   UNL     1       1.106  10.675  17.993  0.00  0.00    +0.000 N 
ATOM      7  C   UNL     1       1.588   9.466  18.493  0.00  0.00    +0.000 A 
ATOM      8  C   UNL     1       2.037   8.501  17.583  0.00  0.00    +0.000 A 
ATOM      9  C   UNL     1       2.370   7.202  17.993  0.00  0.00    +0.000 A 
ATOM     10  C   UNL     1       2.303   6.822  19.337  0.00  0.00    +0.000 A 
ATOM     11  C   UNL     1       1.910   7.837  20.247  0.00  0.00    +0.000 A 
ATOM     12  C   UNL     1       1.476   9.118  19.850  0.00  0.00    +0.000 A 
ATOM     13  H   UNL     1       1.527  10.967  17.119  0.00  0.00    +0.000 HD
ENDROOT
BRANCH  10  14
ATOM     14  C   UNL     1       2.503   5.405  19.804  0.00  0.00    +0.000 A 
ATOM     15  C   UNL     1       1.496   4.826  20.619  0.00  0.00    +0.000 A 
ATOM     16  C   UNL     1       1.566   3.521  21.107  0.00  0.00    +0.000 A 
ATOM     17  C   UNL     1       2.648   2.727  20.778  0.00  0.00    +0.000 A 
ATOM     18  C   UNL     1       3.650   3.241  19.959  0.00  0.00    +0.000 A 
ATOM     19  C   UNL     1       3.587   4.558  19.454  0.00  0.00    +0.000 A 
BRANCH  19  20
ATOM     20  O   UNL     1       4.590   5.056  18.655  0.00  0.00    +0.000 OA
ATOM     21  C   UNL     1       5.878   5.172  19.262  0.00  0.00    +0.000 C 
ENDBRANCH  19  20
ENDBRANCH  10  14
BRANCH   1  22
ATOM     22  C   UNL     1       0.475   9.688  22.219  0.00  0.00    +0.000 C 
ATOM     23  C   UNL     1      -0.577   8.574  22.172  0.00  0.00    +0.000 C 
BRANCH  22  24
ATOM     24  O   UNL     1      -0.045  10.840  22.911  0.00  0.00    +0.000 OA
BRANCH  24  25
ATOM     25  C   UNL     1      -1.406  10.715  23.314  0.00  0.00    +0.000 C 
BRANCH  25  27
ATOM     26  C   UNL     1      -3.192  12.457  23.557  0.00  0.00    +0.000 C 
ATOM     27  C   UNL     1      -2.125  11.966  22.906  0.00  0.00    +0.000 C 
BRANCH  26  29
ATOM     28  C   UNL     1      -5.397  13.597  23.487  0.00  0.00    +0.000 C 
ATOM     29  C   UNL     1      -3.910  13.721  23.195  0.00  0.00    +0.000 C 
ENDBRANCH  26  29
ENDBRANCH  25  27
ENDBRANCH  24  25
ENDBRANCH  22  24
ENDBRANCH   1  22
TORSDOF 7
ENDMDL
MODEL 4
REMARK VINA RESULT:      -7.8      2.065      3.231
REMARK  Name = 
REMARK  12 active torsions:
REMARK  status: ('A' for Active; 'I' for Inactive)
REMARK    1  A    between atoms: C_1  and  C_2
REMARK    2  A    between atoms: C_2  and  C_3
REMARK    3  A    between atoms: C_4  and  C_5
REMARK    4  A    between atoms: C_5  and  O_6
REMARK    5  A    between atoms: O_6  and  C_7
REMARK    6  A    between atoms: C_7  and  C_8
REMARK    7  A    between atoms: C_7  and  C_9
REMARK    8  A    between atoms: C_11  and  C_12
REMARK    9  A    between atoms: C_11  and  C_13
REMARK   10  A    between atoms: C_18  and  C_19
REMARK   11  A    between atoms: C_24  and  O_25
REMARK   12  A    between atoms: O_25  and  C_26
REMARK                            x       y       z     vdW  Elec       q    Type
REMARK                         _______ _______ _______ _____ _____    ______ ____
ROOT
ATOM      1  C   UNL     1       4.577   4.805  18.686  0.00  0.00    +0.000 C 
ATOM      2  C   UNL     1       4.801   3.477  18.682  0.00  0.00    +0.000 C 
ATOM      3  C   UNL     1       3.985   2.434  19.392  0.00  0.00    +0.000 C 
ATOM      4  C   UNL     1       4.815   1.842  20.535  0.00  0.00    +0.000 C 
ATOM      5  C   UNL     1       3.603   1.333  18.388  0.00  0.00    +0.000 C 
ATOM      6  N   UNL     1       2.738   2.975  19.920  0.00  0.00    +0.000 N 
ATOM      7  C   UNL     1       2.552   4.349  20.067  0.00  0.00    +0.000 A 
ATOM      8  C   UNL     1       1.373   4.800  20.674  0.00  0.00    +0.000 A 
ATOM      9  C   UNL     1       1.033   6.161  20.701  0.00  0.00    +0.000 A 
ATOM     10  C   UNL     1       1.877   7.134  20.155  0.00  0.00    +0.000 A 
ATOM     11  C   UNL     1       3.097   6.658  19.609  0.00  0.00    +0.000 A 
ATOM     12  C   UNL     1       3.414   5.290  19.480  0.00  0.00    +0.000 A 
ATOM     13  H   UNL     1       2.292   2.411  20.633  0.00  0.00    +0.000 HD
ENDROOT
BRANCH  10  14
ATOM     14  C   UNL     1       1.489   8.582  20.026  0.00  0.00    +0.000 A 
ATOM     15  C   UNL     1       1.482   9.154  18.728  0.00  0.00    +0.000 A 
ATOM     16  C   UNL     1       1.134  10.483  18.481  0.00  0.00    +0.000 A 
ATOM     17  C   UNL     1       0.756  11.295  19.533  0.00  0.00    +0.000 A 
ATOM     18  C   UNL     1       0.721  10.772  20.823  0.00  0.00    +0.000 A 
ATOM     19  C   UNL     1       1.064   9.428  21.084  0.00  0.00    +0.000 A 
BRANCH  19  20
ATOM     20  O   UNL     1       1.037   8.929  22.366  0.00  0.00    +0.000 OA
ATOM     21  C   UNL     1       0.056   9.491  23.239  0.00  0.00    +0.000 C 
ENDBRANCH  19  20
ENDBRANCH  10  14
BRANCH   1  22
ATOM     22  C   UNL     1       5.421   5.749  17.836  0.00  0.00    +0.000 C 
ATOM     23  C   UNL     1       4.516   6.406  16.786  0.00  0.00    +0.000 C 
BRANCH  22  24
ATOM     24  O   UNL     1       6.472   5.001  17.193  0.00  0.00    +0.000 OA
BRANCH  24  25
ATOM     25  C   UNL     1       6.865   5.515  15.924  0.00  0.00    +0.000 C 
BRANCH  25  27
ATOM     26  C   UNL     1       6.178   4.415  13.780  0.00  0.00    +0.000 C 
ATOM     27  C   UNL     1       6.850   4.382  14.942  0.00  0.00    +0.000 C 
BRANCH  26  29
ATOM     28  C   UNL     1       4.906   3.369  11.921  0.00  0.00    +0.000 C 
ATOM     29  C   UNL     1       6.170   3.314  12.763  0.00  0.00    +0.000 C 
ENDBRANCH  26  29
ENDBRANCH  25  27
ENDBRANCH  24  25
ENDBRANCH  22  24
ENDBRANCH   1  22
TORSDOF 7
ENDMDL
MODEL 5
REMARK VINA RESULT:      -7.4      1.047      1.795
REMARK  Name = 
REMARK  12 active torsions:
REMARK  status: ('A' for Active; 'I' for Inactive)
REMARK    1  A    between atoms: C_1  and  C_2
REMARK    2  A    between atoms: C_2  and  C_3
REMARK    3  A    between atoms: C_4  and  C_5
REMARK    4  A    between atoms: C_5  and  O_6
REMARK    5  A    between atoms: O_6  and  C_7
REMARK    6  A    between atoms: C_7  and  C_8
REMARK    7  A    between atoms: C_7  and  C_9
REMARK    8  A    between atoms: C_11  and  C_12
REMARK    9  A    between atoms: C_11  and  C_13
REMARK   10  A    between atoms: C_18  and  C_19
REMARK   11  A    between atoms: C_24  and  O_25
REMARK   12  A    between atoms: O_25  and  C_26
REMARK                            x       y       z     vdW  Elec       q    Type
REMARK                         _______ _______ _______ _____ _____    ______ ____
ROOT
ATOM      1  C   UNL     1       4.307   5.132  18.539  0.00  0.00    +0.000 C 
ATOM      2  C   UNL     1       4.584   3.836  18.298  0.00  0.00    +0.000 C 
ATOM      3  C   UNL     1       3.858   2.649  18.865  0.00  0.00    +0.000 C 
ATOM      4  C   UNL     1       4.781   1.918  19.845  0.00  0.00    +0.000 C 
ATOM      5  C   UNL     1       3.461   1.713  17.712  0.00  0.00    +0.000 C 
ATOM      6  N   UNL     1       2.624   3.031  19.543  0.00  0.00    +0.000 N 
ATOM      7  C   UNL     1       2.392   4.349  19.931  0.00  0.00    +0.000 A 
ATOM      8  C   UNL     1       1.235   4.633  20.668  0.00  0.00    +0.000 A 
ATOM      9  C   UNL     1       0.842   5.950  20.943  0.00  0.00    +0.000 A 
ATOM     10  C   UNL     1       1.609   7.042  20.525  0.00  0.00    +0.000 A 
ATOM     11  C   UNL     1       2.811   6.727  19.840  0.00  0.00    +0.000 A 
ATOM     12  C   UNL     1       3.176   5.418  19.465  0.00  0.00    +0.000 A 
ATOM     13  H   UNL     1       2.248   2.333  20.174  0.00  0.00    +0.000 HD
ENDROOT
BRANCH  10  14
ATOM     14  C   UNL     1       1.154   8.470  20.664  0.00  0.00    +0.000 A 
ATOM     15  C   UNL     1       0.928   8.971  21.973  0.00  0.00    +0.000 A 
ATOM     16  C   UNL     1       0.511  10.277  22.228  0.00  0.00    +0.000 A 
ATOM     17  C   UNL     1       0.321  11.151  21.174  0.00  0.00    +0.000 A 
ATOM     18  C   UNL     1       0.555  10.715  19.873  0.00  0.00    +0.000 A 
ATOM     19  C   UNL     1       0.983   9.397  19.602  0.00  0.00    +0.000 A 
BRANCH  19  20
ATOM     20  O   UNL     1       1.198   8.976  18.310  0.00  0.00    +0.000 OA
ATOM     21  C   UNL     1       2.323   9.550  17.642  0.00  0.00    +0.000 C 
ENDBRANCH  19  20
ENDBRANCH  10  14
BRANCH   1  22
ATOM     22  C   UNL     1       5.056   6.246  17.816  0.00  0.00    +0.000 C 
ATOM     23  C   UNL     1       4.979   5.991  16.306  0.00  0.00    +0.000 C 
BRANCH  22  24
ATOM     24  O   UNL     1       6.430   6.258  18.252  0.00  0.00    +0.000 OA
BRANCH  24  25
ATOM     25  C   UNL     1       7.311   6.976  17.393  0.00  0.00    +0.000 C 
BRANCH  25  27
ATOM     26  C   UNL     1       8.326   9.178  18.030  0.00  0.00    +0.000 C 
ATOM     27  C   UNL     1       8.167   7.862  18.248  0.00  0.00    +0.000 C 
BRANCH  26  29
ATOM     28  C   UNL     1       9.139  11.507  18.319  0.00  0.00    +0.000 C 
ATOM     29  C   UNL     1       9.147  10.095  18.884  0.00  0.00    +0.000 C 
ENDBRANCH  26  29
ENDBRANCH  25  27
ENDBRANCH  24  25
ENDBRANCH  22  24
ENDBRANCH   1  22
TORSDOF 7
ENDMDL
MODEL 6
REMARK VINA RESULT:      -7.3      3.762      9.044
REMARK  Name = 
REMARK  12 active torsions:
REMARK  status: ('A' for Active; 'I' for Inactive)
REMARK    1  A    between atoms: C_1  and  C_2
REMARK    2  A    between atoms: C_2  and  C_3
REMARK    3  A    between atoms: C_4  and  C_5
REMARK    4  A    between atoms: C_5  and  O_6
REMARK    5  A    between atoms: O_6  and  C_7
REMARK    6  A    between atoms: C_7  and  C_8
REMARK    7  A    between atoms: C_7  and  C_9
REMARK    8  A    between atoms: C_11  and  C_12
REMARK    9  A    between atoms: C_11  and  C_13
REMARK   10  A    between atoms: C_18  and  C_19
REMARK   11  A    between atoms: C_24  and  O_25
REMARK   12  A    between atoms: O_25  and  C_26
REMARK                            x       y       z     vdW  Elec       q    Type
REMARK                         _______ _______ _______ _____ _____    ______ ____
ROOT
ATOM      1  C   UNL     1      -0.832  11.948  20.049  0.00  0.00    +0.000 C 
ATOM      2  C   UNL     1      -1.453  12.789  20.899  0.00  0.00    +0.000 C 
ATOM      3  C   UNL     1      -1.622  12.597  22.379  0.00  0.00    +0.000 C 
ATOM      4  C   UNL     1      -3.102  12.345  22.686  0.00  0.00    +0.000 C 
ATOM      5  C   UNL     1      -1.139  13.864  23.103  0.00  0.00    +0.000 C 
ATOM      6  N   UNL     1      -0.820  11.489  22.886  0.00  0.00    +0.000 N 
ATOM      7  C   UNL     1      -0.295  10.525  22.026  0.00  0.00    +0.000 A 
ATOM      8  C   UNL     1       0.381   9.432  22.583  0.00  0.00    +0.000 A 
ATOM      9  C   UNL     1       1.085   8.518  21.787  0.00  0.00    +0.000 A 
ATOM     10  C   UNL     1       1.114   8.636  20.394  0.00  0.00    +0.000 A 
ATOM     11  C   UNL     1       0.366   9.712  19.849  0.00  0.00    +0.000 A 
ATOM     12  C   UNL     1      -0.266  10.699  20.632  0.00  0.00    +0.000 A 
ATOM     13  H   UNL     1      -1.100  11.136  23.793  0.00  0.00    +0.000 HD
ENDROOT
BRANCH  10  14
ATOM     14  C   UNL     1       1.975   7.773  19.512  0.00  0.00    +0.000 A 
ATOM     15  C   UNL     1       2.562   8.371  18.366  0.00  0.00    +0.000 A 
ATOM     16  C   UNL     1       3.383   7.676  17.478  0.00  0.00    +0.000 A 
ATOM     17  C   UNL     1       3.670   6.345  17.714  0.00  0.00    +0.000 A 
ATOM     18  C   UNL     1       3.139   5.720  18.839  0.00  0.00    +0.000 A 
ATOM     19  C   UNL     1       2.312   6.415  19.748  0.00  0.00    +0.000 A 
BRANCH  19  20
ATOM     20  O   UNL     1       1.785   5.780  20.850  0.00  0.00    +0.000 OA
ATOM     21  C   UNL     1       1.464   4.398  20.685  0.00  0.00    +0.000 C 
ENDBRANCH  19  20
ENDBRANCH  10  14
BRANCH   1  22
ATOM     22  C   UNL     1      -0.636  12.312  18.582  0.00  0.00    +0.000 C 
ATOM     23  C   UNL     1      -0.126  13.755  18.497  0.00  0.00    +0.000 C 
BRANCH  22  24
ATOM     24  O   UNL     1      -1.892  12.183  17.887  0.00  0.00    +0.000 OA
BRANCH  24  25
ATOM     25  C   UNL     1      -2.151  10.877  17.381  0.00  0.00    +0.000 C 
BRANCH  25  27
ATOM     26  C   UNL     1      -4.511  11.204  18.159  0.00  0.00    +0.000 C 
ATOM     27  C   UNL     1      -3.637  10.711  17.267  0.00  0.00    +0.000 C 
BRANCH  26  29
ATOM     28  C   UNL     1      -6.683  11.937  19.114  0.00  0.00    +0.000 C 
ATOM     29  C   UNL     1      -6.001  11.085  18.055  0.00  0.00    +0.000 C 
ENDBRANCH  26  29
ENDBRANCH  25  27
ENDBRANCH  24  25
ENDBRANCH  22  24
ENDBRANCH   1  22
TORSDOF 7
ENDMDL
MODEL 7
REMARK VINA RESULT:      -7.2      3.704      8.769
REMARK  Name = 
REMARK  12 active torsions:
REMARK  status: ('A' for Active; 'I' for Inactive)
REMARK    1  A    between atoms: C_1  and  C_2
REMARK    2  A    between atoms: C_2  and  C_3
REMARK    3  A    between atoms: C_4  and  C_5
REMARK    4  A    between atoms: C_5  and  O_6
REMARK    5  A    between atoms: O_6  and  C_7
REMARK    6  A    between atoms: C_7  and  C_8
REMARK    7  A    between atoms: C_7  and  C_9
REMARK    8  A    between atoms: C_11  and  C_12
REMARK    9  A    between atoms: C_11  and  C_13
REMARK   10  A    between atoms: C_18  and  C_19
REMARK   11  A    between atoms: C_24  and  O_25
REMARK   12  A    between atoms: O_25  and  C_26
REMARK                            x       y       z     vdW  Elec       q    Type
REMARK                         _______ _______ _______ _____ _____    ______ ____
ROOT
ATOM      1  C   UNL     1      -0.954  11.994  20.261  0.00  0.00    +0.000 C 
ATOM      2  C   UNL     1      -1.590  12.796  21.136  0.00  0.00    +0.000 C 
ATOM      3  C   UNL     1      -1.772  12.544  22.606  0.00  0.00    +0.000 C 
ATOM      4  C   UNL     1      -3.251  12.266  22.888  0.00  0.00    +0.000 C 
ATOM      5  C   UNL     1      -1.306  13.785  23.385  0.00  0.00    +0.000 C 
ATOM      6  N   UNL     1      -0.964  11.423  23.076  0.00  0.00    +0.000 N 
ATOM      7  C   UNL     1      -0.422  10.499  22.184  0.00  0.00    +0.000 A 
ATOM      8  C   UNL     1       0.258   9.391  22.705  0.00  0.00    +0.000 A 
ATOM      9  C   UNL     1       0.978   8.515  21.880  0.00  0.00    +0.000 A 
ATOM     10  C   UNL     1       1.019   8.688  20.492  0.00  0.00    +0.000 A 
ATOM     11  C   UNL     1       0.266   9.778  19.984  0.00  0.00    +0.000 A 
ATOM     12  C   UNL     1      -0.382  10.728  20.798  0.00  0.00    +0.000 A 
ATOM     13  H   UNL     1      -1.249  11.033  23.966  0.00  0.00    +0.000 HD
ENDROOT
BRANCH  10  14
ATOM     14  C   UNL     1       1.896   7.868  19.585  0.00  0.00    +0.000 A 
ATOM     15  C   UNL     1       2.387   8.482  18.404  0.00  0.00    +0.000 A 
ATOM     16  C   UNL     1       3.213   7.827  17.490  0.00  0.00    +0.000 A 
ATOM     17  C   UNL     1       3.600   6.523  17.734  0.00  0.00    +0.000 A 
ATOM     18  C   UNL     1       3.166   5.886  18.893  0.00  0.00    +0.000 A 
ATOM     19  C   UNL     1       2.336   6.541  19.828  0.00  0.00    +0.000 A 
BRANCH  19  20
ATOM     20  O   UNL     1       1.904   5.894  20.964  0.00  0.00    +0.000 OA
ATOM     21  C   UNL     1       1.973   4.468  20.939  0.00  0.00    +0.000 C 
ENDBRANCH  19  20
ENDBRANCH  10  14
BRANCH   1  22
ATOM     22  C   UNL     1      -0.748  12.418  18.810  0.00  0.00    +0.000 C 
ATOM     23  C   UNL     1      -0.537  13.936  18.767  0.00  0.00    +0.000 C 
BRANCH  22  24
ATOM     24  O   UNL     1      -1.907  12.051  18.037  0.00  0.00    +0.000 OA
BRANCH  24  25
ATOM     25  C   UNL     1      -1.766  10.833  17.312  0.00  0.00    +0.000 C 
BRANCH  25  27
ATOM     26  C   UNL     1      -2.840  10.201  15.137  0.00  0.00    +0.000 C 
ATOM     27  C   UNL     1      -2.930  10.716  16.374  0.00  0.00    +0.000 C 
BRANCH  26  29
ATOM     28  C   UNL     1      -3.494   9.670  12.801  0.00  0.00    +0.000 C 
ATOM     29  C   UNL     1      -3.990  10.040  14.190  0.00  0.00    +0.000 C 
ENDBRANCH  26  29
ENDBRANCH  25  27
ENDBRANCH  24  25
ENDBRANCH  22  24
ENDBRANCH   1  22
TORSDOF 7
ENDMDL
MODEL 8
REMARK VINA RESULT:      -7.2      1.836      3.061
REMARK  Name = 
REMARK  12 active torsions:
REMARK  status: ('A' for Active; 'I' for Inactive)
REMARK    1  A    between atoms: C_1  and  C_2
REMARK    2  A    between atoms: C_2  and  C_3
REMARK    3  A    between atoms: C_4  and  C_5
REMARK    4  A    between atoms: C_5  and  O_6
REMARK    5  A    between atoms: O_6  and  C_7
REMARK    6  A    between atoms: C_7  and  C_8
REMARK    7  A    between atoms: C_7  and  C_9
REMARK    8  A    between atoms: C_11  and  C_12
REMARK    9  A    between atoms: C_11  and  C_13
REMARK   10  A    between atoms: C_18  and  C_19
REMARK   11  A    between atoms: C_24  and  O_25
REMARK   12  A    between atoms: O_25  and  C_26
REMARK                            x       y       z     vdW  Elec       q    Type
REMARK                         _______ _______ _______ _____ _____    ______ ____
ROOT
ATOM      1  C   UNL     1       4.783   4.482  18.926  0.00  0.00    +0.000 C 
ATOM      2  C   UNL     1       4.989   3.152  18.982  0.00  0.00    +0.000 C 
ATOM      3  C   UNL     1       4.095   2.139  19.640  0.00  0.00    +0.000 C 
ATOM      4  C   UNL     1       4.802   1.574  20.876  0.00  0.00    +0.000 C 
ATOM      5  C   UNL     1       3.798   1.012  18.637  0.00  0.00    +0.000 C 
ATOM      6  N   UNL     1       2.809   2.708  20.028  0.00  0.00    +0.000 N 
ATOM      7  C   UNL     1       2.628   4.088  20.117  0.00  0.00    +0.000 A 
ATOM      8  C   UNL     1       1.401   4.569  20.592  0.00  0.00    +0.000 A 
ATOM      9  C   UNL     1       1.078   5.933  20.546  0.00  0.00    +0.000 A 
ATOM     10  C   UNL     1       1.983   6.880  20.057  0.00  0.00    +0.000 A 
ATOM     11  C   UNL     1       3.244   6.376  19.646  0.00  0.00    +0.000 A 
ATOM     12  C   UNL     1       3.555   5.002  19.589  0.00  0.00    +0.000 A 
ATOM     13  H   UNL     1       2.290   2.170  20.711  0.00  0.00    +0.000 HD
ENDROOT
BRANCH  10  14
ATOM     14  C   UNL     1       1.627   8.327  19.848  0.00  0.00    +0.000 A 
ATOM     15  C   UNL     1       1.726   8.853  18.533  0.00  0.00    +0.000 A 
ATOM     16  C   UNL     1       1.419  10.175  18.215  0.00  0.00    +0.000 A 
ATOM     17  C   UNL     1       0.975  11.030  19.206  0.00  0.00    +0.000 A 
ATOM     18  C   UNL     1       0.836  10.555  20.508  0.00  0.00    +0.000 A 
ATOM     19  C   UNL     1       1.138   9.217  20.841  0.00  0.00    +0.000 A 
BRANCH  19  20
ATOM     20  O   UNL     1       1.007   8.764  22.134  0.00  0.00    +0.000 OA
ATOM     21  C   UNL     1       0.152   9.530  22.984  0.00  0.00    +0.000 C 
ENDBRANCH  19  20
ENDBRANCH  10  14
BRANCH   1  22
ATOM     22  C   UNL     1       5.717   5.391  18.134  0.00  0.00    +0.000 C 
ATOM     23  C   UNL     1       6.827   5.887  19.067  0.00  0.00    +0.000 C 
BRANCH  22  24
ATOM     24  O   UNL     1       4.967   6.505  17.611  0.00  0.00    +0.000 OA
BRANCH  24  25
ATOM     25  C   UNL     1       4.921   6.563  16.188  0.00  0.00    +0.000 C 
BRANCH  25  27
ATOM     26  C   UNL     1       5.751   5.047  14.372  0.00  0.00    +0.000 C 
ATOM     27  C   UNL     1       5.412   5.250  15.656  0.00  0.00    +0.000 C 
BRANCH  26  29
ATOM     28  C   UNL     1       5.710   3.500  12.430  0.00  0.00    +0.000 C 
ATOM     29  C   UNL     1       6.276   3.758  13.817  0.00  0.00    +0.000 C 
ENDBRANCH  26  29
ENDBRANCH  25  27
ENDBRANCH  24  25
ENDBRANCH  22  24
ENDBRANCH   1  22
TORSDOF 7
ENDMDL
MODEL 9
REMARK VINA RESULT:      -7.0      2.070      3.394
REMARK  Name = 
REMARK  12 active torsions:
REMARK  status: ('A' for Active; 'I' for Inactive)
REMARK    1  A    between atoms: C_1  and  C_2
REMARK    2  A    between atoms: C_2  and  C_3
REMARK    3  A    between atoms: C_4  and  C_5
REMARK    4  A    between atoms: C_5  and  O_6
REMARK    5  A    between atoms: O_6  and  C_7
REMARK    6  A    between atoms: C_7  and  C_8
REMARK    7  A    between atoms: C_7  and  C_9
REMARK    8  A    between atoms: C_11  and  C_12
REMARK    9  A    between atoms: C_11  and  C_13
REMARK   10  A    between atoms: C_18  and  C_19
REMARK   11  A    between atoms: C_24  and  O_25
REMARK   12  A    between atoms: O_25  and  C_26
REMARK                            x       y       z     vdW  Elec       q    Type
REMARK                         _______ _______ _______ _____ _____    ______ ____
ROOT
ATOM      1  C   UNL     1       4.455   4.924  18.850  0.00  0.00    +0.000 C 
ATOM      2  C   UNL     1       4.722   3.625  18.610  0.00  0.00    +0.000 C 
ATOM      3  C   UNL     1       3.897   2.450  19.050  0.00  0.00    +0.000 C 
ATOM      4  C   UNL     1       4.668   1.667  20.116  0.00  0.00    +0.000 C 
ATOM      5  C   UNL     1       3.618   1.554  17.832  0.00  0.00    +0.000 C 
ATOM      6  N   UNL     1       2.600   2.855  19.581  0.00  0.00    +0.000 N 
ATOM      7  C   UNL     1       2.360   4.171  19.973  0.00  0.00    +0.000 A 
ATOM      8  C   UNL     1       1.129   4.475  20.569  0.00  0.00    +0.000 A 
ATOM      9  C   UNL     1       0.744   5.798  20.829  0.00  0.00    +0.000 A 
ATOM     10  C   UNL     1       1.588   6.874  20.539  0.00  0.00    +0.000 A 
ATOM     11  C   UNL     1       2.856   6.535  20.000  0.00  0.00    +0.000 A 
ATOM     12  C   UNL     1       3.227   5.225  19.637  0.00  0.00    +0.000 A 
ATOM     13  H   UNL     1       2.128   2.156  20.141  0.00  0.00    +0.000 HD
ENDROOT
BRANCH  10  14
ATOM     14  C   UNL     1       1.162   8.312  20.659  0.00  0.00    +0.000 A 
ATOM     15  C   UNL     1       0.912   8.824  21.959  0.00  0.00    +0.000 A 
ATOM     16  C   UNL     1       0.518  10.140  22.198  0.00  0.00    +0.000 A 
ATOM     17  C   UNL     1       0.376  11.013  21.136  0.00  0.00    +0.000 A 
ATOM     18  C   UNL     1       0.635  10.566  19.843  0.00  0.00    +0.000 A 
ATOM     19  C   UNL     1       1.041   9.237  19.590  0.00  0.00    +0.000 A 
BRANCH  19  20
ATOM     20  O   UNL     1       1.282   8.806  18.306  0.00  0.00    +0.000 OA
ATOM     21  C   UNL     1       2.398   9.401  17.642  0.00  0.00    +0.000 C 
ENDBRANCH  19  20
ENDBRANCH  10  14
BRANCH   1  22
ATOM     22  C   UNL     1       5.320   6.029  18.255  0.00  0.00    +0.000 C 
ATOM     23  C   UNL     1       4.628   6.575  17.001  0.00  0.00    +0.000 C 
BRANCH  22  24
ATOM     24  O   UNL     1       6.615   5.492  17.919  0.00  0.00    +0.000 OA
BRANCH  24  25
ATOM     25  C   UNL     1       7.069   5.834  16.612  0.00  0.00    +0.000 C 
BRANCH  25  27
ATOM     26  C   UNL     1       6.565   4.780  14.395  0.00  0.00    +0.000 C 
ATOM     27  C   UNL     1       6.807   4.665  15.711  0.00  0.00    +0.000 C 
BRANCH  26  29
ATOM     28  C   UNL     1       6.967   3.901  12.108  0.00  0.00    +0.000 C 
ATOM     29  C   UNL     1       6.332   3.631  13.463  0.00  0.00    +0.000 C 
ENDBRANCH  26  29
ENDBRANCH  25  27
ENDBRANCH  24  25
ENDBRANCH  22  24
ENDBRANCH   1  22
TORSDOF 7
ENDMDL
