MODEL 1
REMARK VINA RESULT:      -7.1      0.000      0.000
REMARK  Name = 
REMARK  7 active torsions:
REMARK  status: ('A' for Active; 'I' for Inactive)
REMARK    1  A    between atoms: C_1  and  O_2
REMARK    2  A    between atoms: O_2  and  C_3
REMARK    3  A    between atoms: C_6  and  C_7
REMARK    4  A    between atoms: C_7  and  C_9
REMARK    5  A    between atoms: C_10  and  C_11
REMARK    6  A    between atoms: C_19  and  O_20
REMARK    7  A    between atoms: O_20  and  C_21
REMARK                            x       y       z     vdW  Elec       q    Type
REMARK                         _______ _______ _______ _____ _____    ______ ____
ROOT
ATOM      1  C   UNL     1       4.550   4.012  19.150  0.00  0.00    +0.000 C 
ATOM      2  O   UNL     1       4.552   2.934  19.734  0.00  0.00    +0.000 OA
ENDROOT
BRANCH   1   6
ATOM      3  C   UNL     1       6.489   4.471  15.307  0.00  0.00    +0.000 A 
ATOM      4  C   UNL     1       5.137   4.165  15.382  0.00  0.00    +0.000 A 
ATOM      5  C   UNL     1       4.519   4.007  16.624  0.00  0.00    +0.000 A 
ATOM      6  C   UNL     1       5.233   4.203  17.821  0.00  0.00    +0.000 A 
ATOM      7  C   UNL     1       6.600   4.558  17.743  0.00  0.00    +0.000 A 
ATOM      8  C   UNL     1       7.212   4.679  16.482  0.00  0.00    +0.000 A 
BRANCH   3  10
ATOM      9  C   UNL     1       6.362   3.802  13.048  0.00  0.00    +0.000 C 
ATOM     10  O   UNL     1       6.998   4.596  14.044  0.00  0.00    +0.000 OA
ENDBRANCH   3  10
BRANCH   7  11
ATOM     11  O   UNL     1       7.267   4.801  18.916  0.00  0.00    +0.000 OA
ATOM     12  C   UNL     1       7.882   6.073  19.089  0.00  0.00    +0.000 C 
ENDBRANCH   7  11
ENDBRANCH   1   6
BRANCH   1  13
ATOM     13  C   UNL     1       3.803   5.174  19.730  0.00  0.00    +0.000 C 
ATOM     14  C   UNL     1       2.812   5.765  19.046  0.00  0.00    +0.000 C 
BRANCH  14  15
ATOM     15  C   UNL     1       2.163   6.978  19.564  0.00  0.00    +0.000 A 
ATOM     16  C   UNL     1       1.585   6.901  20.837  0.00  0.00    +0.000 A 
ATOM     17  C   UNL     1       0.920   8.003  21.387  0.00  0.00    +0.000 A 
ATOM     18  C   UNL     1       0.842   9.190  20.667  0.00  0.00    +0.000 A 
ATOM     19 CL   UNL     1       0.030  10.546  21.351  0.00  0.00    +0.000 Cl
ATOM     20  C   UNL     1       1.407   9.289  19.398  0.00  0.00    +0.000 A 
ATOM     21  C   UNL     1       2.062   8.184  18.844  0.00  0.00    +0.000 A 
ATOM     22 CL   UNL     1       2.723   8.356  17.257  0.00  0.00    +0.000 Cl
ENDBRANCH  14  15
ENDBRANCH   1  13
TORSDOF 5
ENDMDL
MODEL 2
REMARK VINA RESULT:      -7.0      1.881      3.321
REMARK  Name = 
REMARK  7 active torsions:
REMARK  status: ('A' for Active; 'I' for Inactive)
REMARK    1  A    between atoms: C_1  and  O_2
REMARK    2  A    between atoms: O_2  and  C_3
REMARK    3  A    between atoms: C_6  and  C_7
REMARK    4  A    between atoms: C_7  and  C_9
REMARK    5  A    between atoms: C_10  and  C_11
REMARK    6  A    between atoms: C_19  and  O_20
REMARK    7  A    between atoms: O_20  and  C_21
REMARK                            x       y       z     vdW  Elec       q    Type
REMARK                         _______ _______ _______ _____ _____    ______ ____
ROOT
ATOM      1  C   UNL     1       2.360   4.956  20.570  0.00  0.00    +0.000 C 
ATOM      2  O   UNL     1       2.348   4.220  21.550  0.00  0.00    +0.000 OA
ENDROOT
BRANCH   1   6
ATOM      3  C   UNL     1       4.741   4.152  17.046  0.00  0.00    +0.000 A 
ATOM      4  C   UNL     1       5.311   4.753  18.159  0.00  0.00    +0.000 A 
ATOM      5  C   UNL     1       4.537   5.021  19.289  0.00  0.00    +0.000 A 
ATOM      6  C   UNL     1       3.181   4.644  19.346  0.00  0.00    +0.000 A 
ATOM      7  C   UNL     1       2.612   3.992  18.227  0.00  0.00    +0.000 A 
ATOM      8  C   UNL     1       3.402   3.762  17.086  0.00  0.00    +0.000 A 
BRANCH   3  10
ATOM      9  C   UNL     1       6.868   4.548  16.104  0.00  0.00    +0.000 C 
ATOM     10  O   UNL     1       5.585   3.941  15.990  0.00  0.00    +0.000 OA
ENDBRANCH   3  10
BRANCH   7  11
ATOM     11  O   UNL     1       1.307   3.581  18.320  0.00  0.00    +0.000 OA
ATOM     12  C   UNL     1       1.052   2.239  18.721  0.00  0.00    +0.000 C 
ENDBRANCH   7  11
ENDBRANCH   1   6
BRANCH   1  13
ATOM     13  C   UNL     1       1.495   6.179  20.543  0.00  0.00    +0.000 C 
ATOM     14  C   UNL     1       2.038   7.406  20.559  0.00  0.00    +0.000 C 
BRANCH  14  15
ATOM     15  C   UNL     1       1.187   8.601  20.655  0.00  0.00    +0.000 A 
ATOM     16  C   UNL     1       0.663   8.915  21.914  0.00  0.00    +0.000 A 
ATOM     17  C   UNL     1      -0.182  10.018  22.082  0.00  0.00    +0.000 A 
ATOM     18  C   UNL     1      -0.494  10.818  20.988  0.00  0.00    +0.000 A 
ATOM     19 CL   UNL     1      -1.526  12.180  21.200  0.00  0.00    +0.000 Cl
ATOM     20  C   UNL     1       0.014  10.524  19.725  0.00  0.00    +0.000 A 
ATOM     21  C   UNL     1       0.849   9.415  19.556  0.00  0.00    +0.000 A 
ATOM     22 CL   UNL     1       1.431   9.083  17.963  0.00  0.00    +0.000 Cl
ENDBRANCH  14  15
ENDBRANCH   1  13
TORSDOF 5
ENDMDL
MODEL 3
REMARK VINA RESULT:      -7.0      1.528      1.934
REMARK  Name = 
REMARK  7 active torsions:
REMARK  status: ('A' for Active; 'I' for Inactive)
REMARK    1  A    between atoms: C_1  and  O_2
REMARK    2  A    between atoms: O_2  and  C_3
REMARK    3  A    between atoms: C_6  and  C_7
REMARK    4  A    between atoms: C_7  and  C_9
REMARK    5  A    between atoms: C_10  and  C_11
REMARK    6  A    between atoms: C_19  and  O_20
REMARK    7  A    between atoms: O_20  and  C_21
REMARK                            x       y       z     vdW  Elec       q    Type
REMARK                         _______ _______ _______ _____ _____    ______ ____
ROOT
ATOM      1  C   UNL     1       5.218   4.640  18.448  0.00  0.00    +0.000 C 
ATOM      2  O   UNL     1       5.433   3.723  19.233  0.00  0.00    +0.000 OA
ENDROOT
BRANCH   1   6
ATOM      3  C   UNL     1       6.628   4.445  14.359  0.00  0.00    +0.000 A 
ATOM      4  C   UNL     1       5.380   3.941  14.699  0.00  0.00    +0.000 A 
ATOM      5  C   UNL     1       4.935   3.995  16.021  0.00  0.00    +0.000 A 
ATOM      6  C   UNL     1       5.712   4.605  17.025  0.00  0.00    +0.000 A 
ATOM      7  C   UNL     1       6.964   5.158  16.669  0.00  0.00    +0.000 A 
ATOM      8  C   UNL     1       7.409   5.062  15.338  0.00  0.00    +0.000 A 
BRANCH   3  10
ATOM      9  C   UNL     1       7.816   5.367  12.541  0.00  0.00    +0.000 C 
ATOM     10  O   UNL     1       6.971   4.335  13.040  0.00  0.00    +0.000 OA
ENDBRANCH   3  10
BRANCH   7  11
ATOM     11  O   UNL     1       7.683   5.798  17.646  0.00  0.00    +0.000 OA
ATOM     12  C   UNL     1       7.660   7.221  17.674  0.00  0.00    +0.000 C 
ENDBRANCH   7  11
ENDBRANCH   1   6
BRANCH   1  13
ATOM     13  C   UNL     1       4.394   5.814  18.877  0.00  0.00    +0.000 C 
ATOM     14  C   UNL     1       3.266   6.137  18.228  0.00  0.00    +0.000 C 
BRANCH  14  15
ATOM     15  C   UNL     1       2.524   7.358  18.575  0.00  0.00    +0.000 A 
ATOM     16  C   UNL     1       2.577   8.420  17.664  0.00  0.00    +0.000 A 
ATOM     17  C   UNL     1       1.924   9.628  17.937  0.00  0.00    +0.000 A 
ATOM     18  C   UNL     1       1.206   9.771  19.119  0.00  0.00    +0.000 A 
ATOM     19 CL   UNL     1       0.397  11.255  19.446  0.00  0.00    +0.000 Cl
ATOM     20  C   UNL     1       1.142   8.729  20.041  0.00  0.00    +0.000 A 
ATOM     21  C   UNL     1       1.803   7.527  19.773  0.00  0.00    +0.000 A 
ATOM     22 CL   UNL     1       1.710   6.276  20.963  0.00  0.00    +0.000 Cl
ENDBRANCH  14  15
ENDBRANCH   1  13
TORSDOF 5
ENDMDL
MODEL 4
REMARK VINA RESULT:      -6.9      1.421      1.803
REMARK  Name = 
REMARK  7 active torsions:
REMARK  status: ('A' for Active; 'I' for Inactive)
REMARK    1  A    between atoms: C_1  and  O_2
REMARK    2  A    between atoms: O_2  and  C_3
REMARK    3  A    between atoms: C_6  and  C_7
REMARK    4  A    between atoms: C_7  and  C_9
REMARK    5  A    between atoms: C_10  and  C_11
REMARK    6  A    between atoms: C_19  and  O_20
REMARK    7  A    between atoms: O_20  and  C_21
REMARK                            x       y       z     vdW  Elec       q    Type
REMARK                         _______ _______ _______ _____ _____    ______ ____
ROOT
ATOM      1  C   UNL     1       4.302   3.755  17.782  0.00  0.00    +0.000 C 
ATOM      2  O   UNL     1       4.003   2.573  17.910  0.00  0.00    +0.000 OA
ENDROOT
BRANCH   1   6
ATOM      3  C   UNL     1       7.238   4.998  14.855  0.00  0.00    +0.000 A 
ATOM      4  C   UNL     1       5.953   4.652  14.461  0.00  0.00    +0.000 A 
ATOM      5  C   UNL     1       5.013   4.241  15.407  0.00  0.00    +0.000 A 
ATOM      6  C   UNL     1       5.327   4.216  16.779  0.00  0.00    +0.000 A 
ATOM      7  C   UNL     1       6.623   4.612  17.185  0.00  0.00    +0.000 A 
ATOM      8  C   UNL     1       7.565   4.991  16.211  0.00  0.00    +0.000 A 
BRANCH   3  10
ATOM      9  C   UNL     1       7.616   5.118  12.529  0.00  0.00    +0.000 C 
ATOM     10  O   UNL     1       8.082   5.380  13.849  0.00  0.00    +0.000 OA
ENDBRANCH   3  10
BRANCH   7  11
ATOM     11  O   UNL     1       6.895   4.638  18.528  0.00  0.00    +0.000 OA
ATOM     12  C   UNL     1       7.795   5.629  19.013  0.00  0.00    +0.000 C 
ENDBRANCH   7  11
ENDBRANCH   1   6
BRANCH   1  13
ATOM     13  C   UNL     1       3.598   4.795  18.598  0.00  0.00    +0.000 C 
ATOM     14  C   UNL     1       2.845   5.737  18.011  0.00  0.00    +0.000 C 
BRANCH  14  15
ATOM     15  C   UNL     1       2.254   6.826  18.802  0.00  0.00    +0.000 A 
ATOM     16  C   UNL     1       2.117   8.071  18.175  0.00  0.00    +0.000 A 
ATOM     17  C   UNL     1       1.594   9.167  18.871  0.00  0.00    +0.000 A 
ATOM     18  C   UNL     1       1.195   9.015  20.194  0.00  0.00    +0.000 A 
ATOM     19 CL   UNL     1       0.543  10.364  21.044  0.00  0.00    +0.000 Cl
ATOM     20  C   UNL     1       1.325   7.788  20.839  0.00  0.00    +0.000 A 
ATOM     21  C   UNL     1       1.858   6.696  20.147  0.00  0.00    +0.000 A 
ATOM     22 CL   UNL     1       2.019   5.203  21.003  0.00  0.00    +0.000 Cl
ENDBRANCH  14  15
ENDBRANCH   1  13
TORSDOF 5
ENDMDL
MODEL 5
REMARK VINA RESULT:      -6.8      2.273      3.901
REMARK  Name = 
REMARK  7 active torsions:
REMARK  status: ('A' for Active; 'I' for Inactive)
REMARK    1  A    between atoms: C_1  and  O_2
REMARK    2  A    between atoms: O_2  and  C_3
REMARK    3  A    between atoms: C_6  and  C_7
REMARK    4  A    between atoms: C_7  and  C_9
REMARK    5  A    between atoms: C_10  and  C_11
REMARK    6  A    between atoms: C_19  and  O_20
REMARK    7  A    between atoms: O_20  and  C_21
REMARK                            x       y       z     vdW  Elec       q    Type
REMARK                         _______ _______ _______ _____ _____    ______ ____
ROOT
ATOM      1  C   UNL     1       2.354   5.808  20.120  0.00  0.00    +0.000 C 
ATOM      2  O   UNL     1       1.994   5.168  21.102  0.00  0.00    +0.000 OA
ENDROOT
BRANCH   1   6
ATOM      3  C   UNL     1       4.781   4.130  16.953  0.00  0.00    +0.000 A 
ATOM      4  C   UNL     1       5.343   4.978  17.897  0.00  0.00    +0.000 A 
ATOM      5  C   UNL     1       4.553   5.526  18.910  0.00  0.00    +0.000 A 
ATOM      6  C   UNL     1       3.191   5.194  19.028  0.00  0.00    +0.000 A 
ATOM      7  C   UNL     1       2.629   4.294  18.092  0.00  0.00    +0.000 A 
ATOM      8  C   UNL     1       3.435   3.780  17.060  0.00  0.00    +0.000 A 
BRANCH   3  10
ATOM      9  C   UNL     1       6.828   4.417  15.815  0.00  0.00    +0.000 C 
ATOM     10  O   UNL     1       5.639   3.655  16.000  0.00  0.00    +0.000 OA
ENDBRANCH   3  10
BRANCH   7  11
ATOM     11  O   UNL     1       1.315   3.936  18.255  0.00  0.00    +0.000 OA
ATOM     12  C   UNL     1       1.028   2.609  18.682  0.00  0.00    +0.000 C 
ENDBRANCH   7  11
ENDBRANCH   1   6
BRANCH   1  13
ATOM     13  C   UNL     1       1.912   7.229  19.952  0.00  0.00    +0.000 C 
ATOM     14  C   UNL     1       1.276   7.874  20.942  0.00  0.00    +0.000 C 
BRANCH  14  15
ATOM     15  C   UNL     1       0.738   9.226  20.732  0.00  0.00    +0.000 A 
ATOM     16  C   UNL     1       0.823   9.756  19.440  0.00  0.00    +0.000 A 
ATOM     17  C   UNL     1       0.362  11.049  19.166  0.00  0.00    +0.000 A 
ATOM     18  C   UNL     1      -0.197  11.810  20.186  0.00  0.00    +0.000 A 
ATOM     19 CL   UNL     1      -0.771  13.397  19.843  0.00  0.00    +0.000 Cl
ATOM     20  C   UNL     1      -0.290  11.305  21.481  0.00  0.00    +0.000 A 
ATOM     21  C   UNL     1       0.181  10.017  21.755  0.00  0.00    +0.000 A 
ATOM     22 CL   UNL     1       0.063   9.450  23.384  0.00  0.00    +0.000 Cl
ENDBRANCH  14  15
ENDBRANCH   1  13
TORSDOF 5
ENDMDL
MODEL 6
REMARK VINA RESULT:      -6.7      1.794      3.081
REMARK  Name = 
REMARK  7 active torsions:
REMARK  status: ('A' for Active; 'I' for Inactive)
REMARK    1  A    between atoms: C_1  and  O_2
REMARK    2  A    between atoms: O_2  and  C_3
REMARK    3  A    between atoms: C_6  and  C_7
REMARK    4  A    between atoms: C_7  and  C_9
REMARK    5  A    between atoms: C_10  and  C_11
REMARK    6  A    between atoms: C_19  and  O_20
REMARK    7  A    between atoms: O_20  and  C_21
REMARK                            x       y       z     vdW  Elec       q    Type
REMARK                         _______ _______ _______ _____ _____    ______ ____
ROOT
ATOM      1  C   UNL     1       3.129   5.028  19.694  0.00  0.00    +0.000 C 
ATOM      2  O   UNL     1       2.990   4.280  20.654  0.00  0.00    +0.000 OA
ENDROOT
BRANCH   1   6
ATOM      3  C   UNL     1       6.312   4.574  16.794  0.00  0.00    +0.000 A 
ATOM      4  C   UNL     1       6.553   5.187  18.015  0.00  0.00    +0.000 A 
ATOM      5  C   UNL     1       5.521   5.342  18.942  0.00  0.00    +0.000 A 
ATOM      6  C   UNL     1       4.232   4.837  18.685  0.00  0.00    +0.000 A 
ATOM      7  C   UNL     1       3.998   4.172  17.459  0.00  0.00    +0.000 A 
ATOM      8  C   UNL     1       5.044   4.057  16.525  0.00  0.00    +0.000 A 
BRANCH   3  10
ATOM      9  C   UNL     1       7.120   4.756  14.585  0.00  0.00    +0.000 C 
ATOM     10  O   UNL     1       7.388   4.479  15.956  0.00  0.00    +0.000 OA
ENDBRANCH   3  10
BRANCH   7  11
ATOM     11  O   UNL     1       2.754   3.636  17.248  0.00  0.00    +0.000 OA
ATOM     12  C   UNL     1       2.537   2.277  17.611  0.00  0.00    +0.000 C 
ENDBRANCH   7  11
ENDBRANCH   1   6
BRANCH   1  13
ATOM     13  C   UNL     1       2.151   6.139  19.464  0.00  0.00    +0.000 C 
ATOM     14  C   UNL     1       2.556   7.417  19.431  0.00  0.00    +0.000 C 
BRANCH  14  15
ATOM     15  C   UNL     1       1.580   8.511  19.326  0.00  0.00    +0.000 A 
ATOM     16  C   UNL     1       1.295   8.994  18.043  0.00  0.00    +0.000 A 
ATOM     17  C   UNL     1       0.401  10.056  17.862  0.00  0.00    +0.000 A 
ATOM     18  C   UNL     1      -0.219  10.629  18.967  0.00  0.00    +0.000 A 
ATOM     19 CL   UNL     1      -1.325  11.930  18.739  0.00  0.00    +0.000 Cl
ATOM     20  C   UNL     1       0.051  10.167  20.253  0.00  0.00    +0.000 A 
ATOM     21  C   UNL     1       0.953   9.114  20.434  0.00  0.00    +0.000 A 
ATOM     22 CL   UNL     1       1.269   8.597  22.052  0.00  0.00    +0.000 Cl
ENDBRANCH  14  15
ENDBRANCH   1  13
TORSDOF 5
ENDMDL
MODEL 7
REMARK VINA RESULT:      -6.7      1.139      1.399
REMARK  Name = 
REMARK  7 active torsions:
REMARK  status: ('A' for Active; 'I' for Inactive)
REMARK    1  A    between atoms: C_1  and  O_2
REMARK    2  A    between atoms: O_2  and  C_3
REMARK    3  A    between atoms: C_6  and  C_7
REMARK    4  A    between atoms: C_7  and  C_9
REMARK    5  A    between atoms: C_10  and  C_11
REMARK    6  A    between atoms: C_19  and  O_20
REMARK    7  A    between atoms: O_20  and  C_21
REMARK                            x       y       z     vdW  Elec       q    Type
REMARK                         _______ _______ _______ _____ _____    ______ ____
ROOT
ATOM      1  C   UNL     1       3.151   4.355  19.856  0.00  0.00    +0.000 C 
ATOM      2  O   UNL     1       3.207   3.493  20.726  0.00  0.00    +0.000 OA
ENDROOT
BRANCH   1   6
ATOM      3  C   UNL     1       5.422   3.976  16.190  0.00  0.00    +0.000 A 
ATOM      4  C   UNL     1       4.080   3.625  16.227  0.00  0.00    +0.000 A 
ATOM      5  C   UNL     1       3.355   3.738  17.415  0.00  0.00    +0.000 A 
ATOM      6  C   UNL     1       3.948   4.255  18.581  0.00  0.00    +0.000 A 
ATOM      7  C   UNL     1       5.304   4.655  18.531  0.00  0.00    +0.000 A 
ATOM      8  C   UNL     1       6.026   4.501  17.333  0.00  0.00    +0.000 A 
BRANCH   3  10
ATOM      9  C   UNL     1       6.942   4.862  14.618  0.00  0.00    +0.000 C 
ATOM     10  O   UNL     1       6.041   3.821  14.981  0.00  0.00    +0.000 OA
ENDBRANCH   3  10
BRANCH   7  11
ATOM     11  O   UNL     1       5.851   5.209  19.660  0.00  0.00    +0.000 OA
ATOM     12  C   UNL     1       7.215   5.614  19.616  0.00  0.00    +0.000 C 
ENDBRANCH   7  11
ENDBRANCH   1   6
BRANCH   1  13
ATOM     13  C   UNL     1       2.227   5.522  20.019  0.00  0.00    +0.000 C 
ATOM     14  C   UNL     1       2.641   6.770  19.753  0.00  0.00    +0.000 C 
BRANCH  14  15
ATOM     15  C   UNL     1       1.772   7.923  20.028  0.00  0.00    +0.000 A 
ATOM     16  C   UNL     1       1.179   7.991  21.294  0.00  0.00    +0.000 A 
ATOM     17  C   UNL     1       0.313   9.040  21.622  0.00  0.00    +0.000 A 
ATOM     18  C   UNL     1       0.048  10.032  20.684  0.00  0.00    +0.000 A 
ATOM     19 CL   UNL     1      -1.011  11.327  21.094  0.00  0.00    +0.000 Cl
ATOM     20  C   UNL     1       0.625   9.984  19.417  0.00  0.00    +0.000 A 
ATOM     21  C   UNL     1       1.481   8.930  19.087  0.00  0.00    +0.000 A 
ATOM     22 CL   UNL     1       2.149   8.907  17.493  0.00  0.00    +0.000 Cl
ENDBRANCH  14  15
ENDBRANCH   1  13
TORSDOF 5
ENDMDL
MODEL 8
REMARK VINA RESULT:      -6.7      4.750      8.377
REMARK  Name = 
REMARK  7 active torsions:
REMARK  status: ('A' for Active; 'I' for Inactive)
REMARK    1  A    between atoms: C_1  and  O_2
REMARK    2  A    between atoms: O_2  and  C_3
REMARK    3  A    between atoms: C_6  and  C_7
REMARK    4  A    between atoms: C_7  and  C_9
REMARK    5  A    between atoms: C_10  and  C_11
REMARK    6  A    between atoms: C_19  and  O_20
REMARK    7  A    between atoms: O_20  and  C_21
REMARK                            x       y       z     vdW  Elec       q    Type
REMARK                         _______ _______ _______ _____ _____    ______ ____
ROOT
ATOM      1  C   UNL     1       1.386   9.707  18.005  0.00  0.00    +0.000 C 
ATOM      2  O   UNL     1       2.308  10.475  17.753  0.00  0.00    +0.000 OA
ENDROOT
BRANCH   1   6
ATOM      3  C   UNL     1      -2.685  11.124  18.402  0.00  0.00    +0.000 A 
ATOM      4  C   UNL     1      -2.343  10.238  17.391  0.00  0.00    +0.000 A 
ATOM      5  C   UNL     1      -1.026   9.793  17.260  0.00  0.00    +0.000 A 
ATOM      6  C   UNL     1      -0.032  10.188  18.174  0.00  0.00    +0.000 A 
ATOM      7  C   UNL     1      -0.390  11.056  19.231  0.00  0.00    +0.000 A 
ATOM      8  C   UNL     1      -1.715  11.519  19.325  0.00  0.00    +0.000 A 
BRANCH   3  10
ATOM      9  C   UNL     1      -4.644  11.583  17.171  0.00  0.00    +0.000 C 
ATOM     10  O   UNL     1      -3.998  11.503  18.438  0.00  0.00    +0.000 OA
ENDBRANCH   3  10
BRANCH   7  11
ATOM     11  O   UNL     1       0.576  11.386  20.146  0.00  0.00    +0.000 OA
ATOM     12  C   UNL     1       0.170  11.667  21.481  0.00  0.00    +0.000 C 
ENDBRANCH   7  11
ENDBRANCH   1   6
BRANCH   1  13
ATOM     13  C   UNL     1       1.645   8.234  18.097  0.00  0.00    +0.000 C 
ATOM     14  C   UNL     1       2.865   7.733  17.854  0.00  0.00    +0.000 C 
BRANCH  14  15
ATOM     15  C   UNL     1       3.088   6.281  17.826  0.00  0.00    +0.000 A 
ATOM     16  C   UNL     1       2.133   5.474  18.456  0.00  0.00    +0.000 A 
ATOM     17  C   UNL     1       2.290   4.084  18.502  0.00  0.00    +0.000 A 
ATOM     18  C   UNL     1       3.400   3.497  17.904  0.00  0.00    +0.000 A 
ATOM     19 CL   UNL     1       3.586   1.785  17.955  0.00  0.00    +0.000 Cl
ATOM     20  C   UNL     1       4.365   4.280  17.275  0.00  0.00    +0.000 A 
ATOM     21  C   UNL     1       4.213   5.669  17.239  0.00  0.00    +0.000 A 
ATOM     22 CL   UNL     1       5.452   6.593  16.466  0.00  0.00    +0.000 Cl
ENDBRANCH  14  15
ENDBRANCH   1  13
TORSDOF 5
ENDMDL
MODEL 9
REMARK VINA RESULT:      -6.6      1.438      2.652
REMARK  Name = 
REMARK  7 active torsions:
REMARK  status: ('A' for Active; 'I' for Inactive)
REMARK    1  A    between atoms: C_1  and  O_2
REMARK    2  A    between atoms: O_2  and  C_3
REMARK    3  A    between atoms: C_6  and  C_7
REMARK    4  A    between atoms: C_7  and  C_9
REMARK    5  A    between atoms: C_10  and  C_11
REMARK    6  A    between atoms: C_19  and  O_20
REMARK    7  A    between atoms: O_20  and  C_21
REMARK                            x       y       z     vdW  Elec       q    Type
REMARK                         _______ _______ _______ _____ _____    ______ ____
ROOT
ATOM      1  C   UNL     1       2.990   4.437  20.294  0.00  0.00    +0.000 C 
ATOM      2  O   UNL     1       2.787   3.416  20.941  0.00  0.00    +0.000 OA
ENDROOT
BRANCH   1   6
ATOM      3  C   UNL     1       5.814   4.648  17.020  0.00  0.00    +0.000 A 
ATOM      4  C   UNL     1       6.154   5.130  18.276  0.00  0.00    +0.000 A 
ATOM      5  C   UNL     1       5.236   5.071  19.326  0.00  0.00    +0.000 A 
ATOM      6  C   UNL     1       3.971   4.478  19.151  0.00  0.00    +0.000 A 
ATOM      7  C   UNL     1       3.641   3.947  17.883  0.00  0.00    +0.000 A 
ATOM      8  C   UNL     1       4.569   4.048  16.830  0.00  0.00    +0.000 A 
BRANCH   3  10
ATOM      9  C   UNL     1       6.480   4.144  14.813  0.00  0.00    +0.000 C 
ATOM     10  O   UNL     1       6.782   4.762  16.061  0.00  0.00    +0.000 OA
ENDBRANCH   3  10
BRANCH   7  11
ATOM     11  O   UNL     1       2.429   3.322  17.745  0.00  0.00    +0.000 OA
ATOM     12  C   UNL     1       1.307   4.109  17.357  0.00  0.00    +0.000 C 
ENDBRANCH   7  11
ENDBRANCH   1   6
BRANCH   1  13
ATOM     13  C   UNL     1       2.209   5.679  20.595  0.00  0.00    +0.000 C 
ATOM     14  C   UNL     1       2.310   6.763  19.810  0.00  0.00    +0.000 C 
BRANCH  14  15
ATOM     15  C   UNL     1       1.637   8.018  20.174  0.00  0.00    +0.000 A 
ATOM     16  C   UNL     1       1.158   8.131  21.485  0.00  0.00    +0.000 A 
ATOM     17  C   UNL     1       0.477   9.281  21.900  0.00  0.00    +0.000 A 
ATOM     18  C   UNL     1       0.286  10.328  21.004  0.00  0.00    +0.000 A 
ATOM     19 CL   UNL     1      -0.544  11.746  21.521  0.00  0.00    +0.000 Cl
ATOM     20  C   UNL     1       0.751  10.237  19.695  0.00  0.00    +0.000 A 
ATOM     21  C   UNL     1       1.421   9.082  19.278  0.00  0.00    +0.000 A 
ATOM     22 CL   UNL     1       1.956   9.013  17.636  0.00  0.00    +0.000 Cl
ENDBRANCH  14  15
ENDBRANCH   1  13
TORSDOF 5
ENDMDL
