MODEL 1
REMARK VINA RESULT:      -7.9      0.000      0.000
REMARK  Name = 
REMARK  6 active torsions:
REMARK  status: ('A' for Active; 'I' for Inactive)
REMARK    1  A    between atoms: C_1  and  C_2
REMARK    2  A    between atoms: C_5  and  C_6
REMARK    3  A    between atoms: C_7  and  S_8
REMARK    4  A    between atoms: S_8  and  N_11
REMARK    5  A    between atoms: N_11  and  C_12
REMARK    6  A    between atoms: C_15  and  C_16
REMARK                            x       y       z     vdW  Elec       q    Type
REMARK                         _______ _______ _______ _____ _____    ______ ____
ROOT
ATOM      1  C   UNL     1       2.240   7.441  19.785  0.00  0.00    +0.000 A 
ATOM      2  C   UNL     1       1.435   8.047  20.735  0.00  0.00    +0.000 A 
ATOM      3  C   UNL     1       0.724   9.199  20.398  0.00  0.00    +0.000 A 
ATOM      4  C   UNL     1       0.731   9.698  19.088  0.00  0.00    +0.000 A 
ATOM      5  C   UNL     1       1.574   9.089  18.147  0.00  0.00    +0.000 A 
ATOM      6  C   UNL     1       2.340   7.978  18.501  0.00  0.00    +0.000 A 
ENDROOT
BRANCH   4   7
ATOM      7  C   UNL     1      -0.061  10.885  18.657  0.00  0.00    +0.000 C 
ATOM      8  O   UNL     1      -1.196  10.673  18.214  0.00  0.00    +0.000 OA
ATOM      9  N   UNL     1       0.444  12.179  18.785  0.00  0.00    +0.000 N 
ATOM     10  C   UNL     1       1.724  12.592  19.370  0.00  0.00    +0.000 C 
ATOM     11  C   UNL     1       1.558  13.713  20.391  0.00  0.00    +0.000 C 
ATOM     12  O   UNL     1       0.807  14.806  19.861  0.00  0.00    +0.000 OA
ATOM     13  C   UNL     1      -0.488  14.361  19.421  0.00  0.00    +0.000 C 
ATOM     14  C   UNL     1      -0.356  13.314  18.310  0.00  0.00    +0.000 C 
ENDBRANCH   4   7
BRANCH   1  15
ATOM     15  N   UNL     1       3.019   6.323  20.138  0.00  0.00    +0.000 N 
ATOM     16  H   UNL     1       3.585   6.322  20.983  0.00  0.00    +0.000 HD
BRANCH  15  17
ATOM     17  S   UNL     1       2.801   4.848  19.374  0.00  0.00    +0.000 S 
ATOM     18  O   UNL     1       1.525   4.887  18.683  0.00  0.00    +0.000 OA
ATOM     19  O   UNL     1       3.066   3.824  20.365  0.00  0.00    +0.000 OA
BRANCH  17  26
ATOM     20  C   UNL     1       7.281   6.789  17.424  0.00  0.00    +0.000 C 
ATOM     21  C   UNL     1       6.194   5.758  17.333  0.00  0.00    +0.000 A 
ATOM     22  C   UNL     1       6.230   4.773  16.343  0.00  0.00    +0.000 A 
ATOM     23  C   UNL     1       5.218   3.814  16.258  0.00  0.00    +0.000 A 
ATOM     24  C   UNL     1       4.141   3.808  17.159  0.00  0.00    +0.000 A 
ATOM     25  C   UNL     1       3.096   2.736  17.023  0.00  0.00    +0.000 C 
ATOM     26  C   UNL     1       4.109   4.797  18.162  0.00  0.00    +0.000 A 
ATOM     27  C   UNL     1       5.126   5.765  18.243  0.00  0.00    +0.000 A 
ENDBRANCH  17  26
ENDBRANCH  15  17
ENDBRANCH   1  15
TORSDOF 4
ENDMDL
MODEL 2
REMARK VINA RESULT:      -7.8      1.016      1.828
REMARK  Name = 
REMARK  6 active torsions:
REMARK  status: ('A' for Active; 'I' for Inactive)
REMARK    1  A    between atoms: C_1  and  C_2
REMARK    2  A    between atoms: C_5  and  C_6
REMARK    3  A    between atoms: C_7  and  S_8
REMARK    4  A    between atoms: S_8  and  N_11
REMARK    5  A    between atoms: N_11  and  C_12
REMARK    6  A    between atoms: C_15  and  C_16
REMARK                            x       y       z     vdW  Elec       q    Type
REMARK                         _______ _______ _______ _____ _____    ______ ____
ROOT
ATOM      1  C   UNL     1       2.788   7.098  19.276  0.00  0.00    +0.000 A 
ATOM      2  C   UNL     1       1.930   7.532  20.273  0.00  0.00    +0.000 A 
ATOM      3  C   UNL     1       1.102   8.630  20.037  0.00  0.00    +0.000 A 
ATOM      4  C   UNL     1       1.050   9.241  18.776  0.00  0.00    +0.000 A 
ATOM      5  C   UNL     1       1.946   8.807  17.788  0.00  0.00    +0.000 A 
ATOM      6  C   UNL     1       2.825   7.753  18.045  0.00  0.00    +0.000 A 
ENDROOT
BRANCH   4   7
ATOM      7  C   UNL     1       0.138  10.373  18.450  0.00  0.00    +0.000 C 
ATOM      8  O   UNL     1      -0.942  10.089  17.920  0.00  0.00    +0.000 OA
ATOM      9  N   UNL     1       0.476  11.689  18.762  0.00  0.00    +0.000 N 
ATOM     10  C   UNL     1       1.670  12.170  19.465  0.00  0.00    +0.000 C 
ATOM     11  C   UNL     1       1.327  13.124  20.605  0.00  0.00    +0.000 C 
ATOM     12  O   UNL     1       0.470  14.182  20.170  0.00  0.00    +0.000 OA
ATOM     13  C   UNL     1      -0.741  13.649  19.607  0.00  0.00    +0.000 C 
ATOM     14  C   UNL     1      -0.436  12.775  18.385  0.00  0.00    +0.000 C 
ENDBRANCH   4   7
BRANCH   1  15
ATOM     15  N   UNL     1       3.680   6.039  19.532  0.00  0.00    +0.000 N 
ATOM     16  H   UNL     1       4.283   6.045  20.351  0.00  0.00    +0.000 HD
BRANCH  15  17
ATOM     17  S   UNL     1       3.559   4.593  18.694  0.00  0.00    +0.000 S 
ATOM     18  O   UNL     1       2.331   4.626  17.921  0.00  0.00    +0.000 OA
ATOM     19  O   UNL     1       3.790   3.535  19.657  0.00  0.00    +0.000 OA
BRANCH  17  26
ATOM     20  C   UNL     1       5.517   3.999  13.851  0.00  0.00    +0.000 C 
ATOM     21  C   UNL     1       5.764   4.344  15.291  0.00  0.00    +0.000 A 
ATOM     22  C   UNL     1       7.040   4.710  15.725  0.00  0.00    +0.000 A 
ATOM     23  C   UNL     1       7.270   5.031  17.065  0.00  0.00    +0.000 A 
ATOM     24  C   UNL     1       6.234   4.996  18.012  0.00  0.00    +0.000 A 
ATOM     25  C   UNL     1       6.547   5.370  19.433  0.00  0.00    +0.000 C 
ATOM     26  C   UNL     1       4.945   4.632  17.573  0.00  0.00    +0.000 A 
ATOM     27  C   UNL     1       4.716   4.305  16.223  0.00  0.00    +0.000 A 
ENDBRANCH  17  26
ENDBRANCH  15  17
ENDBRANCH   1  15
TORSDOF 4
ENDMDL
MODEL 3
REMARK VINA RESULT:      -7.7      2.242      3.235
REMARK  Name = 
REMARK  6 active torsions:
REMARK  status: ('A' for Active; 'I' for Inactive)
REMARK    1  A    between atoms: C_1  and  C_2
REMARK    2  A    between atoms: C_5  and  C_6
REMARK    3  A    between atoms: C_7  and  S_8
REMARK    4  A    between atoms: S_8  and  N_11
REMARK    5  A    between atoms: N_11  and  C_12
REMARK    6  A    between atoms: C_15  and  C_16
REMARK                            x       y       z     vdW  Elec       q    Type
REMARK                         _______ _______ _______ _____ _____    ______ ____
ROOT
ATOM      1  C   UNL     1       2.716   5.873  18.813  0.00  0.00    +0.000 A 
ATOM      2  C   UNL     1       2.083   6.071  20.029  0.00  0.00    +0.000 A 
ATOM      3  C   UNL     1       1.591   7.336  20.350  0.00  0.00    +0.000 A 
ATOM      4  C   UNL     1       1.636   8.388  19.424  0.00  0.00    +0.000 A 
ATOM      5  C   UNL     1       2.306   8.178  18.210  0.00  0.00    +0.000 A 
ATOM      6  C   UNL     1       2.861   6.931  17.916  0.00  0.00    +0.000 A 
ENDROOT
BRANCH   4   7
ATOM      7  C   UNL     1       1.068   9.739  19.689  0.00  0.00    +0.000 C 
ATOM      8  O   UNL     1       0.756  10.420  18.705  0.00  0.00    +0.000 OA
ATOM      9  N   UNL     1       0.864  10.198  20.990  0.00  0.00    +0.000 N 
ATOM     10  C   UNL     1       1.098   9.477  22.246  0.00  0.00    +0.000 C 
ATOM     11  C   UNL     1      -0.102   9.544  23.184  0.00  0.00    +0.000 C 
ATOM     12  O   UNL     1      -0.544  10.888  23.385  0.00  0.00    +0.000 OA
ATOM     13  C   UNL     1      -0.881  11.500  22.127  0.00  0.00    +0.000 C 
ATOM     14  C   UNL     1       0.339  11.552  21.202  0.00  0.00    +0.000 C 
ENDBRANCH   4   7
BRANCH   1  15
ATOM     15  N   UNL     1       3.282   4.620  18.513  0.00  0.00    +0.000 N 
ATOM     16  H   UNL     1       2.816   3.968  17.886  0.00  0.00    +0.000 HD
BRANCH  15  17
ATOM     17  S   UNL     1       4.875   4.280  18.907  0.00  0.00    +0.000 S 
ATOM     18  O   UNL     1       4.951   2.884  19.297  0.00  0.00    +0.000 OA
ATOM     19  O   UNL     1       5.307   5.319  19.821  0.00  0.00    +0.000 OA
BRANCH  17  26
ATOM     20  C   UNL     1       5.076   3.809  13.675  0.00  0.00    +0.000 C 
ATOM     21  C   UNL     1       5.752   4.250  14.941  0.00  0.00    +0.000 A 
ATOM     22  C   UNL     1       7.018   4.838  14.902  0.00  0.00    +0.000 A 
ATOM     23  C   UNL     1       7.647   5.248  16.081  0.00  0.00    +0.000 A 
ATOM     24  C   UNL     1       7.031   5.085  17.331  0.00  0.00    +0.000 A 
ATOM     25  C   UNL     1       7.756   5.564  18.557  0.00  0.00    +0.000 C 
ATOM     26  C   UNL     1       5.751   4.497  17.369  0.00  0.00    +0.000 A 
ATOM     27  C   UNL     1       5.121   4.080  16.182  0.00  0.00    +0.000 A 
ENDBRANCH  17  26
ENDBRANCH  15  17
ENDBRANCH   1  15
TORSDOF 4
ENDMDL
MODEL 4
REMARK VINA RESULT:      -7.7      2.079      3.201
REMARK  Name = 
REMARK  6 active torsions:
REMARK  status: ('A' for Active; 'I' for Inactive)
REMARK    1  A    between atoms: C_1  and  C_2
REMARK    2  A    between atoms: C_5  and  C_6
REMARK    3  A    between atoms: C_7  and  S_8
REMARK    4  A    between atoms: S_8  and  N_11
REMARK    5  A    between atoms: N_11  and  C_12
REMARK    6  A    between atoms: C_15  and  C_16
REMARK                            x       y       z     vdW  Elec       q    Type
REMARK                         _______ _______ _______ _____ _____    ______ ____
ROOT
ATOM      1  C   UNL     1       2.303   5.288  18.797  0.00  0.00    +0.000 A 
ATOM      2  C   UNL     1       2.620   6.540  18.298  0.00  0.00    +0.000 A 
ATOM      3  C   UNL     1       2.271   7.678  19.026  0.00  0.00    +0.000 A 
ATOM      4  C   UNL     1       1.692   7.575  20.299  0.00  0.00    +0.000 A 
ATOM      5  C   UNL     1       1.351   6.301  20.775  0.00  0.00    +0.000 A 
ATOM      6  C   UNL     1       1.637   5.164  20.017  0.00  0.00    +0.000 A 
ENDROOT
BRANCH   4   7
ATOM      7  C   UNL     1       1.359   8.754  21.146  0.00  0.00    +0.000 C 
ATOM      8  O   UNL     1       1.825   8.774  22.291  0.00  0.00    +0.000 OA
ATOM      9  N   UNL     1       0.586   9.806  20.654  0.00  0.00    +0.000 N 
ATOM     10  C   UNL     1       0.042   9.968  19.301  0.00  0.00    +0.000 C 
ATOM     11  C   UNL     1       0.349  11.342  18.714  0.00  0.00    +0.000 C 
ATOM     12  O   UNL     1      -0.036  12.394  19.601  0.00  0.00    +0.000 OA
ATOM     13  C   UNL     1       0.629  12.253  20.868  0.00  0.00    +0.000 C 
ATOM     14  C   UNL     1       0.249  10.928  21.538  0.00  0.00    +0.000 C 
ENDBRANCH   4   7
BRANCH   1  15
ATOM     15  N   UNL     1       2.584   4.138  18.035  0.00  0.00    +0.000 N 
ATOM     16  H   UNL     1       2.070   3.933  17.182  0.00  0.00    +0.000 HD
BRANCH  15  17
ATOM     17  S   UNL     1       3.972   3.242  18.313  0.00  0.00    +0.000 S 
ATOM     18  O   UNL     1       3.735   1.891  17.837  0.00  0.00    +0.000 OA
ATOM     19  O   UNL     1       4.347   3.474  19.694  0.00  0.00    +0.000 OA
BRANCH  17  26
ATOM     20  C   UNL     1       6.171   3.883  13.582  0.00  0.00    +0.000 C 
ATOM     21  C   UNL     1       6.147   4.256  15.036  0.00  0.00    +0.000 A 
ATOM     22  C   UNL     1       7.042   5.201  15.542  0.00  0.00    +0.000 A 
ATOM     23  C   UNL     1       7.019   5.548  16.895  0.00  0.00    +0.000 A 
ATOM     24  C   UNL     1       6.103   4.962  17.783  0.00  0.00    +0.000 A 
ATOM     25  C   UNL     1       6.121   5.393  19.222  0.00  0.00    +0.000 C 
ATOM     26  C   UNL     1       5.196   4.013  17.271  0.00  0.00    +0.000 A 
ATOM     27  C   UNL     1       5.223   3.661  15.908  0.00  0.00    +0.000 A 
ENDBRANCH  17  26
ENDBRANCH  15  17
ENDBRANCH   1  15
TORSDOF 4
ENDMDL
MODEL 5
REMARK VINA RESULT:      -7.5      1.067      1.532
REMARK  Name = 
REMARK  6 active torsions:
REMARK  status: ('A' for Active; 'I' for Inactive)
REMARK    1  A    between atoms: C_1  and  C_2
REMARK    2  A    between atoms: C_5  and  C_6
REMARK    3  A    between atoms: C_7  and  S_8
REMARK    4  A    between atoms: S_8  and  N_11
REMARK    5  A    between atoms: N_11  and  C_12
REMARK    6  A    between atoms: C_15  and  C_16
REMARK                            x       y       z     vdW  Elec       q    Type
REMARK                         _______ _______ _______ _____ _____    ______ ____
ROOT
ATOM      1  C   UNL     1       1.850   7.607  20.255  0.00  0.00    +0.000 A 
ATOM      2  C   UNL     1       1.083   8.308  21.171  0.00  0.00    +0.000 A 
ATOM      3  C   UNL     1       0.446   9.484  20.776  0.00  0.00    +0.000 A 
ATOM      4  C   UNL     1       0.485   9.918  19.443  0.00  0.00    +0.000 A 
ATOM      5  C   UNL     1       1.289   9.212  18.536  0.00  0.00    +0.000 A 
ATOM      6  C   UNL     1       1.984   8.074  18.947  0.00  0.00    +0.000 A 
ENDROOT
BRANCH   4   7
ATOM      7  C   UNL     1      -0.231  11.129  18.953  0.00  0.00    +0.000 C 
ATOM      8  O   UNL     1      -1.419  10.991  18.638  0.00  0.00    +0.000 OA
ATOM      9  N   UNL     1       0.403  12.370  18.889  0.00  0.00    +0.000 N 
ATOM     10  C   UNL     1       1.768  12.707  19.308  0.00  0.00    +0.000 C 
ATOM     11  C   UNL     1       1.810  13.938  20.207  0.00  0.00    +0.000 C 
ATOM     12  O   UNL     1       1.115  15.043  19.625  0.00  0.00    +0.000 OA
ATOM     13  C   UNL     1      -0.253  14.691  19.354  0.00  0.00    +0.000 C 
ATOM     14  C   UNL     1      -0.330  13.527  18.361  0.00  0.00    +0.000 C 
ENDBRANCH   4   7
BRANCH   1  15
ATOM     15  N   UNL     1       2.557   6.461  20.664  0.00  0.00    +0.000 N 
ATOM     16  H   UNL     1       3.398   6.537  21.231  0.00  0.00    +0.000 HD
BRANCH  15  17
ATOM     17  S   UNL     1       1.880   4.936  20.518  0.00  0.00    +0.000 S 
ATOM     18  O   UNL     1       0.449   5.098  20.332  0.00  0.00    +0.000 OA
ATOM     19  O   UNL     1       2.389   4.148  21.623  0.00  0.00    +0.000 OA
BRANCH  17  26
ATOM     20  C   UNL     1       5.322   5.356  16.567  0.00  0.00    +0.000 C 
ATOM     21  C   UNL     1       4.225   4.568  17.221  0.00  0.00    +0.000 A 
ATOM     22  C   UNL     1       3.797   3.356  16.674  0.00  0.00    +0.000 A 
ATOM     23  C   UNL     1       2.775   2.623  17.283  0.00  0.00    +0.000 A 
ATOM     24  C   UNL     1       2.151   3.077  18.456  0.00  0.00    +0.000 A 
ATOM     25  C   UNL     1       1.072   2.230  19.069  0.00  0.00    +0.000 C 
ATOM     26  C   UNL     1       2.587   4.296  19.011  0.00  0.00    +0.000 A 
ATOM     27  C   UNL     1       3.613   5.036  18.394  0.00  0.00    +0.000 A 
ENDBRANCH  17  26
ENDBRANCH  15  17
ENDBRANCH   1  15
TORSDOF 4
ENDMDL
MODEL 6
REMARK VINA RESULT:      -7.5      2.952      9.110
REMARK  Name = 
REMARK  6 active torsions:
REMARK  status: ('A' for Active; 'I' for Inactive)
REMARK    1  A    between atoms: C_1  and  C_2
REMARK    2  A    between atoms: C_5  and  C_6
REMARK    3  A    between atoms: C_7  and  S_8
REMARK    4  A    between atoms: S_8  and  N_11
REMARK    5  A    between atoms: N_11  and  C_12
REMARK    6  A    between atoms: C_15  and  C_16
REMARK                            x       y       z     vdW  Elec       q    Type
REMARK                         _______ _______ _______ _____ _____    ______ ____
ROOT
ATOM      1  C   UNL     1       0.965   9.225  19.319  0.00  0.00    +0.000 A 
ATOM      2  C   UNL     1       1.466   9.250  18.028  0.00  0.00    +0.000 A 
ATOM      3  C   UNL     1       2.369   8.266  17.623  0.00  0.00    +0.000 A 
ATOM      4  C   UNL     1       2.702   7.196  18.465  0.00  0.00    +0.000 A 
ATOM      5  C   UNL     1       2.208   7.203  19.778  0.00  0.00    +0.000 A 
ATOM      6  C   UNL     1       1.360   8.224  20.208  0.00  0.00    +0.000 A 
ENDROOT
BRANCH   4   7
ATOM      7  C   UNL     1       3.608   6.085  18.061  0.00  0.00    +0.000 C 
ATOM      8  O   UNL     1       4.824   6.306  18.108  0.00  0.00    +0.000 OA
ATOM      9  N   UNL     1       3.106   4.840  17.683  0.00  0.00    +0.000 N 
ATOM     10  C   UNL     1       1.706   4.402  17.664  0.00  0.00    +0.000 C 
ATOM     11  C   UNL     1       1.508   3.065  18.370  0.00  0.00    +0.000 C 
ATOM     12  O   UNL     1       2.412   2.070  17.884  0.00  0.00    +0.000 OA
ATOM     13  C   UNL     1       3.773   2.505  18.048  0.00  0.00    +0.000 C 
ATOM     14  C   UNL     1       4.035   3.789  17.253  0.00  0.00    +0.000 C 
ENDBRANCH   4   7
BRANCH   1  15
ATOM     15  N   UNL     1       0.113  10.255  19.760  0.00  0.00    +0.000 N 
ATOM     16  H   UNL     1      -0.898  10.149  19.733  0.00  0.00    +0.000 HD
BRANCH  15  17
ATOM     17  S   UNL     1       0.713  11.550  20.637  0.00  0.00    +0.000 S 
ATOM     18  O   UNL     1       1.129  12.573  19.695  0.00  0.00    +0.000 OA
ATOM     19  O   UNL     1       1.660  11.003  21.588  0.00  0.00    +0.000 OA
BRANCH  17  26
ATOM     20  C   UNL     1      -3.019  15.175  21.389  0.00  0.00    +0.000 C 
ATOM     21  C   UNL     1      -2.406  13.872  21.812  0.00  0.00    +0.000 A 
ATOM     22  C   UNL     1      -2.952  13.140  22.870  0.00  0.00    +0.000 A 
ATOM     23  C   UNL     1      -2.380  11.928  23.264  0.00  0.00    +0.000 A 
ATOM     24  C   UNL     1      -1.249  11.409  22.615  0.00  0.00    +0.000 A 
ATOM     25  C   UNL     1      -0.696  10.091  23.078  0.00  0.00    +0.000 C 
ATOM     26  C   UNL     1      -0.702  12.145  21.544  0.00  0.00    +0.000 A 
ATOM     27  C   UNL     1      -1.275  13.368  21.152  0.00  0.00    +0.000 A 
ENDBRANCH  17  26
ENDBRANCH  15  17
ENDBRANCH   1  15
TORSDOF 4
ENDMDL
MODEL 7
REMARK VINA RESULT:      -7.5      3.058      8.702
REMARK  Name = 
REMARK  6 active torsions:
REMARK  status: ('A' for Active; 'I' for Inactive)
REMARK    1  A    between atoms: C_1  and  C_2
REMARK    2  A    between atoms: C_5  and  C_6
REMARK    3  A    between atoms: C_7  and  S_8
REMARK    4  A    between atoms: S_8  and  N_11
REMARK    5  A    between atoms: N_11  and  C_12
REMARK    6  A    between atoms: C_15  and  C_16
REMARK                            x       y       z     vdW  Elec       q    Type
REMARK                         _______ _______ _______ _____ _____    ______ ____
ROOT
ATOM      1  C   UNL     1       1.400   9.300  18.508  0.00  0.00    +0.000 A 
ATOM      2  C   UNL     1       2.186   8.735  17.518  0.00  0.00    +0.000 A 
ATOM      3  C   UNL     1       2.936   7.594  17.804  0.00  0.00    +0.000 A 
ATOM      4  C   UNL     1       2.832   6.951  19.045  0.00  0.00    +0.000 A 
ATOM      5  C   UNL     1       2.054   7.553  20.045  0.00  0.00    +0.000 A 
ATOM      6  C   UNL     1       1.358   8.733  19.782  0.00  0.00    +0.000 A 
ENDROOT
BRANCH   4   7
ATOM      7  C   UNL     1       3.559   5.694  19.381  0.00  0.00    +0.000 C 
ATOM      8  O   UNL     1       4.775   5.785  19.584  0.00  0.00    +0.000 OA
ATOM      9  N   UNL     1       2.887   4.477  19.498  0.00  0.00    +0.000 N 
ATOM     10  C   UNL     1       1.447   4.228  19.376  0.00  0.00    +0.000 C 
ATOM     11  C   UNL     1       0.900   3.412  20.543  0.00  0.00    +0.000 C 
ATOM     12  O   UNL     1       1.658   2.219  20.755  0.00  0.00    +0.000 OA
ATOM     13  C   UNL     1       3.040   2.537  20.996  0.00  0.00    +0.000 C 
ATOM     14  C   UNL     1       3.651   3.259  19.791  0.00  0.00    +0.000 C 
ENDBRANCH   4   7
BRANCH   1  15
ATOM     15  N   UNL     1       0.700  10.494  18.250  0.00  0.00    +0.000 N 
ATOM     16  H   UNL     1       0.746  10.946  17.340  0.00  0.00    +0.000 HD
BRANCH  15  17
ATOM     17  S   UNL     1      -0.481  11.041  19.305  0.00  0.00    +0.000 S 
ATOM     18  O   UNL     1      -0.116  12.381  19.729  0.00  0.00    +0.000 OA
ATOM     19  O   UNL     1      -0.680   9.993  20.286  0.00  0.00    +0.000 OA
BRANCH  17  26
ATOM     20  C   UNL     1      -2.991   9.971  14.812  0.00  0.00    +0.000 C 
ATOM     21  C   UNL     1      -3.036  10.587  16.179  0.00  0.00    +0.000 A 
ATOM     22  C   UNL     1      -4.205  11.191  16.648  0.00  0.00    +0.000 A 
ATOM     23  C   UNL     1      -4.247  11.765  17.922  0.00  0.00    +0.000 A 
ATOM     24  C   UNL     1      -3.124  11.753  18.764  0.00  0.00    +0.000 A 
ATOM     25  C   UNL     1      -3.243  12.372  20.128  0.00  0.00    +0.000 C 
ATOM     26  C   UNL     1      -1.947  11.138  18.293  0.00  0.00    +0.000 A 
ATOM     27  C   UNL     1      -1.905  10.564  17.009  0.00  0.00    +0.000 A 
ENDBRANCH  17  26
ENDBRANCH  15  17
ENDBRANCH   1  15
TORSDOF 4
ENDMDL
MODEL 8
REMARK VINA RESULT:      -7.4      2.857      8.688
REMARK  Name = 
REMARK  6 active torsions:
REMARK  status: ('A' for Active; 'I' for Inactive)
REMARK    1  A    between atoms: C_1  and  C_2
REMARK    2  A    between atoms: C_5  and  C_6
REMARK    3  A    between atoms: C_7  and  S_8
REMARK    4  A    between atoms: S_8  and  N_11
REMARK    5  A    between atoms: N_11  and  C_12
REMARK    6  A    between atoms: C_15  and  C_16
REMARK                            x       y       z     vdW  Elec       q    Type
REMARK                         _______ _______ _______ _____ _____    ______ ____
ROOT
ATOM      1  C   UNL     1       1.504   9.280  18.756  0.00  0.00    +0.000 A 
ATOM      2  C   UNL     1       1.464   8.577  19.948  0.00  0.00    +0.000 A 
ATOM      3  C   UNL     1       2.096   7.336  20.035  0.00  0.00    +0.000 A 
ATOM      4  C   UNL     1       2.855   6.833  18.969  0.00  0.00    +0.000 A 
ATOM      5  C   UNL     1       2.861   7.545  17.761  0.00  0.00    +0.000 A 
ATOM      6  C   UNL     1       2.171   8.753  17.650  0.00  0.00    +0.000 A 
ENDROOT
BRANCH   4   7
ATOM      7  C   UNL     1       3.603   5.546  19.031  0.00  0.00    +0.000 C 
ATOM      8  O   UNL     1       4.745   5.582  19.506  0.00  0.00    +0.000 OA
ATOM      9  N   UNL     1       3.026   4.350  18.605  0.00  0.00    +0.000 N 
ATOM     10  C   UNL     1       1.663   4.135  18.107  0.00  0.00    +0.000 C 
ATOM     11  C   UNL     1       0.968   2.971  18.806  0.00  0.00    +0.000 C 
ATOM     12  O   UNL     1       1.766   1.785  18.780  0.00  0.00    +0.000 OA
ATOM     13  C   UNL     1       3.043   2.025  19.398  0.00  0.00    +0.000 C 
ATOM     14  C   UNL     1       3.816   3.114  18.647  0.00  0.00    +0.000 C 
ENDBRANCH   4   7
BRANCH   1  15
ATOM     15  N   UNL     1       0.806  10.497  18.637  0.00  0.00    +0.000 N 
ATOM     16  H   UNL     1       0.907  11.083  17.811  0.00  0.00    +0.000 HD
BRANCH  15  17
ATOM     17  S   UNL     1      -0.451  10.872  19.679  0.00  0.00    +0.000 S 
ATOM     18  O   UNL     1      -0.163  12.161  20.281  0.00  0.00    +0.000 OA
ATOM     19  O   UNL     1      -0.660   9.706  20.514  0.00  0.00    +0.000 OA
BRANCH  17  26
ATOM     20  C   UNL     1      -2.870   9.796  15.138  0.00  0.00    +0.000 C 
ATOM     21  C   UNL     1      -2.914  10.481  16.472  0.00  0.00    +0.000 A 
ATOM     22  C   UNL     1      -4.043  11.205  16.863  0.00  0.00    +0.000 A 
ATOM     23  C   UNL     1      -4.084  11.842  18.106  0.00  0.00    +0.000 A 
ATOM     24  C   UNL     1      -2.999  11.777  18.995  0.00  0.00    +0.000 A 
ATOM     25  C   UNL     1      -3.116  12.471  20.323  0.00  0.00    +0.000 C 
ATOM     26  C   UNL     1      -1.862  11.042  18.603  0.00  0.00    +0.000 A 
ATOM     27  C   UNL     1      -1.822  10.404  17.349  0.00  0.00    +0.000 A 
ENDBRANCH  17  26
ENDBRANCH  15  17
ENDBRANCH   1  15
TORSDOF 4
ENDMDL
MODEL 9
REMARK VINA RESULT:      -7.4      3.129      9.215
REMARK  Name = 
REMARK  6 active torsions:
REMARK  status: ('A' for Active; 'I' for Inactive)
REMARK    1  A    between atoms: C_1  and  C_2
REMARK    2  A    between atoms: C_5  and  C_6
REMARK    3  A    between atoms: C_7  and  S_8
REMARK    4  A    between atoms: S_8  and  N_11
REMARK    5  A    between atoms: N_11  and  C_12
REMARK    6  A    between atoms: C_15  and  C_16
REMARK                            x       y       z     vdW  Elec       q    Type
REMARK                         _______ _______ _______ _____ _____    ______ ____
ROOT
ATOM      1  C   UNL     1       0.857   9.268  19.622  0.00  0.00    +0.000 A 
ATOM      2  C   UNL     1       1.279   8.262  20.477  0.00  0.00    +0.000 A 
ATOM      3  C   UNL     1       2.094   7.242  19.987  0.00  0.00    +0.000 A 
ATOM      4  C   UNL     1       2.576   7.268  18.670  0.00  0.00    +0.000 A 
ATOM      5  C   UNL     1       2.115   8.277  17.812  0.00  0.00    +0.000 A 
ATOM      6  C   UNL     1       1.244   9.260  18.282  0.00  0.00    +0.000 A 
ENDROOT
BRANCH   4   7
ATOM      7  C   UNL     1       3.501   6.240  18.115  0.00  0.00    +0.000 C 
ATOM      8  O   UNL     1       4.704   6.524  18.085  0.00  0.00    +0.000 OA
ATOM      9  N   UNL     1       3.032   5.000  17.682  0.00  0.00    +0.000 N 
ATOM     10  C   UNL     1       1.658   4.488  17.737  0.00  0.00    +0.000 C 
ATOM     11  C   UNL     1       1.584   3.095  18.353  0.00  0.00    +0.000 C 
ATOM     12  O   UNL     1       2.494   2.189  17.725  0.00  0.00    +0.000 OA
ATOM     13  C   UNL     1       3.841   2.685  17.817  0.00  0.00    +0.000 C 
ATOM     14  C   UNL     1       3.975   4.035  17.105  0.00  0.00    +0.000 C 
ENDBRANCH   4   7
BRANCH   1  15
ATOM     15  N   UNL     1      -0.026  10.259  20.089  0.00  0.00    +0.000 N 
ATOM     16  H   UNL     1      -0.978  10.324  19.738  0.00  0.00    +0.000 HD
BRANCH  15  17
ATOM     17  S   UNL     1       0.335  11.156  21.457  0.00  0.00    +0.000 S 
ATOM     18  O   UNL     1       1.455  12.025  21.140  0.00  0.00    +0.000 OA
ATOM     19  O   UNL     1       0.428  10.217  22.557  0.00  0.00    +0.000 OA
BRANCH  17  26
ATOM     20  C   UNL     1      -3.873  12.436  24.336  0.00  0.00    +0.000 C 
ATOM     21  C   UNL     1      -3.041  12.693  23.113  0.00  0.00    +0.000 A 
ATOM     22  C   UNL     1      -3.387  13.708  22.218  0.00  0.00    +0.000 A 
ATOM     23  C   UNL     1      -2.612  13.946  21.080  0.00  0.00    +0.000 A 
ATOM     24  C   UNL     1      -1.470  13.179  20.802  0.00  0.00    +0.000 A 
ATOM     25  C   UNL     1      -0.672  13.501  19.569  0.00  0.00    +0.000 C 
ATOM     26  C   UNL     1      -1.117  12.159  21.708  0.00  0.00    +0.000 A 
ATOM     27  C   UNL     1      -1.902  11.917  22.851  0.00  0.00    +0.000 A 
ENDBRANCH  17  26
ENDBRANCH  15  17
ENDBRANCH   1  15
TORSDOF 4
ENDMDL
