MODEL 1
REMARK VINA RESULT:      -6.6      0.000      0.000
REMARK  Name = 
REMARK  9 active torsions:
REMARK  status: ('A' for Active; 'I' for Inactive)
REMARK    1  A    between atoms: C_1  and  C_2
REMARK    2  A    between atoms: C_2  and  C_3
REMARK    3  A    between atoms: C_4  and  C_5
REMARK    4  A    between atoms: C_5  and  C_6
REMARK    5  A    between atoms: C_6  and  C_7
REMARK    6  A    between atoms: C_7  and  C_8
REMARK    7  A    between atoms: C_9  and  C_10
REMARK    8  A    between atoms: C_10  and  N_11
REMARK    9  A    between atoms: N_11  and  C_12
REMARK                            x       y       z     vdW  Elec       q    Type
REMARK                         _______ _______ _______ _____ _____    ______ ____
ROOT
ATOM      1  C   UNL     1       4.840   5.432  17.041  0.00  0.00    +0.000 C 
ATOM      2  C   UNL     1       3.677   6.214  17.605  0.00  0.00    +0.000 C 
ATOM      3  C   UNL     1       5.300   4.343  17.696  0.00  0.00    +0.000 C 
ENDROOT
BRANCH   1   4
ATOM      4  C   UNL     1       5.482   5.831  15.724  0.00  0.00    +0.000 C 
BRANCH   4   5
ATOM      5  C   UNL     1       6.473   4.829  15.120  0.00  0.00    +0.000 C 
BRANCH   5   9
ATOM      6  C   UNL     1       5.683   2.798  11.888  0.00  0.00    +0.000 C 
ATOM      7  C   UNL     1       6.302   3.813  12.807  0.00  0.00    +0.000 C 
ATOM      8  C   UNL     1       7.410   4.663  12.247  0.00  0.00    +0.000 C 
ATOM      9  C   UNL     1       5.864   3.935  14.075  0.00  0.00    +0.000 C 
ENDBRANCH   5   9
ENDBRANCH   4   5
ENDBRANCH   1   4
BRANCH   3  10
ATOM     10  C   UNL     1       4.849   3.874  19.047  0.00  0.00    +0.000 C 
BRANCH  10  11
ATOM     11  N   UNL     1       4.464   2.467  19.002  0.00  0.00    +0.000 NA
ATOM     12  H   UNL     1       5.107   1.924  19.575  0.00  0.00    +0.000 HD
BRANCH  11  13
ATOM     13  C   UNL     1       3.091   2.270  19.458  0.00  0.00    +0.000 C 
ATOM     14  C   UNL     1       2.819   2.981  20.783  0.00  0.00    +0.000 C 
ATOM     15  C   UNL     1       1.297   2.989  20.873  0.00  0.00    +0.000 C 
ATOM     16  C   UNL     1       0.793   3.025  19.430  0.00  0.00    +0.000 C 
ATOM     17  C   UNL     1       2.024   2.872  18.544  0.00  0.00    +0.000 C 
ENDBRANCH  11  13
ENDBRANCH  10  11
ENDBRANCH   3  10
TORSDOF 6
ENDMDL
MODEL 2
REMARK VINA RESULT:      -6.6      1.471      1.900
REMARK  Name = 
REMARK  9 active torsions:
REMARK  status: ('A' for Active; 'I' for Inactive)
REMARK    1  A    between atoms: C_1  and  C_2
REMARK    2  A    between atoms: C_2  and  C_3
REMARK    3  A    between atoms: C_4  and  C_5
REMARK    4  A    between atoms: C_5  and  C_6
REMARK    5  A    between atoms: C_6  and  C_7
REMARK    6  A    between atoms: C_7  and  C_8
REMARK    7  A    between atoms: C_9  and  C_10
REMARK    8  A    between atoms: C_10  and  N_11
REMARK    9  A    between atoms: N_11  and  C_12
REMARK                            x       y       z     vdW  Elec       q    Type
REMARK                         _______ _______ _______ _____ _____    ______ ____
ROOT
ATOM      1  C   UNL     1       5.365   4.719  16.173  0.00  0.00    +0.000 C 
ATOM      2  C   UNL     1       5.261   6.133  15.650  0.00  0.00    +0.000 C 
ATOM      3  C   UNL     1       5.020   4.448  17.450  0.00  0.00    +0.000 C 
ENDROOT
BRANCH   1   4
ATOM      4  C   UNL     1       5.820   3.585  15.271  0.00  0.00    +0.000 C 
BRANCH   4   5
ATOM      5  C   UNL     1       6.260   3.979  13.856  0.00  0.00    +0.000 C 
BRANCH   5   9
ATOM      6  C   UNL     1       3.767   3.137  10.981  0.00  0.00    +0.000 C 
ATOM      7  C   UNL     1       4.995   3.102  11.846  0.00  0.00    +0.000 C 
ATOM      8  C   UNL     1       6.030   2.055  11.532  0.00  0.00    +0.000 C 
ATOM      9  C   UNL     1       5.138   3.983  12.855  0.00  0.00    +0.000 C 
ENDBRANCH   5   9
ENDBRANCH   4   5
ENDBRANCH   1   4
BRANCH   3  10
ATOM     10  C   UNL     1       4.648   5.457  18.495  0.00  0.00    +0.000 C 
BRANCH  10  11
ATOM     11  N   UNL     1       3.198   5.543  18.637  0.00  0.00    +0.000 NA
ATOM     12  H   UNL     1       2.780   5.718  17.725  0.00  0.00    +0.000 HD
BRANCH  11  13
ATOM     13  C   UNL     1       2.642   4.329  19.224  0.00  0.00    +0.000 C 
ATOM     14  C   UNL     1       2.045   4.582  20.608  0.00  0.00    +0.000 C 
ATOM     15  C   UNL     1       1.198   3.339  20.860  0.00  0.00    +0.000 C 
ATOM     16  C   UNL     1       0.733   2.864  19.483  0.00  0.00    +0.000 C 
ATOM     17  C   UNL     1       1.453   3.740  18.463  0.00  0.00    +0.000 C 
ENDBRANCH  11  13
ENDBRANCH  10  11
ENDBRANCH   3  10
TORSDOF 6
ENDMDL
MODEL 3
REMARK VINA RESULT:      -6.5      1.298      1.862
REMARK  Name = 
REMARK  9 active torsions:
REMARK  status: ('A' for Active; 'I' for Inactive)
REMARK    1  A    between atoms: C_1  and  C_2
REMARK    2  A    between atoms: C_2  and  C_3
REMARK    3  A    between atoms: C_4  and  C_5
REMARK    4  A    between atoms: C_5  and  C_6
REMARK    5  A    between atoms: C_6  and  C_7
REMARK    6  A    between atoms: C_7  and  C_8
REMARK    7  A    between atoms: C_9  and  C_10
REMARK    8  A    between atoms: C_10  and  N_11
REMARK    9  A    between atoms: N_11  and  C_12
REMARK                            x       y       z     vdW  Elec       q    Type
REMARK                         _______ _______ _______ _____ _____    ______ ____
ROOT
ATOM      1  C   UNL     1       5.985   5.254  16.033  0.00  0.00    +0.000 C 
ATOM      2  C   UNL     1       5.196   6.519  16.285  0.00  0.00    +0.000 C 
ATOM      3  C   UNL     1       6.147   4.353  17.026  0.00  0.00    +0.000 C 
ENDROOT
BRANCH   1   4
ATOM      4  C   UNL     1       6.571   4.962  14.663  0.00  0.00    +0.000 C 
BRANCH   4   5
ATOM      5  C   UNL     1       5.600   4.413  13.612  0.00  0.00    +0.000 C 
BRANCH   5   9
ATOM      6  C   UNL     1       6.224   1.515  11.081  0.00  0.00    +0.000 C 
ATOM      7  C   UNL     1       5.541   2.643  11.802  0.00  0.00    +0.000 C 
ATOM      8  C   UNL     1       4.206   3.092  11.273  0.00  0.00    +0.000 C 
ATOM      9  C   UNL     1       6.125   3.211  12.876  0.00  0.00    +0.000 C 
ENDBRANCH   5   9
ENDBRANCH   4   5
ENDBRANCH   1   4
BRANCH   3  10
ATOM     10  C   UNL     1       5.722   4.531  18.453  0.00  0.00    +0.000 C 
BRANCH  10  11
ATOM     11  N   UNL     1       5.072   3.323  18.953  0.00  0.00    +0.000 NA
ATOM     12  H   UNL     1       4.972   3.389  19.964  0.00  0.00    +0.000 HD
BRANCH  11  13
ATOM     13  C   UNL     1       3.770   3.116  18.328  0.00  0.00    +0.000 C 
ATOM     14  C   UNL     1       2.891   2.164  19.138  0.00  0.00    +0.000 C 
ATOM     15  C   UNL     1       1.498   2.389  18.558  0.00  0.00    +0.000 C 
ATOM     16  C   UNL     1       1.475   3.841  18.081  0.00  0.00    +0.000 C 
ATOM     17  C   UNL     1       2.896   4.368  18.244  0.00  0.00    +0.000 C 
ENDBRANCH  11  13
ENDBRANCH  10  11
ENDBRANCH   3  10
TORSDOF 6
ENDMDL
MODEL 4
REMARK VINA RESULT:      -6.4      1.069      1.662
REMARK  Name = 
REMARK  9 active torsions:
REMARK  status: ('A' for Active; 'I' for Inactive)
REMARK    1  A    between atoms: C_1  and  C_2
REMARK    2  A    between atoms: C_2  and  C_3
REMARK    3  A    between atoms: C_4  and  C_5
REMARK    4  A    between atoms: C_5  and  C_6
REMARK    5  A    between atoms: C_6  and  C_7
REMARK    6  A    between atoms: C_7  and  C_8
REMARK    7  A    between atoms: C_9  and  C_10
REMARK    8  A    between atoms: C_10  and  N_11
REMARK    9  A    between atoms: N_11  and  C_12
REMARK                            x       y       z     vdW  Elec       q    Type
REMARK                         _______ _______ _______ _____ _____    ______ ____
ROOT
ATOM      1  C   UNL     1       6.283   4.909  16.396  0.00  0.00    +0.000 C 
ATOM      2  C   UNL     1       7.154   5.555  17.450  0.00  0.00    +0.000 C 
ATOM      3  C   UNL     1       5.091   4.378  16.742  0.00  0.00    +0.000 C 
ENDROOT
BRANCH   1   4
ATOM      4  C   UNL     1       6.713   4.881  14.940  0.00  0.00    +0.000 C 
BRANCH   4   5
ATOM      5  C   UNL     1       5.690   4.330  13.940  0.00  0.00    +0.000 C 
BRANCH   5   9
ATOM      6  C   UNL     1       6.355   1.747  11.098  0.00  0.00    +0.000 C 
ATOM      7  C   UNL     1       5.661   2.783  11.936  0.00  0.00    +0.000 C 
ATOM      8  C   UNL     1       4.332   3.290  11.444  0.00  0.00    +0.000 C 
ATOM      9  C   UNL     1       6.228   3.222  13.077  0.00  0.00    +0.000 C 
ENDBRANCH   5   9
ENDBRANCH   4   5
ENDBRANCH   1   4
BRANCH   3  10
ATOM     10  C   UNL     1       4.563   4.234  18.139  0.00  0.00    +0.000 C 
BRANCH  10  11
ATOM     11  N   UNL     1       4.223   2.843  18.422  0.00  0.00    +0.000 NA
ATOM     12  H   UNL     1       4.947   2.433  19.010  0.00  0.00    +0.000 HD
BRANCH  11  13
ATOM     13  C   UNL     1       2.921   2.729  19.070  0.00  0.00    +0.000 C 
ATOM     14  C   UNL     1       3.041   2.663  20.592  0.00  0.00    +0.000 C 
ATOM     15  C   UNL     1       1.620   2.942  21.071  0.00  0.00    +0.000 C 
ATOM     16  C   UNL     1       0.993   3.847  20.010  0.00  0.00    +0.000 C 
ATOM     17  C   UNL     1       2.002   3.935  18.871  0.00  0.00    +0.000 C 
ENDBRANCH  11  13
ENDBRANCH  10  11
ENDBRANCH   3  10
TORSDOF 6
ENDMDL
MODEL 5
REMARK VINA RESULT:      -6.4      1.197      1.752
REMARK  Name = 
REMARK  9 active torsions:
REMARK  status: ('A' for Active; 'I' for Inactive)
REMARK    1  A    between atoms: C_1  and  C_2
REMARK    2  A    between atoms: C_2  and  C_3
REMARK    3  A    between atoms: C_4  and  C_5
REMARK    4  A    between atoms: C_5  and  C_6
REMARK    5  A    between atoms: C_6  and  C_7
REMARK    6  A    between atoms: C_7  and  C_8
REMARK    7  A    between atoms: C_9  and  C_10
REMARK    8  A    between atoms: C_10  and  N_11
REMARK    9  A    between atoms: N_11  and  C_12
REMARK                            x       y       z     vdW  Elec       q    Type
REMARK                         _______ _______ _______ _____ _____    ______ ____
ROOT
ATOM      1  C   UNL     1       5.750   4.880  15.618  0.00  0.00    +0.000 C 
ATOM      2  C   UNL     1       5.163   6.261  15.797  0.00  0.00    +0.000 C 
ATOM      3  C   UNL     1       5.233   3.835  16.300  0.00  0.00    +0.000 C 
ENDROOT
BRANCH   1   4
ATOM      4  C   UNL     1       6.896   4.640  14.651  0.00  0.00    +0.000 C 
BRANCH   4   5
ATOM      5  C   UNL     1       6.530   4.589  13.164  0.00  0.00    +0.000 C 
BRANCH   5   9
ATOM      6  C   UNL     1       5.928   1.298  11.163  0.00  0.00    +0.000 C 
ATOM      7  C   UNL     1       5.674   2.637  11.797  0.00  0.00    +0.000 C 
ATOM      8  C   UNL     1       4.342   3.284  11.530  0.00  0.00    +0.000 C 
ATOM      9  C   UNL     1       6.618   3.211  12.568  0.00  0.00    +0.000 C 
ENDBRANCH   5   9
ENDBRANCH   4   5
ENDBRANCH   1   4
BRANCH   3  10
ATOM     10  C   UNL     1       4.175   3.914  17.361  0.00  0.00    +0.000 C 
BRANCH  10  11
ATOM     11  N   UNL     1       4.193   2.718  18.198  0.00  0.00    +0.000 NA
ATOM     12  H   UNL     1       5.113   2.621  18.624  0.00  0.00    +0.000 HD
BRANCH  11  13
ATOM     13  C   UNL     1       3.160   2.767  19.227  0.00  0.00    +0.000 C 
ATOM     14  C   UNL     1       2.900   4.192  19.712  0.00  0.00    +0.000 C 
ATOM     15  C   UNL     1       1.572   4.077  20.453  0.00  0.00    +0.000 C 
ATOM     16  C   UNL     1       0.808   2.944  19.766  0.00  0.00    +0.000 C 
ATOM     17  C   UNL     1       1.773   2.328  18.759  0.00  0.00    +0.000 C 
ENDBRANCH  11  13
ENDBRANCH  10  11
ENDBRANCH   3  10
TORSDOF 6
ENDMDL
MODEL 6
REMARK VINA RESULT:      -6.4      1.951      3.373
REMARK  Name = 
REMARK  9 active torsions:
REMARK  status: ('A' for Active; 'I' for Inactive)
REMARK    1  A    between atoms: C_1  and  C_2
REMARK    2  A    between atoms: C_2  and  C_3
REMARK    3  A    between atoms: C_4  and  C_5
REMARK    4  A    between atoms: C_5  and  C_6
REMARK    5  A    between atoms: C_6  and  C_7
REMARK    6  A    between atoms: C_7  and  C_8
REMARK    7  A    between atoms: C_9  and  C_10
REMARK    8  A    between atoms: C_10  and  N_11
REMARK    9  A    between atoms: N_11  and  C_12
REMARK                            x       y       z     vdW  Elec       q    Type
REMARK                         _______ _______ _______ _____ _____    ______ ____
ROOT
ATOM      1  C   UNL     1       4.680   4.636  16.446  0.00  0.00    +0.000 C 
ATOM      2  C   UNL     1       4.033   5.673  17.335  0.00  0.00    +0.000 C 
ATOM      3  C   UNL     1       4.451   3.323  16.666  0.00  0.00    +0.000 C 
ENDROOT
BRANCH   1   4
ATOM      4  C   UNL     1       5.560   5.050  15.279  0.00  0.00    +0.000 C 
BRANCH   4   5
ATOM      5  C   UNL     1       7.022   5.370  15.611  0.00  0.00    +0.000 C 
BRANCH   5   9
ATOM      6  C   UNL     1       7.818   5.764  19.406  0.00  0.00    +0.000 C 
ATOM      7  C   UNL     1       7.587   6.116  17.964  0.00  0.00    +0.000 C 
ATOM      8  C   UNL     1       7.604   7.576  17.599  0.00  0.00    +0.000 C 
ATOM      9  C   UNL     1       7.375   5.144  17.055  0.00  0.00    +0.000 C 
ENDBRANCH   5   9
ENDBRANCH   4   5
ENDBRANCH   1   4
BRANCH   3  10
ATOM     10  C   UNL     1       3.694   2.744  17.824  0.00  0.00    +0.000 C 
BRANCH  10  11
ATOM     11  N   UNL     1       2.281   2.592  17.493  0.00  0.00    +0.000 NA
ATOM     12  H   UNL     1       2.116   1.649  17.146  0.00  0.00    +0.000 HD
BRANCH  11  13
ATOM     13  C   UNL     1       1.427   2.864  18.645  0.00  0.00    +0.000 C 
ATOM     14  C   UNL     1       1.930   2.167  19.909  0.00  0.00    +0.000 C 
ATOM     15  C   UNL     1       1.169   2.872  21.027  0.00  0.00    +0.000 C 
ATOM     16  C   UNL     1       0.917   4.295  20.527  0.00  0.00    +0.000 C 
ATOM     17  C   UNL     1       1.388   4.329  19.078  0.00  0.00    +0.000 C 
ENDBRANCH  11  13
ENDBRANCH  10  11
ENDBRANCH   3  10
TORSDOF 6
ENDMDL
MODEL 7
REMARK VINA RESULT:      -6.4      2.210      3.682
REMARK  Name = 
REMARK  9 active torsions:
REMARK  status: ('A' for Active; 'I' for Inactive)
REMARK    1  A    between atoms: C_1  and  C_2
REMARK    2  A    between atoms: C_2  and  C_3
REMARK    3  A    between atoms: C_4  and  C_5
REMARK    4  A    between atoms: C_5  and  C_6
REMARK    5  A    between atoms: C_6  and  C_7
REMARK    6  A    between atoms: C_7  and  C_8
REMARK    7  A    between atoms: C_9  and  C_10
REMARK    8  A    between atoms: C_10  and  N_11
REMARK    9  A    between atoms: N_11  and  C_12
REMARK                            x       y       z     vdW  Elec       q    Type
REMARK                         _______ _______ _______ _____ _____    ______ ____
ROOT
ATOM      1  C   UNL     1       4.832   5.280  16.363  0.00  0.00    +0.000 C 
ATOM      2  C   UNL     1       4.817   6.736  15.958  0.00  0.00    +0.000 C 
ATOM      3  C   UNL     1       3.890   4.807  17.208  0.00  0.00    +0.000 C 
ENDROOT
BRANCH   1   4
ATOM      4  C   UNL     1       5.873   4.325  15.804  0.00  0.00    +0.000 C 
BRANCH   4   5
ATOM      5  C   UNL     1       7.331   4.619  16.174  0.00  0.00    +0.000 C 
BRANCH   5   9
ATOM      6  C   UNL     1       7.848   5.646  19.898  0.00  0.00    +0.000 C 
ATOM      7  C   UNL     1       7.714   5.753  18.405  0.00  0.00    +0.000 C 
ATOM      8  C   UNL     1       7.731   7.134  17.808  0.00  0.00    +0.000 C 
ATOM      9  C   UNL     1       7.584   4.640  17.656  0.00  0.00    +0.000 C 
ENDBRANCH   5   9
ENDBRANCH   4   5
ENDBRANCH   1   4
BRANCH   3  10
ATOM     10  C   UNL     1       2.859   5.627  17.924  0.00  0.00    +0.000 C 
BRANCH  10  11
ATOM     11  N   UNL     1       1.714   4.804  18.300  0.00  0.00    +0.000 NA
ATOM     12  H   UNL     1       1.405   4.268  17.491  0.00  0.00    +0.000 HD
BRANCH  11  13
ATOM     13  C   UNL     1       2.036   3.909  19.407  0.00  0.00    +0.000 C 
ATOM     14  C   UNL     1       2.401   4.677  20.677  0.00  0.00    +0.000 C 
ATOM     15  C   UNL     1       2.311   3.616  21.769  0.00  0.00    +0.000 C 
ATOM     16  C   UNL     1       1.249   2.622  21.298  0.00  0.00    +0.000 C 
ATOM     17  C   UNL     1       0.873   3.038  19.881  0.00  0.00    +0.000 C 
ENDBRANCH  11  13
ENDBRANCH  10  11
ENDBRANCH   3  10
TORSDOF 6
ENDMDL
MODEL 8
REMARK VINA RESULT:      -6.4      1.482      1.841
REMARK  Name = 
REMARK  9 active torsions:
REMARK  status: ('A' for Active; 'I' for Inactive)
REMARK    1  A    between atoms: C_1  and  C_2
REMARK    2  A    between atoms: C_2  and  C_3
REMARK    3  A    between atoms: C_4  and  C_5
REMARK    4  A    between atoms: C_5  and  C_6
REMARK    5  A    between atoms: C_6  and  C_7
REMARK    6  A    between atoms: C_7  and  C_8
REMARK    7  A    between atoms: C_9  and  C_10
REMARK    8  A    between atoms: C_10  and  N_11
REMARK    9  A    between atoms: N_11  and  C_12
REMARK                            x       y       z     vdW  Elec       q    Type
REMARK                         _______ _______ _______ _____ _____    ______ ____
ROOT
ATOM      1  C   UNL     1       5.022   5.187  16.363  0.00  0.00    +0.000 C 
ATOM      2  C   UNL     1       5.071   6.643  15.958  0.00  0.00    +0.000 C 
ATOM      3  C   UNL     1       4.639   4.849  17.613  0.00  0.00    +0.000 C 
ENDROOT
BRANCH   1   4
ATOM      4  C   UNL     1       5.364   4.090  15.369  0.00  0.00    +0.000 C 
BRANCH   4   5
ATOM      5  C   UNL     1       5.758   4.549  13.961  0.00  0.00    +0.000 C 
BRANCH   5   9
ATOM      6  C   UNL     1       6.459   1.909  11.180  0.00  0.00    +0.000 C 
ATOM      7  C   UNL     1       5.735   2.923  12.020  0.00  0.00    +0.000 C 
ATOM      8  C   UNL     1       4.344   3.307  11.591  0.00  0.00    +0.000 C 
ATOM      9  C   UNL     1       6.330   3.450  13.108  0.00  0.00    +0.000 C 
ENDBRANCH   5   9
ENDBRANCH   4   5
ENDBRANCH   1   4
BRANCH   3  10
ATOM     10  C   UNL     1       4.367   5.803  18.738  0.00  0.00    +0.000 C 
BRANCH  10  11
ATOM     11  N   UNL     1       2.957   5.768  19.115  0.00  0.00    +0.000 NA
ATOM     12  H   UNL     1       2.393   6.113  18.340  0.00  0.00    +0.000 HD
BRANCH  11  13
ATOM     13  C   UNL     1       2.534   4.422  19.489  0.00  0.00    +0.000 C 
ATOM     14  C   UNL     1       1.936   4.379  20.895  0.00  0.00    +0.000 C 
ATOM     15  C   UNL     1       1.221   3.033  20.934  0.00  0.00    +0.000 C 
ATOM     16  C   UNL     1       0.785   2.750  19.495  0.00  0.00    +0.000 C 
ATOM     17  C   UNL     1       1.398   3.853  18.639  0.00  0.00    +0.000 C 
ENDBRANCH  11  13
ENDBRANCH  10  11
ENDBRANCH   3  10
TORSDOF 6
ENDMDL
MODEL 9
REMARK VINA RESULT:      -6.3      1.518      2.154
REMARK  Name = 
REMARK  9 active torsions:
REMARK  status: ('A' for Active; 'I' for Inactive)
REMARK    1  A    between atoms: C_1  and  C_2
REMARK    2  A    between atoms: C_2  and  C_3
REMARK    3  A    between atoms: C_4  and  C_5
REMARK    4  A    between atoms: C_5  and  C_6
REMARK    5  A    between atoms: C_6  and  C_7
REMARK    6  A    between atoms: C_7  and  C_8
REMARK    7  A    between atoms: C_9  and  C_10
REMARK    8  A    between atoms: C_10  and  N_11
REMARK    9  A    between atoms: N_11  and  C_12
REMARK                            x       y       z     vdW  Elec       q    Type
REMARK                         _______ _______ _______ _____ _____    ______ ____
ROOT
ATOM      1  C   UNL     1       6.041   5.147  16.190  0.00  0.00    +0.000 C 
ATOM      2  C   UNL     1       6.824   4.589  17.356  0.00  0.00    +0.000 C 
ATOM      3  C   UNL     1       4.855   5.756  16.405  0.00  0.00    +0.000 C 
ENDROOT
BRANCH   1   4
ATOM      4  C   UNL     1       6.588   5.067  14.775  0.00  0.00    +0.000 C 
BRANCH   4   5
ATOM      5  C   UNL     1       6.288   3.777  14.003  0.00  0.00    +0.000 C 
BRANCH   5   9
ATOM      6  C   UNL     1       3.867   3.321  10.983  0.00  0.00    +0.000 C 
ATOM      7  C   UNL     1       5.048   3.132  11.891  0.00  0.00    +0.000 C 
ATOM      8  C   UNL     1       6.011   2.027  11.550  0.00  0.00    +0.000 C 
ATOM      9  C   UNL     1       5.215   3.935  12.961  0.00  0.00    +0.000 C 
ENDBRANCH   5   9
ENDBRANCH   4   5
ENDBRANCH   1   4
BRANCH   3  10
ATOM     10  C   UNL     1       4.131   5.833  17.716  0.00  0.00    +0.000 C 
BRANCH  10  11
ATOM     11  N   UNL     1       2.883   5.077  17.661  0.00  0.00    +0.000 NA
ATOM     12  H   UNL     1       2.891   4.475  16.840  0.00  0.00    +0.000 HD
BRANCH  11  13
ATOM     13  C   UNL     1       2.681   4.284  18.869  0.00  0.00    +0.000 C 
ATOM     14  C   UNL     1       2.797   5.130  20.137  0.00  0.00    +0.000 C 
ATOM     15  C   UNL     1       2.181   4.242  21.213  0.00  0.00    +0.000 C 
ATOM     16  C   UNL     1       1.133   3.387  20.498  0.00  0.00    +0.000 C 
ATOM     17  C   UNL     1       1.282   3.683  19.010  0.00  0.00    +0.000 C 
ENDBRANCH  11  13
ENDBRANCH  10  11
ENDBRANCH   3  10
TORSDOF 6
ENDMDL
