MODEL 1
REMARK VINA RESULT:      -7.3      0.000      0.000
REMARK  Name = 
REMARK  7 active torsions:
REMARK  status: ('A' for Active; 'I' for Inactive)
REMARK    1  A    between atoms: C_1  and  O_2
REMARK    2  A    between atoms: O_2  and  C_3
REMARK    3  A    between atoms: C_6  and  C_7
REMARK    4  A    between atoms: C_7  and  C_9
REMARK    5  A    between atoms: C_10  and  C_11
REMARK    6  A    between atoms: C_15  and  C_16
REMARK    7  A    between atoms: C_20  and  O_21
REMARK                            x       y       z     vdW  Elec       q    Type
REMARK                         _______ _______ _______ _____ _____    ______ ____
ROOT
ATOM      1  C   UNL     1       3.124   4.284  19.736  0.00  0.00    +0.000 C 
ATOM      2  O   UNL     1       2.765   3.225  20.238  0.00  0.00    +0.000 OA
ENDROOT
BRANCH   1   6
ATOM      3  C   UNL     1       6.339   4.370  16.859  0.00  0.00    +0.000 A 
ATOM      4  C   UNL     1       5.036   4.004  16.493  0.00  0.00    +0.000 A 
ATOM      5  C   UNL     1       4.003   3.967  17.435  0.00  0.00    +0.000 A 
ATOM      6  C   UNL     1       4.257   4.311  18.767  0.00  0.00    +0.000 A 
ATOM      7  C   UNL     1       5.561   4.650  19.148  0.00  0.00    +0.000 A 
ATOM      8  C   UNL     1       6.591   4.685  18.198  0.00  0.00    +0.000 A 
BRANCH   3  10
ATOM      9  C   UNL     1       6.790   4.923  14.573  0.00  0.00    +0.000 C 
ATOM     10  O   UNL     1       7.215   4.361  15.808  0.00  0.00    +0.000 OA
ENDBRANCH   3  10
BRANCH   8  11
ATOM     11  O   UNL     1       7.844   5.033  18.623  0.00  0.00    +0.000 OA
ATOM     12  H   UNL     1       8.466   4.306  18.463  0.00  0.00    +0.000 HD
ENDBRANCH   8  11
ENDBRANCH   1   6
BRANCH   1  13
ATOM     13  C   UNL     1       2.432   5.570  20.035  0.00  0.00    +0.000 C 
ATOM     14  C   UNL     1       2.617   6.643  19.252  0.00  0.00    +0.000 C 
BRANCH  14  15
ATOM     15  C   UNL     1       1.921   7.900  19.531  0.00  0.00    +0.000 A 
ATOM     16  C   UNL     1       1.738   8.854  18.525  0.00  0.00    +0.000 A 
ATOM     17  C   UNL     1       1.105  10.068  18.809  0.00  0.00    +0.000 A 
ATOM     18  C   UNL     1       0.655  10.334  20.104  0.00  0.00    +0.000 A 
ATOM     19  C   UNL     1       0.834   9.384  21.116  0.00  0.00    +0.000 A 
ATOM     20  C   UNL     1       1.466   8.169  20.827  0.00  0.00    +0.000 A 
BRANCH  19  21
ATOM     21  C   UNL     1       0.381   9.657  22.447  0.00  0.00    +0.000 C 
ATOM     22  N   UNL     1       0.018   9.870  23.530  0.00  0.00    +0.000 NA
ENDBRANCH  19  21
ENDBRANCH  14  15
ENDBRANCH   1  13
TORSDOF 6
ENDMDL
MODEL 2
REMARK VINA RESULT:      -7.2      5.349      6.839
REMARK  Name = 
REMARK  7 active torsions:
REMARK  status: ('A' for Active; 'I' for Inactive)
REMARK    1  A    between atoms: C_1  and  O_2
REMARK    2  A    between atoms: O_2  and  C_3
REMARK    3  A    between atoms: C_6  and  C_7
REMARK    4  A    between atoms: C_7  and  C_9
REMARK    5  A    between atoms: C_10  and  C_11
REMARK    6  A    between atoms: C_15  and  C_16
REMARK    7  A    between atoms: C_20  and  O_21
REMARK                            x       y       z     vdW  Elec       q    Type
REMARK                         _______ _______ _______ _____ _____    ______ ____
ROOT
ATOM      1  C   UNL     1       7.279   6.828  17.232  0.00  0.00    +0.000 C 
ATOM      2  O   UNL     1       7.758   6.505  16.152  0.00  0.00    +0.000 OA
ENDROOT
BRANCH   1   6
ATOM      3  C   UNL     1       3.798   4.782  18.752  0.00  0.00    +0.000 A 
ATOM      4  C   UNL     1       3.696   6.021  18.104  0.00  0.00    +0.000 A 
ATOM      5  C   UNL     1       4.832   6.682  17.626  0.00  0.00    +0.000 A 
ATOM      6  C   UNL     1       6.096   6.103  17.779  0.00  0.00    +0.000 A 
ATOM      7  C   UNL     1       6.210   4.880  18.450  0.00  0.00    +0.000 A 
ATOM      8  C   UNL     1       5.068   4.223  18.927  0.00  0.00    +0.000 A 
BRANCH   3  10
ATOM      9  C   UNL     1       2.118   4.591  20.449  0.00  0.00    +0.000 C 
ATOM     10  O   UNL     1       2.587   4.279  19.143  0.00  0.00    +0.000 OA
ENDBRANCH   3  10
BRANCH   8  11
ATOM     11  O   UNL     1       5.237   3.025  19.566  0.00  0.00    +0.000 OA
ATOM     12  H   UNL     1       4.396   2.729  19.949  0.00  0.00    +0.000 HD
ENDBRANCH   8  11
ENDBRANCH   1   6
BRANCH   1  13
ATOM     13  C   UNL     1       7.871   7.918  18.059  0.00  0.00    +0.000 C 
ATOM     14  C   UNL     1       8.155   9.110  17.516  0.00  0.00    +0.000 C 
BRANCH  14  15
ATOM     15  C   UNL     1       8.715  10.189  18.331  0.00  0.00    +0.000 A 
ATOM     16  C   UNL     1       9.298   9.917  19.573  0.00  0.00    +0.000 A 
ATOM     17  C   UNL     1       9.797  10.958  20.362  0.00  0.00    +0.000 A 
ATOM     18  C   UNL     1       9.711  12.278  19.913  0.00  0.00    +0.000 A 
ATOM     19  C   UNL     1       9.128  12.557  18.672  0.00  0.00    +0.000 A 
ATOM     20  C   UNL     1       8.632  11.513  17.884  0.00  0.00    +0.000 A 
BRANCH  19  21
ATOM     21  C   UNL     1       9.031  13.911  18.212  0.00  0.00    +0.000 C 
ATOM     22  N   UNL     1       8.944  15.010  17.846  0.00  0.00    +0.000 NA
ENDBRANCH  19  21
ENDBRANCH  14  15
ENDBRANCH   1  13
TORSDOF 6
ENDMDL
MODEL 3
REMARK VINA RESULT:      -7.2      1.181      1.271
REMARK  Name = 
REMARK  7 active torsions:
REMARK  status: ('A' for Active; 'I' for Inactive)
REMARK    1  A    between atoms: C_1  and  O_2
REMARK    2  A    between atoms: O_2  and  C_3
REMARK    3  A    between atoms: C_6  and  C_7
REMARK    4  A    between atoms: C_7  and  C_9
REMARK    5  A    between atoms: C_10  and  C_11
REMARK    6  A    between atoms: C_15  and  C_16
REMARK    7  A    between atoms: C_20  and  O_21
REMARK                            x       y       z     vdW  Elec       q    Type
REMARK                         _______ _______ _______ _____ _____    ______ ____
ROOT
ATOM      1  C   UNL     1       3.452   4.894  18.635  0.00  0.00    +0.000 C 
ATOM      2  O   UNL     1       3.035   3.775  18.911  0.00  0.00    +0.000 OA
ENDROOT
BRANCH   1   6
ATOM      3  C   UNL     1       6.688   5.318  15.812  0.00  0.00    +0.000 A 
ATOM      4  C   UNL     1       5.775   4.257  15.728  0.00  0.00    +0.000 A 
ATOM      5  C   UNL     1       4.737   4.121  16.656  0.00  0.00    +0.000 A 
ATOM      6  C   UNL     1       4.587   5.060  17.682  0.00  0.00    +0.000 A 
ATOM      7  C   UNL     1       5.511   6.106  17.791  0.00  0.00    +0.000 A 
ATOM      8  C   UNL     1       6.548   6.236  16.858  0.00  0.00    +0.000 A 
BRANCH   3  10
ATOM      9  C   UNL     1       7.234   4.844  13.530  0.00  0.00    +0.000 C 
ATOM     10  O   UNL     1       7.628   5.298  14.818  0.00  0.00    +0.000 OA
ENDBRANCH   3  10
BRANCH   8  11
ATOM     11  O   UNL     1       7.416   7.284  17.006  0.00  0.00    +0.000 OA
ATOM     12  H   UNL     1       7.493   7.775  16.172  0.00  0.00    +0.000 HD
ENDBRANCH   8  11
ENDBRANCH   1   6
BRANCH   1  13
ATOM     13  C   UNL     1       2.831   6.126  19.200  0.00  0.00    +0.000 C 
ATOM     14  C   UNL     1       2.461   7.134  18.396  0.00  0.00    +0.000 C 
BRANCH  14  15
ATOM     15  C   UNL     1       1.831   8.335  18.946  0.00  0.00    +0.000 A 
ATOM     16  C   UNL     1       1.562   9.438  18.130  0.00  0.00    +0.000 A 
ATOM     17  C   UNL     1       0.993  10.595  18.672  0.00  0.00    +0.000 A 
ATOM     18  C   UNL     1       0.695  10.654  20.035  0.00  0.00    +0.000 A 
ATOM     19  C   UNL     1       0.962   9.555  20.858  0.00  0.00    +0.000 A 
ATOM     20  C   UNL     1       1.529   8.397  20.312  0.00  0.00    +0.000 A 
BRANCH  19  21
ATOM     21  C   UNL     1       0.665   9.615  22.258  0.00  0.00    +0.000 C 
ATOM     22  N   UNL     1       0.416   9.657  23.392  0.00  0.00    +0.000 NA
ENDBRANCH  19  21
ENDBRANCH  14  15
ENDBRANCH   1  13
TORSDOF 6
ENDMDL
MODEL 4
REMARK VINA RESULT:      -7.0      4.337      7.889
REMARK  Name = 
REMARK  7 active torsions:
REMARK  status: ('A' for Active; 'I' for Inactive)
REMARK    1  A    between atoms: C_1  and  O_2
REMARK    2  A    between atoms: O_2  and  C_3
REMARK    3  A    between atoms: C_6  and  C_7
REMARK    4  A    between atoms: C_7  and  C_9
REMARK    5  A    between atoms: C_10  and  C_11
REMARK    6  A    between atoms: C_15  and  C_16
REMARK    7  A    between atoms: C_20  and  O_21
REMARK                            x       y       z     vdW  Elec       q    Type
REMARK                         _______ _______ _______ _____ _____    ______ ____
ROOT
ATOM      1  C   UNL     1       6.542   4.781  18.475  0.00  0.00    +0.000 C 
ATOM      2  O   UNL     1       7.410   5.247  19.202  0.00  0.00    +0.000 OA
ENDROOT
BRANCH   1   6
ATOM      3  C   UNL     1       2.574   4.044  20.003  0.00  0.00    +0.000 A 
ATOM      4  C   UNL     1       3.394   2.998  19.555  0.00  0.00    +0.000 A 
ATOM      5  C   UNL     1       4.674   3.249  19.050  0.00  0.00    +0.000 A 
ATOM      6  C   UNL     1       5.162   4.558  18.997  0.00  0.00    +0.000 A 
ATOM      7  C   UNL     1       4.341   5.611  19.415  0.00  0.00    +0.000 A 
ATOM      8  C   UNL     1       3.059   5.353  19.921  0.00  0.00    +0.000 A 
BRANCH   3  10
ATOM      9  C   UNL     1       1.351   2.694  21.557  0.00  0.00    +0.000 C 
ATOM     10  O   UNL     1       1.363   3.614  20.473  0.00  0.00    +0.000 OA
ENDBRANCH   3  10
BRANCH   8  11
ATOM     11  O   UNL     1       2.303   6.419  20.326  0.00  0.00    +0.000 OA
ATOM     12  H   UNL     1       1.376   6.289  20.069  0.00  0.00    +0.000 HD
ENDBRANCH   8  11
ENDBRANCH   1   6
BRANCH   1  13
ATOM     13  C   UNL     1       6.806   4.454  17.044  0.00  0.00    +0.000 C 
ATOM     14  C   UNL     1       6.146   5.090  16.065  0.00  0.00    +0.000 C 
BRANCH  14  15
ATOM     15  C   UNL     1       6.420   4.787  14.660  0.00  0.00    +0.000 A 
ATOM     16  C   UNL     1       7.624   5.181  14.066  0.00  0.00    +0.000 A 
ATOM     17  C   UNL     1       7.861   4.920  12.713  0.00  0.00    +0.000 A 
ATOM     18  C   UNL     1       6.893   4.266  11.947  0.00  0.00    +0.000 A 
ATOM     19  C   UNL     1       5.687   3.870  12.535  0.00  0.00    +0.000 A 
ATOM     20  C   UNL     1       5.453   4.131  13.890  0.00  0.00    +0.000 A 
BRANCH  19  21
ATOM     21  C   UNL     1       4.689   3.207  11.750  0.00  0.00    +0.000 C 
ATOM     22  N   UNL     1       3.885   2.671  11.104  0.00  0.00    +0.000 NA
ENDBRANCH  19  21
ENDBRANCH  14  15
ENDBRANCH   1  13
TORSDOF 6
ENDMDL
MODEL 5
REMARK VINA RESULT:      -7.0      4.023      7.738
REMARK  Name = 
REMARK  7 active torsions:
REMARK  status: ('A' for Active; 'I' for Inactive)
REMARK    1  A    between atoms: C_1  and  O_2
REMARK    2  A    between atoms: O_2  and  C_3
REMARK    3  A    between atoms: C_6  and  C_7
REMARK    4  A    between atoms: C_7  and  C_9
REMARK    5  A    between atoms: C_10  and  C_11
REMARK    6  A    between atoms: C_15  and  C_16
REMARK    7  A    between atoms: C_20  and  O_21
REMARK                            x       y       z     vdW  Elec       q    Type
REMARK                         _______ _______ _______ _____ _____    ______ ____
ROOT
ATOM      1  C   UNL     1       2.449   5.996  20.075  0.00  0.00    +0.000 C 
ATOM      2  O   UNL     1       1.852   5.197  20.787  0.00  0.00    +0.000 OA
ENDROOT
BRANCH   1   6
ATOM      3  C   UNL     1       0.944  10.020  19.671  0.00  0.00    +0.000 A 
ATOM      4  C   UNL     1       0.788   9.295  20.860  0.00  0.00    +0.000 A 
ATOM      5  C   UNL     1       1.269   7.986  20.977  0.00  0.00    +0.000 A 
ATOM      6  C   UNL     1       1.929   7.383  19.902  0.00  0.00    +0.000 A 
ATOM      7  C   UNL     1       2.063   8.089  18.700  0.00  0.00    +0.000 A 
ATOM      8  C   UNL     1       1.580   9.400  18.590  0.00  0.00    +0.000 A 
BRANCH   3  10
ATOM      9  C   UNL     1      -0.907  11.489  19.281  0.00  0.00    +0.000 C 
ATOM     10  O   UNL     1       0.423  11.283  19.740  0.00  0.00    +0.000 OA
ENDBRANCH   3  10
BRANCH   8  11
ATOM     11  O   UNL     1       1.748  10.047  17.396  0.00  0.00    +0.000 OA
ATOM     12  H   UNL     1       1.401  10.952  17.454  0.00  0.00    +0.000 HD
ENDBRANCH   8  11
ENDBRANCH   1   6
BRANCH   1  13
ATOM     13  C   UNL     1       3.724   5.639  19.389  0.00  0.00    +0.000 C 
ATOM     14  C   UNL     1       3.722   5.240  18.109  0.00  0.00    +0.000 C 
BRANCH  14  15
ATOM     15  C   UNL     1       4.975   4.911  17.428  0.00  0.00    +0.000 A 
ATOM     16  C   UNL     1       6.199   5.001  18.100  0.00  0.00    +0.000 A 
ATOM     17  C   UNL     1       7.393   4.721  17.430  0.00  0.00    +0.000 A 
ATOM     18  C   UNL     1       7.369   4.353  16.083  0.00  0.00    +0.000 A 
ATOM     19  C   UNL     1       6.150   4.261  15.405  0.00  0.00    +0.000 A 
ATOM     20  C   UNL     1       4.955   4.539  16.078  0.00  0.00    +0.000 A 
BRANCH  19  21
ATOM     21  C   UNL     1       6.122   3.891  14.021  0.00  0.00    +0.000 C 
ATOM     22  N   UNL     1       6.111   3.591  12.898  0.00  0.00    +0.000 NA
ENDBRANCH  19  21
ENDBRANCH  14  15
ENDBRANCH   1  13
TORSDOF 6
ENDMDL
MODEL 6
REMARK VINA RESULT:      -7.0      2.878      4.443
REMARK  Name = 
REMARK  7 active torsions:
REMARK  status: ('A' for Active; 'I' for Inactive)
REMARK    1  A    between atoms: C_1  and  O_2
REMARK    2  A    between atoms: O_2  and  C_3
REMARK    3  A    between atoms: C_6  and  C_7
REMARK    4  A    between atoms: C_7  and  C_9
REMARK    5  A    between atoms: C_10  and  C_11
REMARK    6  A    between atoms: C_15  and  C_16
REMARK    7  A    between atoms: C_20  and  O_21
REMARK                            x       y       z     vdW  Elec       q    Type
REMARK                         _______ _______ _______ _____ _____    ______ ____
ROOT
ATOM      1  C   UNL     1       7.044   4.558  17.567  0.00  0.00    +0.000 C 
ATOM      2  O   UNL     1       8.175   4.601  18.037  0.00  0.00    +0.000 OA
ENDROOT
BRANCH   1   6
ATOM      3  C   UNL     1       6.378   4.083  13.330  0.00  0.00    +0.000 A 
ATOM      4  C   UNL     1       5.649   3.347  14.275  0.00  0.00    +0.000 A 
ATOM      5  C   UNL     1       5.881   3.499  15.646  0.00  0.00    +0.000 A 
ATOM      6  C   UNL     1       6.845   4.407  16.097  0.00  0.00    +0.000 A 
ATOM      7  C   UNL     1       7.598   5.125  15.161  0.00  0.00    +0.000 A 
ATOM      8  C   UNL     1       7.360   4.968  13.788  0.00  0.00    +0.000 A 
BRANCH   3  10
ATOM      9  C   UNL     1       4.697   3.327  11.802  0.00  0.00    +0.000 C 
ATOM     10  O   UNL     1       6.011   3.814  12.040  0.00  0.00    +0.000 OA
ENDBRANCH   3  10
BRANCH   8  11
ATOM     11  O   UNL     1       8.117   5.703  12.918  0.00  0.00    +0.000 OA
ATOM     12  H   UNL     1       7.627   5.857  12.095  0.00  0.00    +0.000 HD
ENDBRANCH   8  11
ENDBRANCH   1   6
BRANCH   1  13
ATOM     13  C   UNL     1       5.831   4.614  18.432  0.00  0.00    +0.000 C 
ATOM     14  C   UNL     1       4.952   5.620  18.312  0.00  0.00    +0.000 C 
BRANCH  14  15
ATOM     15  C   UNL     1       3.749   5.665  19.145  0.00  0.00    +0.000 A 
ATOM     16  C   UNL     1       2.990   6.835  19.241  0.00  0.00    +0.000 A 
ATOM     17  C   UNL     1       1.864   6.880  20.068  0.00  0.00    +0.000 A 
ATOM     18  C   UNL     1       1.495   5.753  20.807  0.00  0.00    +0.000 A 
ATOM     19  C   UNL     1       2.250   4.579  20.716  0.00  0.00    +0.000 A 
ATOM     20  C   UNL     1       3.375   4.537  19.885  0.00  0.00    +0.000 A 
BRANCH  19  21
ATOM     21  C   UNL     1       1.878   3.425  21.478  0.00  0.00    +0.000 C 
ATOM     22  N   UNL     1       1.572   2.494  22.104  0.00  0.00    +0.000 NA
ENDBRANCH  19  21
ENDBRANCH  14  15
ENDBRANCH   1  13
TORSDOF 6
ENDMDL
MODEL 7
REMARK VINA RESULT:      -6.9      5.449      6.983
REMARK  Name = 
REMARK  7 active torsions:
REMARK  status: ('A' for Active; 'I' for Inactive)
REMARK    1  A    between atoms: C_1  and  O_2
REMARK    2  A    between atoms: O_2  and  C_3
REMARK    3  A    between atoms: C_6  and  C_7
REMARK    4  A    between atoms: C_7  and  C_9
REMARK    5  A    between atoms: C_10  and  C_11
REMARK    6  A    between atoms: C_15  and  C_16
REMARK    7  A    between atoms: C_20  and  O_21
REMARK                            x       y       z     vdW  Elec       q    Type
REMARK                         _______ _______ _______ _____ _____    ______ ____
ROOT
ATOM      1  C   UNL     1       7.287   6.796  17.275  0.00  0.00    +0.000 C 
ATOM      2  O   UNL     1       7.715   6.445  16.182  0.00  0.00    +0.000 OA
ENDROOT
BRANCH   1   6
ATOM      3  C   UNL     1       3.882   4.824  19.045  0.00  0.00    +0.000 A 
ATOM      4  C   UNL     1       5.184   4.334  19.217  0.00  0.00    +0.000 A 
ATOM      5  C   UNL     1       6.281   4.974  18.629  0.00  0.00    +0.000 A 
ATOM      6  C   UNL     1       6.090   6.129  17.864  0.00  0.00    +0.000 A 
ATOM      7  C   UNL     1       4.791   6.609  17.663  0.00  0.00    +0.000 A 
ATOM      8  C   UNL     1       3.697   5.964  18.256  0.00  0.00    +0.000 A 
BRANCH   3  10
ATOM      9  C   UNL     1       2.841   2.695  19.391  0.00  0.00    +0.000 C 
ATOM     10  O   UNL     1       2.938   4.080  19.699  0.00  0.00    +0.000 OA
ENDBRANCH   3  10
BRANCH   8  11
ATOM     11  O   UNL     1       2.450   6.481  18.035  0.00  0.00    +0.000 OA
ATOM     12  H   UNL     1       2.512   7.428  17.833  0.00  0.00    +0.000 HD
ENDBRANCH   8  11
ENDBRANCH   1   6
BRANCH   1  13
ATOM     13  C   UNL     1       7.954   7.863  18.075  0.00  0.00    +0.000 C 
ATOM     14  C   UNL     1       8.077   9.106  17.588  0.00  0.00    +0.000 C 
BRANCH  14  15
ATOM     15  C   UNL     1       8.711  10.160  18.381  0.00  0.00    +0.000 A 
ATOM     16  C   UNL     1       9.208   9.891  19.660  0.00  0.00    +0.000 A 
ATOM     17  C   UNL     1       9.779  10.912  20.425  0.00  0.00    +0.000 A 
ATOM     18  C   UNL     1       9.851  12.210  19.914  0.00  0.00    +0.000 A 
ATOM     19  C   UNL     1       9.356  12.487  18.635  0.00  0.00    +0.000 A 
ATOM     20  C   UNL     1       8.787  11.462  17.871  0.00  0.00    +0.000 A 
BRANCH  19  21
ATOM     21  C   UNL     1       9.422  13.819  18.112  0.00  0.00    +0.000 C 
ATOM     22  N   UNL     1       9.467  14.897  17.680  0.00  0.00    +0.000 NA
ENDBRANCH  19  21
ENDBRANCH  14  15
ENDBRANCH   1  13
TORSDOF 6
ENDMDL
MODEL 8
REMARK VINA RESULT:      -6.9      3.881      8.060
REMARK  Name = 
REMARK  7 active torsions:
REMARK  status: ('A' for Active; 'I' for Inactive)
REMARK    1  A    between atoms: C_1  and  O_2
REMARK    2  A    between atoms: O_2  and  C_3
REMARK    3  A    between atoms: C_6  and  C_7
REMARK    4  A    between atoms: C_7  and  C_9
REMARK    5  A    between atoms: C_10  and  C_11
REMARK    6  A    between atoms: C_15  and  C_16
REMARK    7  A    between atoms: C_20  and  O_21
REMARK                            x       y       z     vdW  Elec       q    Type
REMARK                         _______ _______ _______ _____ _____    ______ ____
ROOT
ATOM      1  C   UNL     1       1.655   9.533  18.361  0.00  0.00    +0.000 C 
ATOM      2  O   UNL     1       1.993  10.395  17.559  0.00  0.00    +0.000 OA
ENDROOT
BRANCH   1   6
ATOM      3  C   UNL     1      -0.173  10.738  22.079  0.00  0.00    +0.000 A 
ATOM      4  C   UNL     1       0.432  11.669  21.224  0.00  0.00    +0.000 A 
ATOM      5  C   UNL     1       1.033  11.267  20.026  0.00  0.00    +0.000 A 
ATOM      6  C   UNL     1       1.026   9.918  19.658  0.00  0.00    +0.000 A 
ATOM      7  C   UNL     1       0.449   8.978  20.519  0.00  0.00    +0.000 A 
ATOM      8  C   UNL     1      -0.152   9.387  21.717  0.00  0.00    +0.000 A 
BRANCH   3  10
ATOM      9  C   UNL     1      -1.860  12.141  23.039  0.00  0.00    +0.000 C 
ATOM     10  O   UNL     1      -0.718  11.310  23.197  0.00  0.00    +0.000 OA
ENDBRANCH   3  10
BRANCH   8  11
ATOM     11  O   UNL     1      -0.710   8.427  22.516  0.00  0.00    +0.000 OA
ATOM     12  H   UNL     1      -0.256   8.400  23.374  0.00  0.00    +0.000 HD
ENDBRANCH   8  11
ENDBRANCH   1   6
BRANCH   1  13
ATOM     13  C   UNL     1       1.816   8.080  18.069  0.00  0.00    +0.000 C 
ATOM     14  C   UNL     1       3.025   7.503  18.122  0.00  0.00    +0.000 C 
BRANCH  14  15
ATOM     15  C   UNL     1       3.181   6.071  17.858  0.00  0.00    +0.000 A 
ATOM     16  C   UNL     1       4.315   5.587  17.198  0.00  0.00    +0.000 A 
ATOM     17  C   UNL     1       4.439   4.223  16.917  0.00  0.00    +0.000 A 
ATOM     18  C   UNL     1       3.425   3.338  17.292  0.00  0.00    +0.000 A 
ATOM     19  C   UNL     1       2.288   3.816  17.952  0.00  0.00    +0.000 A 
ATOM     20  C   UNL     1       2.168   5.181  18.234  0.00  0.00    +0.000 A 
BRANCH  19  21
ATOM     21  C   UNL     1       1.244   2.912  18.331  0.00  0.00    +0.000 C 
ATOM     22  N   UNL     1       0.389   2.187  18.640  0.00  0.00    +0.000 NA
ENDBRANCH  19  21
ENDBRANCH  14  15
ENDBRANCH   1  13
TORSDOF 6
ENDMDL
MODEL 9
REMARK VINA RESULT:      -6.8      1.927      2.781
REMARK  Name = 
REMARK  7 active torsions:
REMARK  status: ('A' for Active; 'I' for Inactive)
REMARK    1  A    between atoms: C_1  and  O_2
REMARK    2  A    between atoms: O_2  and  C_3
REMARK    3  A    between atoms: C_6  and  C_7
REMARK    4  A    between atoms: C_7  and  C_9
REMARK    5  A    between atoms: C_10  and  C_11
REMARK    6  A    between atoms: C_15  and  C_16
REMARK    7  A    between atoms: C_20  and  O_21
REMARK                            x       y       z     vdW  Elec       q    Type
REMARK                         _______ _______ _______ _____ _____    ______ ____
ROOT
ATOM      1  C   UNL     1       2.463   6.096  19.993  0.00  0.00    +0.000 C 
ATOM      2  O   UNL     1       2.097   5.107  20.618  0.00  0.00    +0.000 OA
ENDROOT
BRANCH   1   6
ATOM      3  C   UNL     1       5.676   5.890  17.120  0.00  0.00    +0.000 A 
ATOM      4  C   UNL     1       4.587   6.755  16.942  0.00  0.00    +0.000 A 
ATOM      5  C   UNL     1       3.544   6.805  17.874  0.00  0.00    +0.000 A 
ATOM      6  C   UNL     1       3.582   5.994  19.012  0.00  0.00    +0.000 A 
ATOM      7  C   UNL     1       4.650   5.106  19.183  0.00  0.00    +0.000 A 
ATOM      8  C   UNL     1       5.692   5.061  18.247  0.00  0.00    +0.000 A 
BRANCH   3  10
ATOM      9  C   UNL     1       6.549   5.032  15.062  0.00  0.00    +0.000 C 
ATOM     10  O   UNL     1       6.604   5.982  16.119  0.00  0.00    +0.000 OA
ENDBRANCH   3  10
BRANCH   8  11
ATOM     11  O   UNL     1       6.717   4.183  18.470  0.00  0.00    +0.000 OA
ATOM     12  H   UNL     1       6.686   3.855  19.383  0.00  0.00    +0.000 HD
ENDBRANCH   8  11
ENDBRANCH   1   6
BRANCH   1  13
ATOM     13  C   UNL     1       1.794   7.418  20.151  0.00  0.00    +0.000 C 
ATOM     14  C   UNL     1       1.059   7.686  21.241  0.00  0.00    +0.000 C 
BRANCH  14  15
ATOM     15  C   UNL     1       0.420   8.993  21.408  0.00  0.00    +0.000 A 
ATOM     16  C   UNL     1      -0.021   9.416  22.666  0.00  0.00    +0.000 A 
ATOM     17  C   UNL     1      -0.664  10.649  22.809  0.00  0.00    +0.000 A 
ATOM     18  C   UNL     1      -0.872  11.463  21.693  0.00  0.00    +0.000 A 
ATOM     19  C   UNL     1      -0.433  11.046  20.432  0.00  0.00    +0.000 A 
ATOM     20  C   UNL     1       0.212   9.812  20.292  0.00  0.00    +0.000 A 
BRANCH  19  21
ATOM     21  C   UNL     1      -0.652  11.874  19.285  0.00  0.00    +0.000 C 
ATOM     22  N   UNL     1      -0.839  12.541  18.351  0.00  0.00    +0.000 NA
ENDBRANCH  19  21
ENDBRANCH  14  15
ENDBRANCH   1  13
TORSDOF 6
ENDMDL
