MODEL 1
REMARK VINA RESULT:      -7.6      0.000      0.000
REMARK  Name = 
REMARK  2 active torsions:
REMARK  status: ('A' for Active; 'I' for Inactive)
REMARK    1  A    between atoms: C_2  and  C_17
REMARK    2  A    between atoms: N_6  and  C_7
REMARK                            x       y       z     vdW  Elec       q    Type
REMARK                         _______ _______ _______ _____ _____    ______ ____
ROOT
ATOM      1  O   UNL     1       4.229   6.061  19.297  0.00  0.00    +0.000 OA
ATOM      2  C   UNL     1       4.107   6.326  18.106  0.00  0.00    +0.000 C 
ATOM      3  N   UNL     1       3.191   7.248  17.624  0.00  0.00    +0.000 N 
ATOM      4  C   UNL     1       2.291   7.936  18.374  0.00  0.00    +0.000 C 
ATOM      5  N   UNL     1       1.480   8.786  17.830  0.00  0.00    +0.000 NA
ATOM      6  N   UNL     1       0.751   9.334  18.850  0.00  0.00    +0.000 N 
ATOM      7  C   UNL     1       1.033   8.720  20.143  0.00  0.00    +0.000 C 
ATOM      8  C   UNL     1       2.160   7.755  19.852  0.00  0.00    +0.000 C 
ATOM      9  H   UNL     1       3.140   7.441  16.629  0.00  0.00    +0.000 HD
ENDROOT
BRANCH   6  10
ATOM     10  C   UNL     1      -0.436  10.028  18.606  0.00  0.00    +0.000 A 
ATOM     11  C   UNL     1      -1.199   9.784  17.454  0.00  0.00    +0.000 A 
ATOM     12  C   UNL     1      -2.409  10.447  17.220  0.00  0.00    +0.000 A 
ATOM     13  C   UNL     1      -2.877  11.392  18.132  0.00  0.00    +0.000 A 
ATOM     14 CL   UNL     1      -4.389  12.159  17.802  0.00  0.00    +0.000 Cl
ATOM     15  C   UNL     1      -2.120  11.681  19.268  0.00  0.00    +0.000 A 
ATOM     16 CL   UNL     1      -2.613  12.857  20.437  0.00  0.00    +0.000 Cl
ATOM     17  C   UNL     1      -0.913  11.006  19.495  0.00  0.00    +0.000 A 
ENDBRANCH   6  10
BRANCH   2  18
ATOM     18  C   UNL     1       4.965   5.617  17.123  0.00  0.00    +0.000 A 
ATOM     19  C   UNL     1       4.629   4.373  16.594  0.00  0.00    +0.000 A 
ATOM     20  F   UNL     1       3.452   3.798  16.882  0.00  0.00    +0.000 F 
ATOM     21  C   UNL     1       5.510   3.679  15.760  0.00  0.00    +0.000 A 
ATOM     22  C   UNL     1       6.747   4.235  15.437  0.00  0.00    +0.000 A 
ATOM     23  C   UNL     1       7.084   5.492  15.929  0.00  0.00    +0.000 A 
ATOM     24  C   UNL     1       6.196   6.176  16.762  0.00  0.00    +0.000 A 
ATOM     25  F   UNL     1       6.567   7.391  17.187  0.00  0.00    +0.000 F 
ENDBRANCH   2  18
TORSDOF 2
ENDMDL
MODEL 2
REMARK VINA RESULT:      -7.6      1.057      1.764
REMARK  Name = 
REMARK  2 active torsions:
REMARK  status: ('A' for Active; 'I' for Inactive)
REMARK    1  A    between atoms: C_2  and  C_17
REMARK    2  A    between atoms: N_6  and  C_7
REMARK                            x       y       z     vdW  Elec       q    Type
REMARK                         _______ _______ _______ _____ _____    ______ ____
ROOT
ATOM      1  O   UNL     1       3.877   5.026  19.456  0.00  0.00    +0.000 OA
ATOM      2  C   UNL     1       3.986   5.748  18.470  0.00  0.00    +0.000 C 
ATOM      3  N   UNL     1       3.324   6.959  18.341  0.00  0.00    +0.000 N 
ATOM      4  C   UNL     1       2.449   7.482  19.237  0.00  0.00    +0.000 C 
ATOM      5  N   UNL     1       1.887   8.630  19.030  0.00  0.00    +0.000 NA
ATOM      6  N   UNL     1       1.112   8.887  20.128  0.00  0.00    +0.000 N 
ATOM      7  C   UNL     1       1.083   7.778  21.075  0.00  0.00    +0.000 C 
ATOM      8  C   UNL     1       2.063   6.780  20.500  0.00  0.00    +0.000 C 
ATOM      9  H   UNL     1       3.461   7.526  17.510  0.00  0.00    +0.000 HD
ENDROOT
BRANCH   6  10
ATOM     10  C   UNL     1       0.111   9.861  20.103  0.00  0.00    +0.000 A 
ATOM     11  C   UNL     1      -0.236  10.578  21.258  0.00  0.00    +0.000 A 
ATOM     12  C   UNL     1      -1.210  11.582  21.235  0.00  0.00    +0.000 A 
ATOM     13  C   UNL     1      -1.880  11.879  20.048  0.00  0.00    +0.000 A 
ATOM     14 CL   UNL     1      -3.055  13.145  20.076  0.00  0.00    +0.000 Cl
ATOM     15  C   UNL     1      -1.581  11.156  18.893  0.00  0.00    +0.000 A 
ATOM     16 CL   UNL     1      -2.381  11.443  17.386  0.00  0.00    +0.000 Cl
ATOM     17  C   UNL     1      -0.599  10.158  18.927  0.00  0.00    +0.000 A 
ENDBRANCH   6  10
BRANCH   2  18
ATOM     18  C   UNL     1       4.853   5.305  17.350  0.00  0.00    +0.000 A 
ATOM     19  C   UNL     1       4.541   4.209  16.547  0.00  0.00    +0.000 A 
ATOM     20  F   UNL     1       3.377   3.558  16.696  0.00  0.00    +0.000 F 
ATOM     21  C   UNL     1       5.431   3.746  15.576  0.00  0.00    +0.000 A 
ATOM     22  C   UNL     1       6.655   4.388  15.389  0.00  0.00    +0.000 A 
ATOM     23  C   UNL     1       6.967   5.505  16.158  0.00  0.00    +0.000 A 
ATOM     24  C   UNL     1       6.070   5.958  17.127  0.00  0.00    +0.000 A 
ATOM     25  F   UNL     1       6.418   7.050  17.821  0.00  0.00    +0.000 F 
ENDBRANCH   2  18
TORSDOF 2
ENDMDL
MODEL 3
REMARK VINA RESULT:      -7.6      3.049      3.862
REMARK  Name = 
REMARK  2 active torsions:
REMARK  status: ('A' for Active; 'I' for Inactive)
REMARK    1  A    between atoms: C_2  and  C_17
REMARK    2  A    between atoms: N_6  and  C_7
REMARK                            x       y       z     vdW  Elec       q    Type
REMARK                         _______ _______ _______ _____ _____    ______ ____
ROOT
ATOM      1  O   UNL     1       3.309   6.986  17.208  0.00  0.00    +0.000 OA
ATOM      2  C   UNL     1       2.834   6.481  18.220  0.00  0.00    +0.000 C 
ATOM      3  N   UNL     1       2.073   7.191  19.135  0.00  0.00    +0.000 N 
ATOM      4  C   UNL     1       1.792   8.519  19.071  0.00  0.00    +0.000 C 
ATOM      5  N   UNL     1       1.061   9.091  19.974  0.00  0.00    +0.000 NA
ATOM      6  N   UNL     1       0.930  10.399  19.595  0.00  0.00    +0.000 N 
ATOM      7  C   UNL     1       1.721  10.731  18.414  0.00  0.00    +0.000 C 
ATOM      8  C   UNL     1       2.309   9.405  17.984  0.00  0.00    +0.000 C 
ATOM      9  H   UNL     1       1.690   6.722  19.950  0.00  0.00    +0.000 HD
ENDROOT
BRANCH   6  10
ATOM     10  C   UNL     1       0.500  11.379  20.493  0.00  0.00    +0.000 A 
ATOM     11  C   UNL     1       1.110  12.642  20.539  0.00  0.00    +0.000 A 
ATOM     12  C   UNL     1       0.662  13.643  21.407  0.00  0.00    +0.000 A 
ATOM     13  C   UNL     1      -0.404  13.394  22.271  0.00  0.00    +0.000 A 
ATOM     14 CL   UNL     1      -0.929  14.677  23.302  0.00  0.00    +0.000 Cl
ATOM     15  C   UNL     1      -1.005  12.135  22.272  0.00  0.00    +0.000 A 
ATOM     16 CL   UNL     1      -2.316  11.734  23.327  0.00  0.00    +0.000 Cl
ATOM     17  C   UNL     1      -0.552  11.143  21.393  0.00  0.00    +0.000 A 
ENDBRANCH   6  10
BRANCH   2  18
ATOM     18  C   UNL     1       3.094   5.046  18.496  0.00  0.00    +0.000 A 
ATOM     19  C   UNL     1       4.230   4.606  19.173  0.00  0.00    +0.000 A 
ATOM     20  F   UNL     1       5.100   5.482  19.696  0.00  0.00    +0.000 F 
ATOM     21  C   UNL     1       4.505   3.244  19.316  0.00  0.00    +0.000 A 
ATOM     22  C   UNL     1       3.631   2.296  18.784  0.00  0.00    +0.000 A 
ATOM     23  C   UNL     1       2.475   2.719  18.135  0.00  0.00    +0.000 A 
ATOM     24  C   UNL     1       2.211   4.082  17.997  0.00  0.00    +0.000 A 
ATOM     25  F   UNL     1       1.071   4.427  17.381  0.00  0.00    +0.000 F 
ENDBRANCH   2  18
TORSDOF 2
ENDMDL
MODEL 4
REMARK VINA RESULT:      -7.5      0.209      1.700
REMARK  Name = 
REMARK  2 active torsions:
REMARK  status: ('A' for Active; 'I' for Inactive)
REMARK    1  A    between atoms: C_2  and  C_17
REMARK    2  A    between atoms: N_6  and  C_7
REMARK                            x       y       z     vdW  Elec       q    Type
REMARK                         _______ _______ _______ _____ _____    ______ ____
ROOT
ATOM      1  O   UNL     1       4.272   5.893  19.379  0.00  0.00    +0.000 OA
ATOM      2  C   UNL     1       4.203   6.233  18.202  0.00  0.00    +0.000 C 
ATOM      3  N   UNL     1       3.319   7.196  17.743  0.00  0.00    +0.000 N 
ATOM      4  C   UNL     1       2.396   7.848  18.496  0.00  0.00    +0.000 C 
ATOM      5  N   UNL     1       1.618   8.743  17.974  0.00  0.00    +0.000 NA
ATOM      6  N   UNL     1       0.853   9.235  18.996  0.00  0.00    +0.000 N 
ATOM      7  C   UNL     1       1.073   8.538  20.258  0.00  0.00    +0.000 C 
ATOM      8  C   UNL     1       2.201   7.577  19.954  0.00  0.00    +0.000 C 
ATOM      9  H   UNL     1       3.312   7.452  16.760  0.00  0.00    +0.000 HD
ENDROOT
BRANCH   6  10
ATOM     10  C   UNL     1      -0.315   9.960  18.748  0.00  0.00    +0.000 A 
ATOM     11  C   UNL     1      -1.096   9.715  17.608  0.00  0.00    +0.000 A 
ATOM     12  C   UNL     1      -2.287  10.409  17.370  0.00  0.00    +0.000 A 
ATOM     13  C   UNL     1      -2.718  11.387  18.266  0.00  0.00    +0.000 A 
ATOM     14 CL   UNL     1      -4.209  12.192  17.933  0.00  0.00    +0.000 Cl
ATOM     15  C   UNL     1      -1.942  11.676  19.389  0.00  0.00    +0.000 A 
ATOM     16 CL   UNL     1      -2.389  12.891  20.537  0.00  0.00    +0.000 Cl
ATOM     17  C   UNL     1      -0.754  10.970  19.619  0.00  0.00    +0.000 A 
ENDBRANCH   6  10
BRANCH   2  18
ATOM     18  C   UNL     1       5.093   5.576  17.213  0.00  0.00    +0.000 A 
ATOM     19  C   UNL     1       6.317   6.120  16.826  0.00  0.00    +0.000 A 
ATOM     20  F   UNL     1       6.792   7.228  17.414  0.00  0.00    +0.000 F 
ATOM     21  C   UNL     1       7.079   5.539  15.810  0.00  0.00    +0.000 A 
ATOM     22  C   UNL     1       6.623   4.388  15.168  0.00  0.00    +0.000 A 
ATOM     23  C   UNL     1       5.419   3.813  15.565  0.00  0.00    +0.000 A 
ATOM     24  C   UNL     1       4.666   4.403  16.581  0.00  0.00    +0.000 A 
ATOM     25  F   UNL     1       3.527   3.791  16.934  0.00  0.00    +0.000 F 
ENDBRANCH   2  18
TORSDOF 2
ENDMDL
MODEL 5
REMARK VINA RESULT:      -7.5      1.022      1.293
REMARK  Name = 
REMARK  2 active torsions:
REMARK  status: ('A' for Active; 'I' for Inactive)
REMARK    1  A    between atoms: C_2  and  C_17
REMARK    2  A    between atoms: N_6  and  C_7
REMARK                            x       y       z     vdW  Elec       q    Type
REMARK                         _______ _______ _______ _____ _____    ______ ____
ROOT
ATOM      1  O   UNL     1       3.914   5.201  19.397  0.00  0.00    +0.000 OA
ATOM      2  C   UNL     1       3.962   5.881  18.377  0.00  0.00    +0.000 C 
ATOM      3  N   UNL     1       3.266   7.070  18.226  0.00  0.00    +0.000 N 
ATOM      4  C   UNL     1       2.420   7.615  19.138  0.00  0.00    +0.000 C 
ATOM      5  N   UNL     1       1.823   8.740  18.908  0.00  0.00    +0.000 NA
ATOM      6  N   UNL     1       1.093   9.028  20.028  0.00  0.00    +0.000 N 
ATOM      7  C   UNL     1       1.133   7.962  21.023  0.00  0.00    +0.000 C 
ATOM      8  C   UNL     1       2.109   6.961  20.446  0.00  0.00    +0.000 C 
ATOM      9  H   UNL     1       3.352   7.603  17.366  0.00  0.00    +0.000 HD
ENDROOT
BRANCH   6  10
ATOM     10  C   UNL     1       0.069   9.979  20.007  0.00  0.00    +0.000 A 
ATOM     11  C   UNL     1      -0.598  10.304  18.816  0.00  0.00    +0.000 A 
ATOM     12  C   UNL     1      -1.650  11.226  18.790  0.00  0.00    +0.000 A 
ATOM     13  C   UNL     1      -2.049  11.864  19.965  0.00  0.00    +0.000 A 
ATOM     14 CL   UNL     1      -3.370  12.973  19.876  0.00  0.00    +0.000 Cl
ATOM     15  C   UNL     1      -1.380  11.586  21.156  0.00  0.00    +0.000 A 
ATOM     16 CL   UNL     1      -1.793  12.350  22.652  0.00  0.00    +0.000 Cl
ATOM     17  C   UNL     1      -0.332  10.656  21.170  0.00  0.00    +0.000 A 
ENDBRANCH   6  10
BRANCH   2  18
ATOM     18  C   UNL     1       4.787   5.407  17.238  0.00  0.00    +0.000 A 
ATOM     19  C   UNL     1       4.469   4.266  16.504  0.00  0.00    +0.000 A 
ATOM     20  F   UNL     1       3.334   3.592  16.740  0.00  0.00    +0.000 F 
ATOM     21  C   UNL     1       5.326   3.780  15.514  0.00  0.00    +0.000 A 
ATOM     22  C   UNL     1       6.520   4.445  15.237  0.00  0.00    +0.000 A 
ATOM     23  C   UNL     1       6.836   5.606  15.937  0.00  0.00    +0.000 A 
ATOM     24  C   UNL     1       5.973   6.081  16.925  0.00  0.00    +0.000 A 
ATOM     25  F   UNL     1       6.321   7.215  17.549  0.00  0.00    +0.000 F 
ENDBRANCH   2  18
TORSDOF 2
ENDMDL
MODEL 6
REMARK VINA RESULT:      -7.5      5.077      9.100
REMARK  Name = 
REMARK  2 active torsions:
REMARK  status: ('A' for Active; 'I' for Inactive)
REMARK    1  A    between atoms: C_2  and  C_17
REMARK    2  A    between atoms: N_6  and  C_7
REMARK                            x       y       z     vdW  Elec       q    Type
REMARK                         _______ _______ _______ _____ _____    ______ ____
ROOT
ATOM      1  O   UNL     1       0.065  11.834  18.574  0.00  0.00    +0.000 OA
ATOM      2  C   UNL     1      -0.361  11.308  19.597  0.00  0.00    +0.000 C 
ATOM      3  N   UNL     1       0.094  10.085  20.065  0.00  0.00    +0.000 N 
ATOM      4  C   UNL     1       1.014   9.295  19.453  0.00  0.00    +0.000 C 
ATOM      5  N   UNL     1       1.382   8.170  19.978  0.00  0.00    +0.000 NA
ATOM      6  N   UNL     1       2.341   7.652  19.151  0.00  0.00    +0.000 N 
ATOM      7  C   UNL     1       2.538   8.445  17.942  0.00  0.00    +0.000 C 
ATOM      8  C   UNL     1       1.647   9.650  18.146  0.00  0.00    +0.000 C 
ATOM      9  H   UNL     1      -0.282   9.699  20.926  0.00  0.00    +0.000 HD
ENDROOT
BRANCH   6  10
ATOM     10  C   UNL     1       2.714   6.307  19.218  0.00  0.00    +0.000 A 
ATOM     11  C   UNL     1       3.602   5.750  18.286  0.00  0.00    +0.000 A 
ATOM     12  C   UNL     1       4.012   4.415  18.368  0.00  0.00    +0.000 A 
ATOM     13  C   UNL     1       3.521   3.594  19.382  0.00  0.00    +0.000 A 
ATOM     14 CL   UNL     1       4.082   1.961  19.446  0.00  0.00    +0.000 Cl
ATOM     15  C   UNL     1       2.608   4.111  20.301  0.00  0.00    +0.000 A 
ATOM     16 CL   UNL     1       1.930   3.156  21.574  0.00  0.00    +0.000 Cl
ATOM     17  C   UNL     1       2.210   5.452  20.213  0.00  0.00    +0.000 A 
ENDBRANCH   6  10
BRANCH   2  18
ATOM     18  C   UNL     1      -1.426  11.996  20.367  0.00  0.00    +0.000 A 
ATOM     19  C   UNL     1      -1.257  12.394  21.692  0.00  0.00    +0.000 A 
ATOM     20  F   UNL     1      -0.071  12.254  22.305  0.00  0.00    +0.000 F 
ATOM     21  C   UNL     1      -2.314  12.936  22.427  0.00  0.00    +0.000 A 
ATOM     22  C   UNL     1      -3.565  13.096  21.832  0.00  0.00    +0.000 A 
ATOM     23  C   UNL     1      -3.742  12.736  20.500  0.00  0.00    +0.000 A 
ATOM     24  C   UNL     1      -2.679  12.195  19.776  0.00  0.00    +0.000 A 
ATOM     25  F   UNL     1      -2.905  11.888  18.491  0.00  0.00    +0.000 F 
ENDBRANCH   2  18
TORSDOF 2
ENDMDL
MODEL 7
REMARK VINA RESULT:      -7.5      1.071      2.426
REMARK  Name = 
REMARK  2 active torsions:
REMARK  status: ('A' for Active; 'I' for Inactive)
REMARK    1  A    between atoms: C_2  and  C_17
REMARK    2  A    between atoms: N_6  and  C_7
REMARK                            x       y       z     vdW  Elec       q    Type
REMARK                         _______ _______ _______ _____ _____    ______ ____
ROOT
ATOM      1  O   UNL     1       4.010   4.969  19.344  0.00  0.00    +0.000 OA
ATOM      2  C   UNL     1       4.144   5.711  18.376  0.00  0.00    +0.000 C 
ATOM      3  N   UNL     1       3.485   6.924  18.255  0.00  0.00    +0.000 N 
ATOM      4  C   UNL     1       2.587   7.430  19.139  0.00  0.00    +0.000 C 
ATOM      5  N   UNL     1       2.030   8.582  18.941  0.00  0.00    +0.000 NA
ATOM      6  N   UNL     1       1.228   8.818  20.023  0.00  0.00    +0.000 N 
ATOM      7  C   UNL     1       1.176   7.690  20.948  0.00  0.00    +0.000 C 
ATOM      8  C   UNL     1       2.170   6.703  20.377  0.00  0.00    +0.000 C 
ATOM      9  H   UNL     1       3.642   7.508  17.439  0.00  0.00    +0.000 HD
ENDROOT
BRANCH   6  10
ATOM     10  C   UNL     1       0.228   9.792  19.992  0.00  0.00    +0.000 A 
ATOM     11  C   UNL     1      -0.147  10.488  21.152  0.00  0.00    +0.000 A 
ATOM     12  C   UNL     1      -1.121  11.492  21.124  0.00  0.00    +0.000 A 
ATOM     13  C   UNL     1      -1.762  11.812  19.928  0.00  0.00    +0.000 A 
ATOM     14 CL   UNL     1      -2.937  13.077  19.951  0.00  0.00    +0.000 Cl
ATOM     15  C   UNL     1      -1.435  11.111  18.767  0.00  0.00    +0.000 A 
ATOM     16 CL   UNL     1      -2.198  11.426  17.247  0.00  0.00    +0.000 Cl
ATOM     17  C   UNL     1      -0.453  10.112  18.806  0.00  0.00    +0.000 A 
ENDBRANCH   6  10
BRANCH   2  18
ATOM     18  C   UNL     1       5.038   5.290  17.270  0.00  0.00    +0.000 A 
ATOM     19  C   UNL     1       6.276   5.886  17.036  0.00  0.00    +0.000 A 
ATOM     20  F   UNL     1       6.759   6.815  17.875  0.00  0.00    +0.000 F 
ATOM     21  C   UNL     1       7.044   5.548  15.920  0.00  0.00    +0.000 A 
ATOM     22  C   UNL     1       6.580   4.591  15.019  0.00  0.00    +0.000 A 
ATOM     23  C   UNL     1       5.362   3.961  15.255  0.00  0.00    +0.000 A 
ATOM     24  C   UNL     1       4.603   4.307  16.374  0.00  0.00    +0.000 A 
ATOM     25  F   UNL     1       3.449   3.651  16.559  0.00  0.00    +0.000 F 
ENDBRANCH   2  18
TORSDOF 2
ENDMDL
MODEL 8
REMARK VINA RESULT:      -7.4      0.831      1.581
REMARK  Name = 
REMARK  2 active torsions:
REMARK  status: ('A' for Active; 'I' for Inactive)
REMARK    1  A    between atoms: C_2  and  C_17
REMARK    2  A    between atoms: N_6  and  C_7
REMARK                            x       y       z     vdW  Elec       q    Type
REMARK                         _______ _______ _______ _____ _____    ______ ____
ROOT
ATOM      1  O   UNL     1       4.093   6.427  19.406  0.00  0.00    +0.000 OA
ATOM      2  C   UNL     1       3.966   6.593  18.197  0.00  0.00    +0.000 C 
ATOM      3  N   UNL     1       3.010   7.431  17.645  0.00  0.00    +0.000 N 
ATOM      4  C   UNL     1       2.074   8.130  18.336  0.00  0.00    +0.000 C 
ATOM      5  N   UNL     1       1.227   8.897  17.727  0.00  0.00    +0.000 NA
ATOM      6  N   UNL     1       0.467   9.486  18.700  0.00  0.00    +0.000 N 
ATOM      7  C   UNL     1       0.769   8.987  20.037  0.00  0.00    +0.000 C 
ATOM      8  C   UNL     1       1.943   8.058  19.824  0.00  0.00    +0.000 C 
ATOM      9  H   UNL     1       2.956   7.544  16.637  0.00  0.00    +0.000 HD
ENDROOT
BRANCH   6  10
ATOM     10  C   UNL     1      -0.751  10.102  18.401  0.00  0.00    +0.000 A 
ATOM     11  C   UNL     1      -1.328  11.035  19.276  0.00  0.00    +0.000 A 
ATOM     12  C   UNL     1      -2.528  11.686  18.968  0.00  0.00    +0.000 A 
ATOM     13  C   UNL     1      -3.193  11.401  17.776  0.00  0.00    +0.000 A 
ATOM     14 CL   UNL     1      -4.656  12.255  17.440  0.00  0.00    +0.000 Cl
ATOM     15  C   UNL     1      -2.660  10.450  16.905  0.00  0.00    +0.000 A 
ATOM     16 CL   UNL     1      -3.432  10.018  15.419  0.00  0.00    +0.000 Cl
ATOM     17  C   UNL     1      -1.455   9.810  17.221  0.00  0.00    +0.000 A 
ENDBRANCH   6  10
BRANCH   2  18
ATOM     18  C   UNL     1       4.862   5.854  17.274  0.00  0.00    +0.000 A 
ATOM     19  C   UNL     1       4.519   4.621  16.722  0.00  0.00    +0.000 A 
ATOM     20  F   UNL     1       3.305   4.090  16.929  0.00  0.00    +0.000 F 
ATOM     21  C   UNL     1       5.428   3.895  15.949  0.00  0.00    +0.000 A 
ATOM     22  C   UNL     1       6.704   4.406  15.711  0.00  0.00    +0.000 A 
ATOM     23  C   UNL     1       7.051   5.651  16.227  0.00  0.00    +0.000 A 
ATOM     24  C   UNL     1       6.134   6.367  16.998  0.00  0.00    +0.000 A 
ATOM     25  F   UNL     1       6.519   7.569  17.449  0.00  0.00    +0.000 F 
ENDBRANCH   2  18
TORSDOF 2
ENDMDL
MODEL 9
REMARK VINA RESULT:      -7.4      3.141      3.885
REMARK  Name = 
REMARK  2 active torsions:
REMARK  status: ('A' for Active; 'I' for Inactive)
REMARK    1  A    between atoms: C_2  and  C_17
REMARK    2  A    between atoms: N_6  and  C_7
REMARK                            x       y       z     vdW  Elec       q    Type
REMARK                         _______ _______ _______ _____ _____    ______ ____
ROOT
ATOM      1  O   UNL     1       3.333   7.126  17.345  0.00  0.00    +0.000 OA
ATOM      2  C   UNL     1       2.836   6.560  18.312  0.00  0.00    +0.000 C 
ATOM      3  N   UNL     1       2.018   7.202  19.228  0.00  0.00    +0.000 N 
ATOM      4  C   UNL     1       1.697   8.522  19.214  0.00  0.00    +0.000 C 
ATOM      5  N   UNL     1       0.913   9.028  20.112  0.00  0.00    +0.000 NA
ATOM      6  N   UNL     1       0.755  10.348  19.789  0.00  0.00    +0.000 N 
ATOM      7  C   UNL     1       1.580  10.760  18.658  0.00  0.00    +0.000 C 
ATOM      8  C   UNL     1       2.226   9.475  18.191  0.00  0.00    +0.000 C 
ATOM      9  H   UNL     1       1.619   6.683  20.004  0.00  0.00    +0.000 HD
ENDROOT
BRANCH   6  10
ATOM     10  C   UNL     1       0.259  11.271  20.713  0.00  0.00    +0.000 A 
ATOM     11  C   UNL     1      -0.551  10.864  21.785  0.00  0.00    +0.000 A 
ATOM     12  C   UNL     1      -1.022  11.774  22.737  0.00  0.00    +0.000 A 
ATOM     13  C   UNL     1      -0.706  13.128  22.626  0.00  0.00    +0.000 A 
ATOM     14 CL   UNL     1      -1.295  14.200  23.846  0.00  0.00    +0.000 Cl
ATOM     15  C   UNL     1       0.066  13.565  21.551  0.00  0.00    +0.000 A 
ATOM     16 CL   UNL     1       0.483  15.229  21.323  0.00  0.00    +0.000 Cl
ATOM     17  C   UNL     1       0.537  12.644  20.607  0.00  0.00    +0.000 A 
ENDBRANCH   6  10
BRANCH   2  18
ATOM     18  C   UNL     1       3.132   5.122  18.531  0.00  0.00    +0.000 A 
ATOM     19  C   UNL     1       4.290   4.683  19.170  0.00  0.00    +0.000 A 
ATOM     20  F   UNL     1       5.152   5.559  19.708  0.00  0.00    +0.000 F 
ATOM     21  C   UNL     1       4.596   3.323  19.259  0.00  0.00    +0.000 A 
ATOM     22  C   UNL     1       3.732   2.376  18.710  0.00  0.00    +0.000 A 
ATOM     23  C   UNL     1       2.554   2.796  18.099  0.00  0.00    +0.000 A 
ATOM     24  C   UNL     1       2.259   4.157  18.015  0.00  0.00    +0.000 A 
ATOM     25  F   UNL     1       1.100   4.499  17.434  0.00  0.00    +0.000 F 
ENDBRANCH   2  18
TORSDOF 2
ENDMDL
