MODEL 1
REMARK VINA RESULT:      -8.8      0.000      0.000
REMARK  Name = 
REMARK  8 active torsions:
REMARK  status: ('A' for Active; 'I' for Inactive)
REMARK    1  A    between atoms: C_1  and  C_2
REMARK    2  A    between atoms: C_2  and  C_3
REMARK    3  A    between atoms: C_2  and  C_4
REMARK    4  A    between atoms: C_2  and  C_5
REMARK    5  A    between atoms: C_9  and  N_10
REMARK    6  A    between atoms: C_11  and  C_13
REMARK    7  A    between atoms: C_13  and  C_14
REMARK    8  A    between atoms: C_16  and  N_17
REMARK                            x       y       z     vdW  Elec       q    Type
REMARK                         _______ _______ _______ _____ _____    ______ ____
ROOT
ATOM      1  C   UNL     1       8.084   6.837  18.632  0.00  0.00    +0.000 C 
ENDROOT
BRANCH   1   2
ATOM      2  C   UNL     1       7.064   6.068  17.844  0.00  0.00    +0.000 A 
ATOM      3  N   UNL     1       6.026   5.564  18.430  0.00  0.00    +0.000 NA
ATOM      4  C   UNL     1       5.094   4.893  17.664  0.00  0.00    +0.000 A 
ATOM      5  C   UNL     1       5.230   4.802  16.329  0.00  0.00    +0.000 A 
ATOM      6  C   UNL     1       6.400   5.384  15.667  0.00  0.00    +0.000 A 
ATOM      7  O   UNL     1       6.549   5.332  14.453  0.00  0.00    +0.000 OA
ATOM      8  N   UNL     1       7.290   5.976  16.500  0.00  0.00    +0.000 N 
ATOM      9  H   UNL     1       8.103   6.380  16.058  0.00  0.00    +0.000 HD
BRANCH   4  10
ATOM     10  N   UNL     1       3.981   4.312  18.272  0.00  0.00    +0.000 N 
ATOM     11  C   UNL     1       3.846   2.856  18.473  0.00  0.00    +0.000 C 
ATOM     12  C   UNL     1       2.672   2.303  17.655  0.00  0.00    +0.000 C 
ATOM     13  O   UNL     1       1.448   3.002  17.940  0.00  0.00    +0.000 OA
ATOM     14  C   UNL     1       1.596   4.400  17.652  0.00  0.00    +0.000 C 
ATOM     15  C   UNL     1       2.713   5.033  18.495  0.00  0.00    +0.000 C 
ENDBRANCH   4  10
ENDBRANCH   1   2
BRANCH   1  17
ATOM     16  N   UNL     1       9.083   9.031  19.123  0.00  0.00    +0.000 N 
ATOM     17  C   UNL     1       8.251   8.300  18.294  0.00  0.00    +0.000 C 
ATOM     18  O   UNL     1       7.615   8.753  17.340  0.00  0.00    +0.000 OA
ATOM     19  H   UNL     1       9.638   8.503  19.796  0.00  0.00    +0.000 HD
BRANCH  16  24
ATOM     20  C   UNL     1       9.288  12.606  20.199  0.00  0.00    +0.000 A 
ATOM     21  C   UNL     1       9.779  13.196  19.027  0.00  0.00    +0.000 A 
ATOM     22  C   UNL     1      10.018  12.429  17.885  0.00  0.00    +0.000 A 
ATOM     23  C   UNL     1       9.787  11.055  17.895  0.00  0.00    +0.000 A 
ATOM     24  C   UNL     1       9.324  10.423  19.045  0.00  0.00    +0.000 A 
ATOM     25  C   UNL     1       9.066  11.206  20.181  0.00  0.00    +0.000 A 
BRANCH  20  27
ATOM     26  C   UNL     1       8.893  12.582  22.765  0.00  0.00    +0.000 C 
ATOM     27  C   UNL     1       8.997  13.425  21.470  0.00  0.00    +0.000 C 
ATOM     28  C   UNL     1       7.655  14.169  21.304  0.00  0.00    +0.000 C 
ATOM     29  C   UNL     1      10.130  14.449  21.695  0.00  0.00    +0.000 C 
ENDBRANCH  20  27
ENDBRANCH  16  24
ENDBRANCH   1  17
TORSDOF 5
ENDMDL
MODEL 2
REMARK VINA RESULT:      -8.8      0.637      1.277
REMARK  Name = 
REMARK  8 active torsions:
REMARK  status: ('A' for Active; 'I' for Inactive)
REMARK    1  A    between atoms: C_1  and  C_2
REMARK    2  A    between atoms: C_2  and  C_3
REMARK    3  A    between atoms: C_2  and  C_4
REMARK    4  A    between atoms: C_2  and  C_5
REMARK    5  A    between atoms: C_9  and  N_10
REMARK    6  A    between atoms: C_11  and  C_13
REMARK    7  A    between atoms: C_13  and  C_14
REMARK    8  A    between atoms: C_16  and  N_17
REMARK                            x       y       z     vdW  Elec       q    Type
REMARK                         _______ _______ _______ _____ _____    ______ ____
ROOT
ATOM      1  C   UNL     1       8.020   6.685  18.650  0.00  0.00    +0.000 C 
ENDROOT
BRANCH   1   2
ATOM      2  C   UNL     1       7.124   5.870  17.763  0.00  0.00    +0.000 A 
ATOM      3  N   UNL     1       6.115   5.230  18.261  0.00  0.00    +0.000 NA
ATOM      4  C   UNL     1       5.297   4.520  17.406  0.00  0.00    +0.000 A 
ATOM      5  C   UNL     1       5.509   4.526  16.078  0.00  0.00    +0.000 A 
ATOM      6  C   UNL     1       6.646   5.259  15.517  0.00  0.00    +0.000 A 
ATOM      7  O   UNL     1       6.861   5.297  14.313  0.00  0.00    +0.000 OA
ATOM      8  N   UNL     1       7.428   5.884  16.432  0.00  0.00    +0.000 N 
ATOM      9  H   UNL     1       8.217   6.393  16.060  0.00  0.00    +0.000 HD
BRANCH   4  10
ATOM     10  N   UNL     1       4.219   3.795  17.916  0.00  0.00    +0.000 N 
ATOM     11  C   UNL     1       2.942   3.643  17.194  0.00  0.00    +0.000 C 
ATOM     12  C   UNL     1       1.800   4.321  17.962  0.00  0.00    +0.000 C 
ATOM     13  O   UNL     1       1.712   3.846  19.316  0.00  0.00    +0.000 OA
ATOM     14  C   UNL     1       2.946   4.089  20.008  0.00  0.00    +0.000 C 
ATOM     15  C   UNL     1       4.124   3.375  19.328  0.00  0.00    +0.000 C 
ENDBRANCH   4  10
ENDBRANCH   1   2
BRANCH   1  17
ATOM     16  N   UNL     1       9.020   8.884  19.120  0.00  0.00    +0.000 N 
ATOM     17  C   UNL     1       8.204   8.141  18.287  0.00  0.00    +0.000 C 
ATOM     18  O   UNL     1       7.592   8.578  17.309  0.00  0.00    +0.000 OA
ATOM     19  H   UNL     1       9.556   8.366  19.817  0.00  0.00    +0.000 HD
BRANCH  16  24
ATOM     20  C   UNL     1       9.258  12.473  20.142  0.00  0.00    +0.000 A 
ATOM     21  C   UNL     1       9.748  13.041  18.958  0.00  0.00    +0.000 A 
ATOM     22  C   UNL     1       9.973  12.256  17.826  0.00  0.00    +0.000 A 
ATOM     23  C   UNL     1       9.733  10.883  17.858  0.00  0.00    +0.000 A 
ATOM     24  C   UNL     1       9.271  10.272  19.021  0.00  0.00    +0.000 A 
ATOM     25  C   UNL     1       9.025  11.075  20.146  0.00  0.00    +0.000 A 
BRANCH  20  27
ATOM     26  C   UNL     1       7.662  14.122  21.353  0.00  0.00    +0.000 C 
ATOM     27  C   UNL     1       8.980  13.313  21.402  0.00  0.00    +0.000 C 
ATOM     28  C   UNL     1      10.127  14.325  21.606  0.00  0.00    +0.000 C 
ATOM     29  C   UNL     1       8.887  12.384  22.631  0.00  0.00    +0.000 C 
ENDBRANCH  20  27
ENDBRANCH  16  24
ENDBRANCH   1  17
TORSDOF 5
ENDMDL
MODEL 3
REMARK VINA RESULT:      -8.4      1.611      2.055
REMARK  Name = 
REMARK  8 active torsions:
REMARK  status: ('A' for Active; 'I' for Inactive)
REMARK    1  A    between atoms: C_1  and  C_2
REMARK    2  A    between atoms: C_2  and  C_3
REMARK    3  A    between atoms: C_2  and  C_4
REMARK    4  A    between atoms: C_2  and  C_5
REMARK    5  A    between atoms: C_9  and  N_10
REMARK    6  A    between atoms: C_11  and  C_13
REMARK    7  A    between atoms: C_13  and  C_14
REMARK    8  A    between atoms: C_16  and  N_17
REMARK                            x       y       z     vdW  Elec       q    Type
REMARK                         _______ _______ _______ _____ _____    ______ ____
ROOT
ATOM      1  C   UNL     1       7.841   6.345  18.623  0.00  0.00    +0.000 C 
ENDROOT
BRANCH   1   2
ATOM      2  C   UNL     1       6.669   5.500  18.215  0.00  0.00    +0.000 A 
ATOM      3  N   UNL     1       5.788   5.134  19.090  0.00  0.00    +0.000 NA
ATOM      4  C   UNL     1       4.708   4.385  18.667  0.00  0.00    +0.000 A 
ATOM      5  C   UNL     1       4.542   4.080  17.369  0.00  0.00    +0.000 A 
ATOM      6  C   UNL     1       5.535   4.505  16.379  0.00  0.00    +0.000 A 
ATOM      7  O   UNL     1       5.409   4.256  15.187  0.00  0.00    +0.000 OA
ATOM      8  N   UNL     1       6.590   5.188  16.887  0.00  0.00    +0.000 N 
ATOM      9  H   UNL     1       7.284   5.486  16.217  0.00  0.00    +0.000 HD
BRANCH   4  10
ATOM     10  N   UNL     1       3.759   3.950  19.592  0.00  0.00    +0.000 N 
ATOM     11  C   UNL     1       3.389   2.531  19.753  0.00  0.00    +0.000 C 
ATOM     12  C   UNL     1       1.922   2.305  19.365  0.00  0.00    +0.000 C 
ATOM     13  O   UNL     1       1.038   3.178  20.089  0.00  0.00    +0.000 OA
ATOM     14  C   UNL     1       1.379   4.549  19.839  0.00  0.00    +0.000 C 
ATOM     15  C   UNL     1       2.819   4.860  20.275  0.00  0.00    +0.000 C 
ENDBRANCH   4  10
ENDBRANCH   1   2
BRANCH   1  17
ATOM     16  N   UNL     1       8.615   8.676  18.765  0.00  0.00    +0.000 N 
ATOM     17  C   UNL     1       7.928   7.730  18.026  0.00  0.00    +0.000 C 
ATOM     18  O   UNL     1       7.356   7.938  16.953  0.00  0.00    +0.000 OA
ATOM     19  H   UNL     1       9.139   8.335  19.571  0.00  0.00    +0.000 HD
BRANCH  16  24
ATOM     20  C   UNL     1      10.074  12.119  18.699  0.00  0.00    +0.000 A 
ATOM     21  C   UNL     1       9.155  12.767  17.861  0.00  0.00    +0.000 A 
ATOM     22  C   UNL     1       8.053  12.085  17.344  0.00  0.00    +0.000 A 
ATOM     23  C   UNL     1       7.853  10.737  17.636  0.00  0.00    +0.000 A 
ATOM     24  C   UNL     1       8.754  10.046  18.443  0.00  0.00    +0.000 A 
ATOM     25  C   UNL     1       9.847  10.747  18.976  0.00  0.00    +0.000 A 
BRANCH  20  27
ATOM     26  C   UNL     1      10.961  13.734  20.526  0.00  0.00    +0.000 C 
ATOM     27  C   UNL     1      11.290  12.846  19.301  0.00  0.00    +0.000 C 
ATOM     28  C   UNL     1      11.921  13.761  18.232  0.00  0.00    +0.000 C 
ATOM     29  C   UNL     1      12.330  11.807  19.771  0.00  0.00    +0.000 C 
ENDBRANCH  20  27
ENDBRANCH  16  24
ENDBRANCH   1  17
TORSDOF 5
ENDMDL
MODEL 4
REMARK VINA RESULT:      -8.3      5.108      8.237
REMARK  Name = 
REMARK  8 active torsions:
REMARK  status: ('A' for Active; 'I' for Inactive)
REMARK    1  A    between atoms: C_1  and  C_2
REMARK    2  A    between atoms: C_2  and  C_3
REMARK    3  A    between atoms: C_2  and  C_4
REMARK    4  A    between atoms: C_2  and  C_5
REMARK    5  A    between atoms: C_9  and  N_10
REMARK    6  A    between atoms: C_11  and  C_13
REMARK    7  A    between atoms: C_13  and  C_14
REMARK    8  A    between atoms: C_16  and  N_17
REMARK                            x       y       z     vdW  Elec       q    Type
REMARK                         _______ _______ _______ _____ _____    ______ ____
ROOT
ATOM      1  C   UNL     1       2.630   7.329  19.424  0.00  0.00    +0.000 C 
ENDROOT
BRANCH   1   2
ATOM      2  C   UNL     1       2.867   6.075  18.634  0.00  0.00    +0.000 A 
ATOM      3  N   UNL     1       4.033   5.826  18.131  0.00  0.00    +0.000 NA
ATOM      4  C   UNL     1       4.217   4.645  17.441  0.00  0.00    +0.000 A 
ATOM      5  C   UNL     1       3.225   3.745  17.330  0.00  0.00    +0.000 A 
ATOM      6  C   UNL     1       1.910   4.024  17.910  0.00  0.00    +0.000 A 
ATOM      7  O   UNL     1       0.988   3.221  17.840  0.00  0.00    +0.000 OA
ATOM      8  N   UNL     1       1.801   5.228  18.523  0.00  0.00    +0.000 N 
ATOM      9  H   UNL     1       0.898   5.435  18.926  0.00  0.00    +0.000 HD
BRANCH   4  10
ATOM     10  N   UNL     1       5.455   4.365  16.860  0.00  0.00    +0.000 N 
ATOM     11  C   UNL     1       6.736   4.778  17.464  0.00  0.00    +0.000 C 
ATOM     12  C   UNL     1       7.458   5.789  16.565  0.00  0.00    +0.000 C 
ATOM     13  O   UNL     1       7.630   5.288  15.229  0.00  0.00    +0.000 OA
ATOM     14  C   UNL     1       6.355   4.977  14.647  0.00  0.00    +0.000 C 
ATOM     15  C   UNL     1       5.608   3.912  15.464  0.00  0.00    +0.000 C 
ENDBRANCH   4  10
ENDBRANCH   1   2
BRANCH   1  17
ATOM     16  N   UNL     1       1.136   9.284  19.462  0.00  0.00    +0.000 N 
ATOM     17  C   UNL     1       1.965   8.478  18.703  0.00  0.00    +0.000 C 
ATOM     18  O   UNL     1       2.169   8.601  17.492  0.00  0.00    +0.000 OA
ATOM     19  H   UNL     1       1.157   9.139  20.472  0.00  0.00    +0.000 HD
BRANCH  16  24
ATOM     20  C   UNL     1      -1.706  11.083  17.829  0.00  0.00    +0.000 A 
ATOM     21  C   UNL     1      -1.301  12.412  18.007  0.00  0.00    +0.000 A 
ATOM     22  C   UNL     1      -0.092  12.714  18.636  0.00  0.00    +0.000 A 
ATOM     23  C   UNL     1       0.730  11.695  19.117  0.00  0.00    +0.000 A 
ATOM     24  C   UNL     1       0.354  10.361  18.985  0.00  0.00    +0.000 A 
ATOM     25  C   UNL     1      -0.853  10.068  18.330  0.00  0.00    +0.000 A 
BRANCH  20  27
ATOM     26  C   UNL     1      -4.171  11.732  17.338  0.00  0.00    +0.000 C 
ATOM     27  C   UNL     1      -3.024  10.714  17.122  0.00  0.00    +0.000 C 
ATOM     28  C   UNL     1      -3.522   9.351  17.646  0.00  0.00    +0.000 C 
ATOM     29  C   UNL     1      -2.787  10.628  15.600  0.00  0.00    +0.000 C 
ENDBRANCH  20  27
ENDBRANCH  16  24
ENDBRANCH   1  17
TORSDOF 5
ENDMDL
MODEL 5
REMARK VINA RESULT:      -8.2      1.338      2.434
REMARK  Name = 
REMARK  8 active torsions:
REMARK  status: ('A' for Active; 'I' for Inactive)
REMARK    1  A    between atoms: C_1  and  C_2
REMARK    2  A    between atoms: C_2  and  C_3
REMARK    3  A    between atoms: C_2  and  C_4
REMARK    4  A    between atoms: C_2  and  C_5
REMARK    5  A    between atoms: C_9  and  N_10
REMARK    6  A    between atoms: C_11  and  C_13
REMARK    7  A    between atoms: C_13  and  C_14
REMARK    8  A    between atoms: C_16  and  N_17
REMARK                            x       y       z     vdW  Elec       q    Type
REMARK                         _______ _______ _______ _____ _____    ______ ____
ROOT
ATOM      1  C   UNL     1       8.326   7.326  18.316  0.00  0.00    +0.000 C 
ENDROOT
BRANCH   1   2
ATOM      2  C   UNL     1       7.004   6.750  17.899  0.00  0.00    +0.000 A 
ATOM      3  N   UNL     1       6.310   6.038  18.726  0.00  0.00    +0.000 NA
ATOM      4  C   UNL     1       5.083   5.555  18.315  0.00  0.00    +0.000 A 
ATOM      5  C   UNL     1       4.592   5.855  17.100  0.00  0.00    +0.000 A 
ATOM      6  C   UNL     1       5.376   6.672  16.170  0.00  0.00    +0.000 A 
ATOM      7  O   UNL     1       4.955   6.975  15.062  0.00  0.00    +0.000 OA
ATOM      8  N   UNL     1       6.590   7.057  16.634  0.00  0.00    +0.000 N 
ATOM      9  H   UNL     1       7.143   7.620  16.003  0.00  0.00    +0.000 HD
BRANCH   4  10
ATOM     10  N   UNL     1       4.325   4.758  19.174  0.00  0.00    +0.000 N 
ATOM     11  C   UNL     1       4.590   3.321  19.375  0.00  0.00    +0.000 C 
ATOM     12  C   UNL     1       3.413   2.477  18.869  0.00  0.00    +0.000 C 
ATOM     13  O   UNL     1       2.169   2.884  19.466  0.00  0.00    +0.000 OA
ATOM     14  C   UNL     1       1.909   4.266  19.176  0.00  0.00    +0.000 C 
ATOM     15  C   UNL     1       3.020   5.175  19.722  0.00  0.00    +0.000 C 
ENDBRANCH   4  10
ENDBRANCH   1   2
BRANCH   1  17
ATOM     16  N   UNL     1       9.287   9.307  19.415  0.00  0.00    +0.000 N 
ATOM     17  C   UNL     1       8.405   8.828  18.464  0.00  0.00    +0.000 C 
ATOM     18  O   UNL     1       7.661   9.520  17.765  0.00  0.00    +0.000 OA
ATOM     19  H   UNL     1       9.925   8.628  19.831  0.00  0.00    +0.000 HD
BRANCH  16  24
ATOM     20  C   UNL     1      10.313  12.892  19.137  0.00  0.00    +0.000 A 
ATOM     21  C   UNL     1       9.866  13.380  20.372  0.00  0.00    +0.000 A 
ATOM     22  C   UNL     1       9.256  12.532  21.298  0.00  0.00    +0.000 A 
ATOM     23  C   UNL     1       9.062  11.184  21.004  0.00  0.00    +0.000 A 
ATOM     24  C   UNL     1       9.467  10.662  19.779  0.00  0.00    +0.000 A 
ATOM     25  C   UNL     1      10.101  11.517  18.864  0.00  0.00    +0.000 A 
BRANCH  20  27
ATOM     26  C   UNL     1      11.389  13.078  16.782  0.00  0.00    +0.000 C 
ATOM     27  C   UNL     1      11.008  13.794  18.100  0.00  0.00    +0.000 C 
ATOM     28  C   UNL     1      12.310  14.358  18.704  0.00  0.00    +0.000 C 
ATOM     29  C   UNL     1      10.069  14.958  17.719  0.00  0.00    +0.000 C 
ENDBRANCH  20  27
ENDBRANCH  16  24
ENDBRANCH   1  17
TORSDOF 5
ENDMDL
MODEL 6
REMARK VINA RESULT:      -8.1      6.767     11.019
REMARK  Name = 
REMARK  8 active torsions:
REMARK  status: ('A' for Active; 'I' for Inactive)
REMARK    1  A    between atoms: C_1  and  C_2
REMARK    2  A    between atoms: C_2  and  C_3
REMARK    3  A    between atoms: C_2  and  C_4
REMARK    4  A    between atoms: C_2  and  C_5
REMARK    5  A    between atoms: C_9  and  N_10
REMARK    6  A    between atoms: C_11  and  C_13
REMARK    7  A    between atoms: C_13  and  C_14
REMARK    8  A    between atoms: C_16  and  N_17
REMARK                            x       y       z     vdW  Elec       q    Type
REMARK                         _______ _______ _______ _____ _____    ______ ____
ROOT
ATOM      1  C   UNL     1       0.262   9.447  23.046  0.00  0.00    +0.000 C 
ENDROOT
BRANCH   1   2
ATOM      2  C   UNL     1      -0.446  10.742  22.773  0.00  0.00    +0.000 A 
ATOM      3  N   UNL     1       0.102  11.644  22.024  0.00  0.00    +0.000 NA
ATOM      4  C   UNL     1      -0.597  12.807  21.771  0.00  0.00    +0.000 A 
ATOM      5  C   UNL     1      -1.841  12.987  22.250  0.00  0.00    +0.000 A 
ATOM      6  C   UNL     1      -2.463  11.960  23.088  0.00  0.00    +0.000 A 
ATOM      7  O   UNL     1      -3.597  12.084  23.530  0.00  0.00    +0.000 OA
ATOM      8  N   UNL     1      -1.686  10.875  23.331  0.00  0.00    +0.000 N 
ATOM      9  H   UNL     1      -2.101  10.159  23.909  0.00  0.00    +0.000 HD
BRANCH   4  10
ATOM     10  N   UNL     1      -0.020  13.811  20.993  0.00  0.00    +0.000 N 
ATOM     11  C   UNL     1      -0.711  14.436  19.849  0.00  0.00    +0.000 C 
ATOM     12  C   UNL     1       0.022  14.124  18.537  0.00  0.00    +0.000 C 
ATOM     13  O   UNL     1       1.408  14.499  18.599  0.00  0.00    +0.000 OA
ATOM     14  C   UNL     1       2.063  13.806  19.672  0.00  0.00    +0.000 C 
ATOM     15  C   UNL     1       1.421  14.133  21.028  0.00  0.00    +0.000 C 
ENDBRANCH   4  10
ENDBRANCH   1   2
BRANCH   1  17
ATOM     16  N   UNL     1       1.565   8.076  21.471  0.00  0.00    +0.000 N 
ATOM     17  C   UNL     1       0.308   8.441  21.919  0.00  0.00    +0.000 C 
ATOM     18  O   UNL     1      -0.761   8.044  21.450  0.00  0.00    +0.000 OA
ATOM     19  H   UNL     1       2.358   8.389  22.031  0.00  0.00    +0.000 HD
BRANCH  16  24
ATOM     20  C   UNL     1       2.008   4.896  19.555  0.00  0.00    +0.000 A 
ATOM     21  C   UNL     1       2.360   5.405  18.298  0.00  0.00    +0.000 A 
ATOM     22  C   UNL     1       2.475   6.780  18.088  0.00  0.00    +0.000 A 
ATOM     23  C   UNL     1       2.224   7.677  19.125  0.00  0.00    +0.000 A 
ATOM     24  C   UNL     1       1.846   7.217  20.384  0.00  0.00    +0.000 A 
ATOM     25  C   UNL     1       1.756   5.832  20.590  0.00  0.00    +0.000 A 
BRANCH  20  27
ATOM     26  C   UNL     1       0.868   2.651  18.924  0.00  0.00    +0.000 C 
ATOM     27  C   UNL     1       1.890   3.384  19.826  0.00  0.00    +0.000 C 
ATOM     28  C   UNL     1       1.451   3.158  21.287  0.00  0.00    +0.000 C 
ATOM     29  C   UNL     1       3.258   2.710  19.587  0.00  0.00    +0.000 C 
ENDBRANCH  20  27
ENDBRANCH  16  24
ENDBRANCH   1  17
TORSDOF 5
ENDMDL
MODEL 7
REMARK VINA RESULT:      -8.0      5.008      8.168
REMARK  Name = 
REMARK  8 active torsions:
REMARK  status: ('A' for Active; 'I' for Inactive)
REMARK    1  A    between atoms: C_1  and  C_2
REMARK    2  A    between atoms: C_2  and  C_3
REMARK    3  A    between atoms: C_2  and  C_4
REMARK    4  A    between atoms: C_2  and  C_5
REMARK    5  A    between atoms: C_9  and  N_10
REMARK    6  A    between atoms: C_11  and  C_13
REMARK    7  A    between atoms: C_13  and  C_14
REMARK    8  A    between atoms: C_16  and  N_17
REMARK                            x       y       z     vdW  Elec       q    Type
REMARK                         _______ _______ _______ _____ _____    ______ ____
ROOT
ATOM      1  C   UNL     1       2.169   7.016  20.619  0.00  0.00    +0.000 C 
ENDROOT
BRANCH   1   2
ATOM      2  C   UNL     1       2.469   6.151  19.430  0.00  0.00    +0.000 A 
ATOM      3  N   UNL     1       3.490   6.403  18.676  0.00  0.00    +0.000 NA
ATOM      4  C   UNL     1       3.750   5.562  17.613  0.00  0.00    +0.000 A 
ATOM      5  C   UNL     1       2.991   4.476  17.386  0.00  0.00    +0.000 A 
ATOM      6  C   UNL     1       1.842   4.187  18.247  0.00  0.00    +0.000 A 
ATOM      7  O   UNL     1       1.138   3.200  18.079  0.00  0.00    +0.000 OA
ATOM      8  N   UNL     1       1.628   5.092  19.234  0.00  0.00    +0.000 N 
ATOM      9  H   UNL     1       0.838   4.907  19.835  0.00  0.00    +0.000 HD
BRANCH   4  10
ATOM     10  N   UNL     1       4.826   5.826  16.764  0.00  0.00    +0.000 N 
ATOM     11  C   UNL     1       5.242   4.906  15.688  0.00  0.00    +0.000 C 
ATOM     12  C   UNL     1       6.646   4.352  15.963  0.00  0.00    +0.000 C 
ATOM     13  O   UNL     1       7.604   5.403  16.172  0.00  0.00    +0.000 OA
ATOM     14  C   UNL     1       7.204   6.225  17.280  0.00  0.00    +0.000 C 
ATOM     15  C   UNL     1       5.832   6.871  17.035  0.00  0.00    +0.000 C 
ENDBRANCH   4  10
ENDBRANCH   1   2
BRANCH   1  17
ATOM     16  N   UNL     1       1.418   8.953  19.301  0.00  0.00    +0.000 N 
ATOM     17  C   UNL     1       1.201   8.157  20.411  0.00  0.00    +0.000 C 
ATOM     18  O   UNL     1       0.315   8.329  21.252  0.00  0.00    +0.000 OA
ATOM     19  H   UNL     1       2.110   8.622  18.629  0.00  0.00    +0.000 HD
BRANCH  16  24
ATOM     20  C   UNL     1      -1.394  11.065  18.029  0.00  0.00    +0.000 A 
ATOM     21  C   UNL     1      -0.864  12.345  18.238  0.00  0.00    +0.000 A 
ATOM     22  C   UNL     1       0.416  12.512  18.769  0.00  0.00    +0.000 A 
ATOM     23  C   UNL     1       1.187  11.405  19.120  0.00  0.00    +0.000 A 
ATOM     24  C   UNL     1       0.691  10.115  18.953  0.00  0.00    +0.000 A 
ATOM     25  C   UNL     1      -0.588   9.958  18.397  0.00  0.00    +0.000 A 
BRANCH  20  27
ATOM     26  C   UNL     1      -3.361   9.418  17.632  0.00  0.00    +0.000 C 
ATOM     27  C   UNL     1      -2.794  10.844  17.427  0.00  0.00    +0.000 C 
ATOM     28  C   UNL     1      -2.744  11.100  15.907  0.00  0.00    +0.000 C 
ATOM     29  C   UNL     1      -3.796  11.819  18.083  0.00  0.00    +0.000 C 
ENDBRANCH  20  27
ENDBRANCH  16  24
ENDBRANCH   1  17
TORSDOF 5
ENDMDL
MODEL 8
REMARK VINA RESULT:      -8.0      6.865     10.309
REMARK  Name = 
REMARK  8 active torsions:
REMARK  status: ('A' for Active; 'I' for Inactive)
REMARK    1  A    between atoms: C_1  and  C_2
REMARK    2  A    between atoms: C_2  and  C_3
REMARK    3  A    between atoms: C_2  and  C_4
REMARK    4  A    between atoms: C_2  and  C_5
REMARK    5  A    between atoms: C_9  and  N_10
REMARK    6  A    between atoms: C_11  and  C_13
REMARK    7  A    between atoms: C_13  and  C_14
REMARK    8  A    between atoms: C_16  and  N_17
REMARK                            x       y       z     vdW  Elec       q    Type
REMARK                         _______ _______ _______ _____ _____    ______ ____
ROOT
ATOM      1  C   UNL     1       1.061  10.166  19.283  0.00  0.00    +0.000 C 
ENDROOT
BRANCH   1   2
ATOM      2  C   UNL     1      -0.328  10.582  18.896  0.00  0.00    +0.000 A 
ATOM      3  N   UNL     1      -1.015  11.366  19.663  0.00  0.00    +0.000 NA
ATOM      4  C   UNL     1      -2.276  11.752  19.254  0.00  0.00    +0.000 A 
ATOM      5  C   UNL     1      -2.767  11.366  18.064  0.00  0.00    +0.000 A 
ATOM      6  C   UNL     1      -1.982  10.488  17.193  0.00  0.00    +0.000 A 
ATOM      7  O   UNL     1      -2.393  10.128  16.098  0.00  0.00    +0.000 OA
ATOM      8  N   UNL     1      -0.780  10.114  17.696  0.00  0.00    +0.000 N 
ATOM      9  H   UNL     1      -0.228   9.507  17.107  0.00  0.00    +0.000 HD
BRANCH   4  10
ATOM     10  N   UNL     1      -3.053  12.571  20.074  0.00  0.00    +0.000 N 
ATOM     11  C   UNL     1      -2.616  13.012  21.412  0.00  0.00    +0.000 C 
ATOM     12  C   UNL     1      -3.532  12.435  22.500  0.00  0.00    +0.000 C 
ATOM     13  O   UNL     1      -4.913  12.749  22.254  0.00  0.00    +0.000 OA
ATOM     14  C   UNL     1      -5.321  12.230  20.979  0.00  0.00    +0.000 C 
ATOM     15  C   UNL     1      -4.487  12.826  19.836  0.00  0.00    +0.000 C 
ENDBRANCH   4  10
ENDBRANCH   1   2
BRANCH   1  17
ATOM     16  N   UNL     1       2.028   7.907  19.143  0.00  0.00    +0.000 N 
ATOM     17  C   UNL     1       1.701   9.068  18.465  0.00  0.00    +0.000 C 
ATOM     18  O   UNL     1       1.925   9.287  17.272  0.00  0.00    +0.000 OA
ATOM     19  H   UNL     1       1.674   7.819  20.095  0.00  0.00    +0.000 HD
BRANCH  16  24
ATOM     20  C   UNL     1       2.931   4.328  18.541  0.00  0.00    +0.000 A 
ATOM     21  C   UNL     1       3.947   4.480  17.588  0.00  0.00    +0.000 A 
ATOM     22  C   UNL     1       4.349   5.749  17.166  0.00  0.00    +0.000 A 
ATOM     23  C   UNL     1       3.732   6.892  17.673  0.00  0.00    +0.000 A 
ATOM     24  C   UNL     1       2.701   6.787  18.602  0.00  0.00    +0.000 A 
ATOM     25  C   UNL     1       2.320   5.508  19.037  0.00  0.00    +0.000 A 
BRANCH  20  27
ATOM     26  C   UNL     1       3.301   1.760  18.486  0.00  0.00    +0.000 C 
ATOM     27  C   UNL     1       2.476   2.945  19.043  0.00  0.00    +0.000 C 
ATOM     28  C   UNL     1       1.008   2.709  18.633  0.00  0.00    +0.000 C 
ATOM     29  C   UNL     1       2.598   2.889  20.581  0.00  0.00    +0.000 C 
ENDBRANCH  20  27
ENDBRANCH  16  24
ENDBRANCH   1  17
TORSDOF 5
ENDMDL
MODEL 9
REMARK VINA RESULT:      -7.9      5.007      8.181
REMARK  Name = 
REMARK  8 active torsions:
REMARK  status: ('A' for Active; 'I' for Inactive)
REMARK    1  A    between atoms: C_1  and  C_2
REMARK    2  A    between atoms: C_2  and  C_3
REMARK    3  A    between atoms: C_2  and  C_4
REMARK    4  A    between atoms: C_2  and  C_5
REMARK    5  A    between atoms: C_9  and  N_10
REMARK    6  A    between atoms: C_11  and  C_13
REMARK    7  A    between atoms: C_13  and  C_14
REMARK    8  A    between atoms: C_16  and  N_17
REMARK                            x       y       z     vdW  Elec       q    Type
REMARK                         _______ _______ _______ _____ _____    ______ ____
ROOT
ATOM      1  C   UNL     1       2.070   7.010  20.778  0.00  0.00    +0.000 C 
ENDROOT
BRANCH   1   2
ATOM      2  C   UNL     1       2.496   6.222  19.574  0.00  0.00    +0.000 A 
ATOM      3  N   UNL     1       3.630   6.464  19.000  0.00  0.00    +0.000 NA
ATOM      4  C   UNL     1       4.000   5.693  17.916  0.00  0.00    +0.000 A 
ATOM      5  C   UNL     1       3.226   4.680  17.489  0.00  0.00    +0.000 A 
ATOM      6  C   UNL     1       1.948   4.401  18.148  0.00  0.00    +0.000 A 
ATOM      7  O   UNL     1       1.225   3.480  17.795  0.00  0.00    +0.000 OA
ATOM      8  N   UNL     1       1.638   5.240  19.167  0.00  0.00    +0.000 N 
ATOM      9  H   UNL     1       0.759   5.061  19.630  0.00  0.00    +0.000 HD
BRANCH   4  10
ATOM     10  N   UNL     1       5.203   5.950  17.257  0.00  0.00    +0.000 N 
ATOM     11  C   UNL     1       5.303   6.075  15.791  0.00  0.00    +0.000 C 
ATOM     12  C   UNL     1       6.166   4.947  15.208  0.00  0.00    +0.000 C 
ATOM     13  O   UNL     1       7.459   4.888  15.833  0.00  0.00    +0.000 OA
ATOM     14  C   UNL     1       7.319   4.683  17.247  0.00  0.00    +0.000 C 
ATOM     15  C   UNL     1       6.523   5.820  17.905  0.00  0.00    +0.000 C 
ENDBRANCH   4  10
ENDBRANCH   1   2
BRANCH   1  17
ATOM     16  N   UNL     1       1.363   8.922  19.398  0.00  0.00    +0.000 N 
ATOM     17  C   UNL     1       1.136   8.174  20.540  0.00  0.00    +0.000 C 
ATOM     18  O   UNL     1       0.268   8.406  21.385  0.00  0.00    +0.000 OA
ATOM     19  H   UNL     1       2.034   8.544  18.730  0.00  0.00    +0.000 HD
BRANCH  16  24
ATOM     20  C   UNL     1      -1.369  11.073  18.023  0.00  0.00    +0.000 A 
ATOM     21  C   UNL     1      -0.820  12.345  18.234  0.00  0.00    +0.000 A 
ATOM     22  C   UNL     1       0.447  12.493  18.801  0.00  0.00    +0.000 A 
ATOM     23  C   UNL     1       1.186  11.376  19.185  0.00  0.00    +0.000 A 
ATOM     24  C   UNL     1       0.669  10.094  19.017  0.00  0.00    +0.000 A 
ATOM     25  C   UNL     1      -0.596   9.955  18.426  0.00  0.00    +0.000 A 
BRANCH  20  27
ATOM     26  C   UNL     1      -2.789  11.086  15.850  0.00  0.00    +0.000 C 
ATOM     27  C   UNL     1      -2.755  10.873  17.383  0.00  0.00    +0.000 C 
ATOM     28  C   UNL     1      -3.753  11.873  18.002  0.00  0.00    +0.000 C 
ATOM     29  C   UNL     1      -3.240   9.431  17.643  0.00  0.00    +0.000 C 
ENDBRANCH  20  27
ENDBRANCH  16  24
ENDBRANCH   1  17
TORSDOF 5
ENDMDL
