MODEL 1
REMARK VINA RESULT:      -6.1      0.000      0.000
REMARK  Name = 
REMARK  12 active torsions:
REMARK  status: ('A' for Active; 'I' for Inactive)
REMARK    1  A    between atoms: C_1  and  C_2
REMARK    2  A    between atoms: C_2  and  O_3
REMARK    3  A    between atoms: O_3  and  C_4
REMARK    4  A    between atoms: C_4  and  O_5
REMARK    5  A    between atoms: O_5  and  C_6
REMARK    6  A    between atoms: C_6  and  C_7
REMARK    7  A    between atoms: C_10  and  O_11
REMARK    8  A    between atoms: O_11  and  C_12
REMARK    9  A    between atoms: C_15  and  O_16
REMARK   10  A    between atoms: O_16  and  C_17
REMARK   11  A    between atoms: C_26  and  C_27
REMARK   12  A    between atoms: C_26  and  C_28
REMARK                            x       y       z     vdW  Elec       q    Type
REMARK                         _______ _______ _______ _____ _____    ______ ____
ROOT
ATOM      1  C   UNL     1      -0.400  13.593  20.011  0.00  0.00    +0.000 C 
ATOM      2  C   UNL     1      -0.768  12.094  19.535  0.00  0.00    +0.000 C 
ATOM      3  C   UNL     1      -2.270  12.001  19.283  0.00  0.00    +0.000 A 
ATOM      4  C   UNL     1      -2.875  11.597  18.095  0.00  0.00    +0.000 A 
ATOM      5  C   UNL     1      -4.256  11.732  17.989  0.00  0.00    +0.000 A 
ATOM      6  C   UNL     1      -5.012  12.237  19.065  0.00  0.00    +0.000 A 
ATOM      7  C   UNL     1      -4.411  12.582  20.280  0.00  0.00    +0.000 A 
ATOM      8  C   UNL     1      -3.034  12.455  20.392  0.00  0.00    +0.000 A 
ATOM      9  C   UNL     1      -2.192  12.808  21.620  0.00  0.00    +0.000 C 
ATOM     10  N   UNL     1      -1.301  11.598  21.826  0.00  0.00    +0.000 N 
ATOM     11  C   UNL     1      -1.215  10.949  23.009  0.00  0.00    +0.000 A 
ATOM     12  C   UNL     1      -0.374   9.849  23.130  0.00  0.00    +0.000 A 
ATOM     13  C   UNL     1       0.331   9.391  22.013  0.00  0.00    +0.000 A 
ATOM     14  C   UNL     1       0.187  10.043  20.797  0.00  0.00    +0.000 A 
ATOM     15  C   UNL     1      -0.599  11.187  20.735  0.00  0.00    +0.000 A 
ATOM     16  C   UNL     1      -1.240  14.009  21.332  0.00  0.00    +0.000 C 
ATOM     17  C   UNL     1      -2.055  15.328  21.193  0.00  0.00    +0.000 C 
ATOM     18  C   UNL     1      -0.347  14.310  22.572  0.00  0.00    +0.000 C 
ENDROOT
BRANCH   4  19
ATOM     19  O   UNL     1      -2.058  11.126  17.110  0.00  0.00    +0.000 OA
ATOM     20  C   UNL     1      -2.698  10.802  15.874  0.00  0.00    +0.000 C 
ENDBRANCH   4  19
BRANCH   7  21
ATOM     21  O   UNL     1      -5.052  13.055  21.387  0.00  0.00    +0.000 OA
ATOM     22  C   UNL     1      -6.402  12.632  21.563  0.00  0.00    +0.000 C 
ENDBRANCH   7  21
BRANCH   1  23
ATOM     23  O   UNL     1       1.027  13.756  20.296  0.00  0.00    +0.000 OA
BRANCH  23  25
ATOM     24  C   UNL     1       2.583  13.215  18.474  0.00  0.00    +0.000 C 
ATOM     25  C   UNL     1       2.017  12.851  19.834  0.00  0.00    +0.000 C 
ENDBRANCH  23  25
ENDBRANCH   1  23
BRANCH   1  26
ATOM     26  O   UNL     1      -0.632  14.572  18.973  0.00  0.00    +0.000 OA
BRANCH  26  27
ATOM     27  C   UNL     1       0.173  15.718  18.751  0.00  0.00    +0.000 C 
ATOM     28  C   UNL     1      -0.599  16.911  18.211  0.00  0.00    +0.000 C 
ENDBRANCH  26  27
ENDBRANCH   1  26
TORSDOF 6
ENDMDL
MODEL 2
REMARK VINA RESULT:      -5.7      1.654      4.954
REMARK  Name = 
REMARK  12 active torsions:
REMARK  status: ('A' for Active; 'I' for Inactive)
REMARK    1  A    between atoms: C_1  and  C_2
REMARK    2  A    between atoms: C_2  and  O_3
REMARK    3  A    between atoms: O_3  and  C_4
REMARK    4  A    between atoms: C_4  and  O_5
REMARK    5  A    between atoms: O_5  and  C_6
REMARK    6  A    between atoms: C_6  and  C_7
REMARK    7  A    between atoms: C_10  and  O_11
REMARK    8  A    between atoms: O_11  and  C_12
REMARK    9  A    between atoms: C_15  and  O_16
REMARK   10  A    between atoms: O_16  and  C_17
REMARK   11  A    between atoms: C_26  and  C_27
REMARK   12  A    between atoms: C_26  and  C_28
REMARK                            x       y       z     vdW  Elec       q    Type
REMARK                         _______ _______ _______ _____ _____    ______ ____
ROOT
ATOM      1  C   UNL     1      -0.366  13.703  19.881  0.00  0.00    +0.000 C 
ATOM      2  C   UNL     1      -1.711  12.860  20.178  0.00  0.00    +0.000 C 
ATOM      3  C   UNL     1      -1.441  11.862  21.300  0.00  0.00    +0.000 A 
ATOM      4  C   UNL     1      -2.153  11.764  22.494  0.00  0.00    +0.000 A 
ATOM      5  C   UNL     1      -1.664  10.905  23.474  0.00  0.00    +0.000 A 
ATOM      6  C   UNL     1      -0.501  10.144  23.246  0.00  0.00    +0.000 A 
ATOM      7  C   UNL     1       0.176  10.195  22.022  0.00  0.00    +0.000 A 
ATOM      8  C   UNL     1      -0.302  11.052  21.042  0.00  0.00    +0.000 A 
ATOM      9  C   UNL     1       0.312  11.272  19.658  0.00  0.00    +0.000 C 
ATOM     10  N   UNL     1      -0.861  11.162  18.703  0.00  0.00    +0.000 N 
ATOM     11  C   UNL     1      -0.858  10.332  17.636  0.00  0.00    +0.000 A 
ATOM     12  C   UNL     1      -1.966  10.284  16.799  0.00  0.00    +0.000 A 
ATOM     13  C   UNL     1      -3.094  11.053  17.098  0.00  0.00    +0.000 A 
ATOM     14  C   UNL     1      -3.093  11.860  18.228  0.00  0.00    +0.000 A 
ATOM     15  C   UNL     1      -1.937  11.943  18.995  0.00  0.00    +0.000 A 
ATOM     16  C   UNL     1       0.867  12.722  19.505  0.00  0.00    +0.000 C 
ATOM     17  C   UNL     1       2.138  12.912  20.383  0.00  0.00    +0.000 C 
ATOM     18  C   UNL     1       1.429  12.944  18.069  0.00  0.00    +0.000 C 
ENDROOT
BRANCH   4  19
ATOM     19  O   UNL     1      -3.263  12.545  22.622  0.00  0.00    +0.000 OA
ATOM     20  C   UNL     1      -3.784  12.671  23.947  0.00  0.00    +0.000 C 
ENDBRANCH   4  19
BRANCH   7  21
ATOM     21  O   UNL     1       1.292   9.484  21.692  0.00  0.00    +0.000 OA
ATOM     22  C   UNL     1       1.083   8.130  21.300  0.00  0.00    +0.000 C 
ENDBRANCH   7  21
BRANCH   1  23
ATOM     23  O   UNL     1      -0.539  14.670  18.795  0.00  0.00    +0.000 OA
BRANCH  23  25
ATOM     24  C   UNL     1      -0.640  17.048  18.186  0.00  0.00    +0.000 C 
ATOM     25  C   UNL     1       0.182  15.890  18.724  0.00  0.00    +0.000 C 
ENDBRANCH  23  25
ENDBRANCH   1  23
BRANCH   1  26
ATOM     26  O   UNL     1       0.017  14.539  20.996  0.00  0.00    +0.000 OA
BRANCH  26  27
ATOM     27  C   UNL     1      -0.894  15.232  21.834  0.00  0.00    +0.000 C 
ATOM     28  C   UNL     1      -0.668  14.983  23.317  0.00  0.00    +0.000 C 
ENDBRANCH  26  27
ENDBRANCH   1  26
TORSDOF 6
ENDMDL
MODEL 3
REMARK VINA RESULT:      -5.6      1.587      4.093
REMARK  Name = 
REMARK  12 active torsions:
REMARK  status: ('A' for Active; 'I' for Inactive)
REMARK    1  A    between atoms: C_1  and  C_2
REMARK    2  A    between atoms: C_2  and  O_3
REMARK    3  A    between atoms: O_3  and  C_4
REMARK    4  A    between atoms: C_4  and  O_5
REMARK    5  A    between atoms: O_5  and  C_6
REMARK    6  A    between atoms: C_6  and  C_7
REMARK    7  A    between atoms: C_10  and  O_11
REMARK    8  A    between atoms: O_11  and  C_12
REMARK    9  A    between atoms: C_15  and  O_16
REMARK   10  A    between atoms: O_16  and  C_17
REMARK   11  A    between atoms: C_26  and  C_27
REMARK   12  A    between atoms: C_26  and  C_28
REMARK                            x       y       z     vdW  Elec       q    Type
REMARK                         _______ _______ _______ _____ _____    ______ ____
ROOT
ATOM      1  C   UNL     1      -0.819  14.208  19.811  0.00  0.00    +0.000 C 
ATOM      2  C   UNL     1      -2.180  13.345  19.712  0.00  0.00    +0.000 C 
ATOM      3  C   UNL     1      -2.504  12.757  21.082  0.00  0.00    +0.000 A 
ATOM      4  C   UNL     1      -3.693  12.936  21.787  0.00  0.00    +0.000 A 
ATOM      5  C   UNL     1      -3.751  12.464  23.095  0.00  0.00    +0.000 A 
ATOM      6  C   UNL     1      -2.647  11.804  23.670  0.00  0.00    +0.000 A 
ATOM      7  C   UNL     1      -1.477  11.569  22.939  0.00  0.00    +0.000 A 
ATOM      8  C   UNL     1      -1.410  12.039  21.636  0.00  0.00    +0.000 A 
ATOM      9  C   UNL     1      -0.213  11.910  20.691  0.00  0.00    +0.000 C 
ATOM     10  N   UNL     1      -0.811  11.394  19.396  0.00  0.00    +0.000 N 
ATOM     11  C   UNL     1      -0.345  10.293  18.766  0.00  0.00    +0.000 A 
ATOM     12  C   UNL     1      -0.937   9.877  17.579  0.00  0.00    +0.000 A 
ATOM     13  C   UNL     1      -2.043  10.569  17.078  0.00  0.00    +0.000 A 
ATOM     14  C   UNL     1      -2.535  11.668  17.769  0.00  0.00    +0.000 A 
ATOM     15  C   UNL     1      -1.867  12.101  18.908  0.00  0.00    +0.000 A 
ATOM     16  C   UNL     1       0.407  13.303  20.362  0.00  0.00    +0.000 C 
ATOM     17  C   UNL     1       1.130  13.884  21.612  0.00  0.00    +0.000 C 
ATOM     18  C   UNL     1       1.580  13.155  19.349  0.00  0.00    +0.000 C 
ENDROOT
BRANCH   4  19
ATOM     19  O   UNL     1      -4.703  13.592  21.147  0.00  0.00    +0.000 OA
ATOM     20  C   UNL     1      -5.827  12.790  20.778  0.00  0.00    +0.000 C 
ENDBRANCH   4  19
BRANCH   7  21
ATOM     21  O   UNL     1      -0.366  10.920  23.391  0.00  0.00    +0.000 OA
ATOM     22  C   UNL     1      -0.351   9.504  23.229  0.00  0.00    +0.000 C 
ENDBRANCH   7  21
BRANCH   1  23
ATOM     23  O   UNL     1      -0.428  14.787  18.524  0.00  0.00    +0.000 OA
BRANCH  23  25
ATOM     24  C   UNL     1       1.211  16.610  18.372  0.00  0.00    +0.000 C 
ATOM     25  C   UNL     1      -0.244  16.180  18.327  0.00  0.00    +0.000 C 
ENDBRANCH  23  25
ENDBRANCH   1  23
BRANCH   1  26
ATOM     26  O   UNL     1      -0.966  15.372  20.654  0.00  0.00    +0.000 OA
BRANCH  26  27
ATOM     27  C   UNL     1      -2.184  16.068  20.864  0.00  0.00    +0.000 C 
ATOM     28  C   UNL     1      -2.471  16.367  22.326  0.00  0.00    +0.000 C 
ENDBRANCH  26  27
ENDBRANCH   1  26
TORSDOF 6
ENDMDL
MODEL 4
REMARK VINA RESULT:      -5.5      1.838      4.783
REMARK  Name = 
REMARK  12 active torsions:
REMARK  status: ('A' for Active; 'I' for Inactive)
REMARK    1  A    between atoms: C_1  and  C_2
REMARK    2  A    between atoms: C_2  and  O_3
REMARK    3  A    between atoms: O_3  and  C_4
REMARK    4  A    between atoms: C_4  and  O_5
REMARK    5  A    between atoms: O_5  and  C_6
REMARK    6  A    between atoms: C_6  and  C_7
REMARK    7  A    between atoms: C_10  and  O_11
REMARK    8  A    between atoms: O_11  and  C_12
REMARK    9  A    between atoms: C_15  and  O_16
REMARK   10  A    between atoms: O_16  and  C_17
REMARK   11  A    between atoms: C_26  and  C_27
REMARK   12  A    between atoms: C_26  and  C_28
REMARK                            x       y       z     vdW  Elec       q    Type
REMARK                         _______ _______ _______ _____ _____    ______ ____
ROOT
ATOM      1  C   UNL     1      -2.762  13.579  21.390  0.00  0.00    +0.000 C 
ATOM      2  C   UNL     1      -1.832  13.673  20.073  0.00  0.00    +0.000 C 
ATOM      3  C   UNL     1      -1.108  12.345  19.873  0.00  0.00    +0.000 A 
ATOM      4  C   UNL     1      -1.153  11.555  18.726  0.00  0.00    +0.000 A 
ATOM      5  C   UNL     1      -0.565  10.295  18.781  0.00  0.00    +0.000 A 
ATOM      6  C   UNL     1       0.076   9.852  19.954  0.00  0.00    +0.000 A 
ATOM      7  C   UNL     1       0.177  10.672  21.084  0.00  0.00    +0.000 A 
ATOM      8  C   UNL     1      -0.410  11.927  21.039  0.00  0.00    +0.000 A 
ATOM      9  C   UNL     1      -0.436  12.952  22.175  0.00  0.00    +0.000 C 
ATOM     10  N   UNL     1      -0.001  14.250  21.521  0.00  0.00    +0.000 N 
ATOM     11  C   UNL     1       1.011  15.006  22.002  0.00  0.00    +0.000 A 
ATOM     12  C   UNL     1       1.355  16.187  21.355  0.00  0.00    +0.000 A 
ATOM     13  C   UNL     1       0.688  16.554  20.183  0.00  0.00    +0.000 A 
ATOM     14  C   UNL     1      -0.314  15.736  19.680  0.00  0.00    +0.000 A 
ATOM     15  C   UNL     1      -0.685  14.605  20.398  0.00  0.00    +0.000 A 
ATOM     16  C   UNL     1      -1.887  13.189  22.696  0.00  0.00    +0.000 C 
ATOM     17  C   UNL     1      -2.397  11.938  23.469  0.00  0.00    +0.000 C 
ATOM     18  C   UNL     1      -1.898  14.282  23.806  0.00  0.00    +0.000 C 
ENDROOT
BRANCH   4  19
ATOM     19  O   UNL     1      -1.801  12.069  17.642  0.00  0.00    +0.000 OA
ATOM     20  C   UNL     1      -2.612  11.148  16.910  0.00  0.00    +0.000 C 
ENDBRANCH   4  19
BRANCH   7  21
ATOM     21  O   UNL     1       0.795  10.350  22.256  0.00  0.00    +0.000 OA
ATOM     22  C   UNL     1       0.150   9.368  23.061  0.00  0.00    +0.000 C 
ENDBRANCH   7  21
BRANCH   1  23
ATOM     23  O   UNL     1      -3.475  14.829  21.663  0.00  0.00    +0.000 OA
BRANCH  23  25
ATOM     24  C   UNL     1      -3.538  17.129  20.803  0.00  0.00    +0.000 C 
ATOM     25  C   UNL     1      -3.963  15.681  20.639  0.00  0.00    +0.000 C 
ENDBRANCH  23  25
ENDBRANCH   1  23
BRANCH   1  26
ATOM     26  O   UNL     1      -3.837  12.625  21.237  0.00  0.00    +0.000 OA
BRANCH  26  27
ATOM     27  C   UNL     1      -4.601  12.454  20.055  0.00  0.00    +0.000 C 
ATOM     28  C   UNL     1      -6.078  12.206  20.315  0.00  0.00    +0.000 C 
ENDBRANCH  26  27
ENDBRANCH   1  26
TORSDOF 6
ENDMDL
MODEL 5
REMARK VINA RESULT:      -5.5      1.984      4.613
REMARK  Name = 
REMARK  12 active torsions:
REMARK  status: ('A' for Active; 'I' for Inactive)
REMARK    1  A    between atoms: C_1  and  C_2
REMARK    2  A    between atoms: C_2  and  O_3
REMARK    3  A    between atoms: O_3  and  C_4
REMARK    4  A    between atoms: C_4  and  O_5
REMARK    5  A    between atoms: O_5  and  C_6
REMARK    6  A    between atoms: C_6  and  C_7
REMARK    7  A    between atoms: C_10  and  O_11
REMARK    8  A    between atoms: O_11  and  C_12
REMARK    9  A    between atoms: C_15  and  O_16
REMARK   10  A    between atoms: O_16  and  C_17
REMARK   11  A    between atoms: C_26  and  C_27
REMARK   12  A    between atoms: C_26  and  C_28
REMARK                            x       y       z     vdW  Elec       q    Type
REMARK                         _______ _______ _______ _____ _____    ______ ____
ROOT
ATOM      1  C   UNL     1      -0.658  14.370  22.033  0.00  0.00    +0.000 C 
ATOM      2  C   UNL     1      -1.057  12.884  22.525  0.00  0.00    +0.000 C 
ATOM      3  C   UNL     1      -0.787  11.892  21.399  0.00  0.00    +0.000 A 
ATOM      4  C   UNL     1       0.026  10.763  21.483  0.00  0.00    +0.000 A 
ATOM      5  C   UNL     1       0.290  10.062  20.309  0.00  0.00    +0.000 A 
ATOM      6  C   UNL     1      -0.272  10.474  19.086  0.00  0.00    +0.000 A 
ATOM      7  C   UNL     1      -1.140  11.571  19.014  0.00  0.00    +0.000 A 
ATOM      8  C   UNL     1      -1.405  12.276  20.178  0.00  0.00    +0.000 A 
ATOM      9  C   UNL     1      -2.296  13.514  20.299  0.00  0.00    +0.000 C 
ATOM     10  N   UNL     1      -3.198  13.214  21.481  0.00  0.00    +0.000 N 
ATOM     11  C   UNL     1      -4.545  13.298  21.411  0.00  0.00    +0.000 A 
ATOM     12  C   UNL     1      -5.312  13.013  22.535  0.00  0.00    +0.000 A 
ATOM     13  C   UNL     1      -4.686  12.590  23.710  0.00  0.00    +0.000 A 
ATOM     14  C   UNL     1      -3.304  12.463  23.744  0.00  0.00    +0.000 A 
ATOM     15  C   UNL     1      -2.566  12.834  22.626  0.00  0.00    +0.000 A 
ATOM     16  C   UNL     1      -1.468  14.777  20.690  0.00  0.00    +0.000 C 
ATOM     17  C   UNL     1      -0.568  15.225  19.501  0.00  0.00    +0.000 C 
ATOM     18  C   UNL     1      -2.401  16.010  20.872  0.00  0.00    +0.000 C 
ENDROOT
BRANCH   4  19
ATOM     19  O   UNL     1       0.527  10.448  22.711  0.00  0.00    +0.000 OA
ATOM     20  C   UNL     1      -0.177   9.430  23.426  0.00  0.00    +0.000 C 
ENDBRANCH   4  19
BRANCH   7  21
ATOM     21  O   UNL     1      -1.755  12.035  17.889  0.00  0.00    +0.000 OA
ATOM     22  C   UNL     1      -2.655  11.137  17.245  0.00  0.00    +0.000 C 
ENDBRANCH   7  21
BRANCH   1  23
ATOM     23  O   UNL     1      -0.912  15.387  23.056  0.00  0.00    +0.000 OA
BRANCH  23  25
ATOM     24  C   UNL     1      -2.234  15.744  25.095  0.00  0.00    +0.000 C 
ATOM     25  C   UNL     1      -1.037  15.082  24.435  0.00  0.00    +0.000 C 
ENDBRANCH  23  25
ENDBRANCH   1  23
BRANCH   1  26
ATOM     26  O   UNL     1       0.760  14.507  21.791  0.00  0.00    +0.000 OA
BRANCH  26  27
ATOM     27  C   UNL     1       1.545  15.613  22.205  0.00  0.00    +0.000 C 
ATOM     28  C   UNL     1       2.642  15.985  21.221  0.00  0.00    +0.000 C 
ENDBRANCH  26  27
ENDBRANCH   1  26
TORSDOF 6
ENDMDL
MODEL 6
REMARK VINA RESULT:      -5.4      1.557      2.084
REMARK  Name = 
REMARK  12 active torsions:
REMARK  status: ('A' for Active; 'I' for Inactive)
REMARK    1  A    between atoms: C_1  and  C_2
REMARK    2  A    between atoms: C_2  and  O_3
REMARK    3  A    between atoms: O_3  and  C_4
REMARK    4  A    between atoms: C_4  and  O_5
REMARK    5  A    between atoms: O_5  and  C_6
REMARK    6  A    between atoms: C_6  and  C_7
REMARK    7  A    between atoms: C_10  and  O_11
REMARK    8  A    between atoms: O_11  and  C_12
REMARK    9  A    between atoms: C_15  and  O_16
REMARK   10  A    between atoms: O_16  and  C_17
REMARK   11  A    between atoms: C_26  and  C_27
REMARK   12  A    between atoms: C_26  and  C_28
REMARK                            x       y       z     vdW  Elec       q    Type
REMARK                         _______ _______ _______ _____ _____    ______ ____
ROOT
ATOM      1  C   UNL     1      -1.944  14.365  20.996  0.00  0.00    +0.000 C 
ATOM      2  C   UNL     1      -2.300  12.972  20.261  0.00  0.00    +0.000 C 
ATOM      3  C   UNL     1      -3.771  12.642  20.492  0.00  0.00    +0.000 A 
ATOM      4  C   UNL     1      -4.721  12.407  19.501  0.00  0.00    +0.000 A 
ATOM      5  C   UNL     1      -6.052  12.284  19.890  0.00  0.00    +0.000 A 
ATOM      6  C   UNL     1      -6.413  12.369  21.249  0.00  0.00    +0.000 A 
ATOM      7  C   UNL     1      -5.449  12.541  22.250  0.00  0.00    +0.000 A 
ATOM      8  C   UNL     1      -4.122  12.668  21.870  0.00  0.00    +0.000 A 
ATOM      9  C   UNL     1      -2.932  12.892  22.806  0.00  0.00    +0.000 C 
ATOM     10  N   UNL     1      -1.905  11.870  22.361  0.00  0.00    +0.000 N 
ATOM     11  C   UNL     1      -1.325  10.998  23.215  0.00  0.00    +0.000 A 
ATOM     12  C   UNL     1      -0.386  10.089  22.741  0.00  0.00    +0.000 A 
ATOM     13  C   UNL     1      -0.092  10.048  21.375  0.00  0.00    +0.000 A 
ATOM     14  C   UNL     1      -0.739  10.919  20.508  0.00  0.00    +0.000 A 
ATOM     15  C   UNL     1      -1.609  11.867  21.031  0.00  0.00    +0.000 A 
ATOM     16  C   UNL     1      -2.284  14.292  22.579  0.00  0.00    +0.000 C 
ATOM     17  C   UNL     1      -3.229  15.418  23.091  0.00  0.00    +0.000 C 
ATOM     18  C   UNL     1      -1.037  14.474  23.495  0.00  0.00    +0.000 C 
ENDROOT
BRANCH   4  19
ATOM     19  O   UNL     1      -4.275  12.346  18.214  0.00  0.00    +0.000 OA
ATOM     20  C   UNL     1      -5.216  11.863  17.253  0.00  0.00    +0.000 C 
ENDBRANCH   4  19
BRANCH   7  21
ATOM     21  O   UNL     1      -5.689  12.611  23.591  0.00  0.00    +0.000 OA
ATOM     22  C   UNL     1      -7.030  12.897  23.978  0.00  0.00    +0.000 C 
ENDBRANCH   7  21
BRANCH   1  23
ATOM     23  O   UNL     1      -0.538  14.739  20.839  0.00  0.00    +0.000 OA
BRANCH  23  25
ATOM     24  C   UNL     1       1.605  13.755  20.151  0.00  0.00    +0.000 C 
ATOM     25  C   UNL     1       0.257  14.319  19.741  0.00  0.00    +0.000 C 
ENDBRANCH  23  25
ENDBRANCH   1  23
BRANCH   1  26
ATOM     26  O   UNL     1      -2.642  15.489  20.413  0.00  0.00    +0.000 OA
BRANCH  26  27
ATOM     27  C   UNL     1      -2.038  16.730  20.086  0.00  0.00    +0.000 C 
ATOM     28  C   UNL     1      -3.033  17.798  19.661  0.00  0.00    +0.000 C 
ENDBRANCH  26  27
ENDBRANCH   1  26
TORSDOF 6
ENDMDL
MODEL 7
REMARK VINA RESULT:      -5.3      8.012     11.481
REMARK  Name = 
REMARK  12 active torsions:
REMARK  status: ('A' for Active; 'I' for Inactive)
REMARK    1  A    between atoms: C_1  and  C_2
REMARK    2  A    between atoms: C_2  and  O_3
REMARK    3  A    between atoms: O_3  and  C_4
REMARK    4  A    between atoms: C_4  and  O_5
REMARK    5  A    between atoms: O_5  and  C_6
REMARK    6  A    between atoms: C_6  and  C_7
REMARK    7  A    between atoms: C_10  and  O_11
REMARK    8  A    between atoms: O_11  and  C_12
REMARK    9  A    between atoms: C_15  and  O_16
REMARK   10  A    between atoms: O_16  and  C_17
REMARK   11  A    between atoms: C_26  and  C_27
REMARK   12  A    between atoms: C_26  and  C_28
REMARK                            x       y       z     vdW  Elec       q    Type
REMARK                         _______ _______ _______ _____ _____    ______ ____
ROOT
ATOM      1  C   UNL     1       8.912  16.162  20.602  0.00  0.00    +0.000 C 
ATOM      2  C   UNL     1       8.031  14.888  21.056  0.00  0.00    +0.000 C 
ATOM      3  C   UNL     1       8.725  13.608  20.600  0.00  0.00    +0.000 A 
ATOM      4  C   UNL     1       9.103  12.547  21.420  0.00  0.00    +0.000 A 
ATOM      5  C   UNL     1       9.874  11.533  20.859  0.00  0.00    +0.000 A 
ATOM      6  C   UNL     1      10.235  11.575  19.499  0.00  0.00    +0.000 A 
ATOM      7  C   UNL     1       9.802  12.609  18.661  0.00  0.00    +0.000 A 
ATOM      8  C   UNL     1       9.035  13.625  19.213  0.00  0.00    +0.000 A 
ATOM      9  C   UNL     1       8.495  14.851  18.474  0.00  0.00    +0.000 C 
ATOM     10  N   UNL     1       7.033  14.915  18.869  0.00  0.00    +0.000 N 
ATOM     11  C   UNL     1       6.034  14.984  17.961  0.00  0.00    +0.000 A 
ATOM     12  C   UNL     1       4.714  15.044  18.393  0.00  0.00    +0.000 A 
ATOM     13  C   UNL     1       4.429  14.977  19.760  0.00  0.00    +0.000 A 
ATOM     14  C   UNL     1       5.469  14.855  20.671  0.00  0.00    +0.000 A 
ATOM     15  C   UNL     1       6.779  14.880  20.207  0.00  0.00    +0.000 A 
ATOM     16  C   UNL     1       9.148  16.167  18.999  0.00  0.00    +0.000 C 
ATOM     17  C   UNL     1      10.641  16.243  18.564  0.00  0.00    +0.000 C 
ATOM     18  C   UNL     1       8.538  17.406  18.280  0.00  0.00    +0.000 C 
ENDROOT
BRANCH   4  19
ATOM     19  O   UNL     1       8.709  12.599  22.725  0.00  0.00    +0.000 OA
ATOM     20  C   UNL     1       7.560  11.818  23.058  0.00  0.00    +0.000 C 
ENDBRANCH   4  19
BRANCH   7  21
ATOM     21  O   UNL     1      10.073  12.731  17.330  0.00  0.00    +0.000 OA
ATOM     22  C   UNL     1      11.424  13.022  16.985  0.00  0.00    +0.000 C 
ENDBRANCH   7  21
BRANCH   1  23
ATOM     23  O   UNL     1       8.296  17.435  20.985  0.00  0.00    +0.000 OA
BRANCH  23  25
ATOM     24  C   UNL     1       6.184  18.285  21.906  0.00  0.00    +0.000 C 
ATOM     25  C   UNL     1       7.512  17.593  22.156  0.00  0.00    +0.000 C 
ENDBRANCH  23  25
ENDBRANCH   1  23
BRANCH   1  26
ATOM     26  O   UNL     1      10.192  16.213  21.270  0.00  0.00    +0.000 OA
BRANCH  26  27
ATOM     27  C   UNL     1      10.416  15.821  22.614  0.00  0.00    +0.000 C 
ATOM     28  C   UNL     1      11.329  16.764  23.381  0.00  0.00    +0.000 C 
ENDBRANCH  26  27
ENDBRANCH   1  26
TORSDOF 6
ENDMDL
MODEL 8
REMARK VINA RESULT:      -5.3      2.054      2.952
REMARK  Name = 
REMARK  12 active torsions:
REMARK  status: ('A' for Active; 'I' for Inactive)
REMARK    1  A    between atoms: C_1  and  C_2
REMARK    2  A    between atoms: C_2  and  O_3
REMARK    3  A    between atoms: O_3  and  C_4
REMARK    4  A    between atoms: C_4  and  O_5
REMARK    5  A    between atoms: O_5  and  C_6
REMARK    6  A    between atoms: C_6  and  C_7
REMARK    7  A    between atoms: C_10  and  O_11
REMARK    8  A    between atoms: O_11  and  C_12
REMARK    9  A    between atoms: C_15  and  O_16
REMARK   10  A    between atoms: O_16  and  C_17
REMARK   11  A    between atoms: C_26  and  C_27
REMARK   12  A    between atoms: C_26  and  C_28
REMARK                            x       y       z     vdW  Elec       q    Type
REMARK                         _______ _______ _______ _____ _____    ______ ____
ROOT
ATOM      1  C   UNL     1      -3.084  14.831  21.232  0.00  0.00    +0.000 C 
ATOM      2  C   UNL     1      -3.192  13.432  20.432  0.00  0.00    +0.000 C 
ATOM      3  C   UNL     1      -4.587  12.847  20.627  0.00  0.00    +0.000 A 
ATOM      4  C   UNL     1      -5.476  12.499  19.612  0.00  0.00    +0.000 A 
ATOM      5  C   UNL     1      -6.769  12.135  19.977  0.00  0.00    +0.000 A 
ATOM      6  C   UNL     1      -7.149  12.097  21.332  0.00  0.00    +0.000 A 
ATOM      7  C   UNL     1      -6.237  12.384  22.354  0.00  0.00    +0.000 A 
ATOM      8  C   UNL     1      -4.947  12.752  21.999  0.00  0.00    +0.000 A 
ATOM      9  C   UNL     1      -3.820  13.133  22.962  0.00  0.00    +0.000 C 
ATOM     10  N   UNL     1      -2.630  12.320  22.488  0.00  0.00    +0.000 N 
ATOM     11  C   UNL     1      -1.917  11.523  23.314  0.00  0.00    +0.000 A 
ATOM     12  C   UNL     1      -0.834  10.808  22.815  0.00  0.00    +0.000 A 
ATOM     13  C   UNL     1      -0.527  10.879  21.453  0.00  0.00    +0.000 A 
ATOM     14  C   UNL     1      -1.306  11.665  20.615  0.00  0.00    +0.000 A 
ATOM     15  C   UNL     1      -2.329  12.427  21.165  0.00  0.00    +0.000 A 
ATOM     16  C   UNL     1      -3.418  14.631  22.804  0.00  0.00    +0.000 C 
ATOM     17  C   UNL     1      -4.544  15.556  23.350  0.00  0.00    +0.000 C 
ATOM     18  C   UNL     1      -2.227  14.981  23.746  0.00  0.00    +0.000 C 
ENDROOT
BRANCH   4  19
ATOM     19  O   UNL     1      -5.016  12.572  18.331  0.00  0.00    +0.000 OA
ATOM     20  C   UNL     1      -5.760  11.831  17.361  0.00  0.00    +0.000 C 
ENDBRANCH   4  19
BRANCH   7  21
ATOM     21  O   UNL     1      -6.495  12.353  23.693  0.00  0.00    +0.000 OA
ATOM     22  C   UNL     1      -7.455  13.290  24.173  0.00  0.00    +0.000 C 
ENDBRANCH   7  21
BRANCH   1  23
ATOM     23  O   UNL     1      -1.760  15.445  21.111  0.00  0.00    +0.000 OA
BRANCH  23  25
ATOM     24  C   UNL     1       0.493  14.895  20.303  0.00  0.00    +0.000 C 
ATOM     25  C   UNL     1      -0.935  15.286  19.969  0.00  0.00    +0.000 C 
ENDBRANCH  23  25
ENDBRANCH   1  23
BRANCH   1  26
ATOM     26  O   UNL     1      -3.958  15.845  20.686  0.00  0.00    +0.000 OA
BRANCH  26  27
ATOM     27  C   UNL     1      -3.611  17.211  20.535  0.00  0.00    +0.000 C 
ATOM     28  C   UNL     1      -4.143  17.838  19.256  0.00  0.00    +0.000 C 
ENDBRANCH  26  27
ENDBRANCH   1  26
TORSDOF 6
ENDMDL
MODEL 9
REMARK VINA RESULT:      -5.3      1.727      5.472
REMARK  Name = 
REMARK  12 active torsions:
REMARK  status: ('A' for Active; 'I' for Inactive)
REMARK    1  A    between atoms: C_1  and  C_2
REMARK    2  A    between atoms: C_2  and  O_3
REMARK    3  A    between atoms: O_3  and  C_4
REMARK    4  A    between atoms: C_4  and  O_5
REMARK    5  A    between atoms: O_5  and  C_6
REMARK    6  A    between atoms: C_6  and  C_7
REMARK    7  A    between atoms: C_10  and  O_11
REMARK    8  A    between atoms: O_11  and  C_12
REMARK    9  A    between atoms: C_15  and  O_16
REMARK   10  A    between atoms: O_16  and  C_17
REMARK   11  A    between atoms: C_26  and  C_27
REMARK   12  A    between atoms: C_26  and  C_28
REMARK                            x       y       z     vdW  Elec       q    Type
REMARK                         _______ _______ _______ _____ _____    ______ ____
ROOT
ATOM      1  C   UNL     1      -1.766  12.872  20.357  0.00  0.00    +0.000 C 
ATOM      2  C   UNL     1      -1.027  12.886  21.793  0.00  0.00    +0.000 C 
ATOM      3  C   UNL     1       0.263  13.694  21.687  0.00  0.00    +0.000 A 
ATOM      4  C   UNL     1       0.605  14.794  22.472  0.00  0.00    +0.000 A 
ATOM      5  C   UNL     1       1.747  15.510  22.126  0.00  0.00    +0.000 A 
ATOM      6  C   UNL     1       2.539  15.113  21.032  0.00  0.00    +0.000 A 
ATOM      7  C   UNL     1       2.231  13.971  20.284  0.00  0.00    +0.000 A 
ATOM      8  C   UNL     1       1.092  13.253  20.620  0.00  0.00    +0.000 A 
ATOM      9  C   UNL     1       0.571  12.003  19.908  0.00  0.00    +0.000 C 
ATOM     10  N   UNL     1       0.287  11.022  21.030  0.00  0.00    +0.000 N 
ATOM     11  C   UNL     1       0.789   9.768  21.047  0.00  0.00    +0.000 A 
ATOM     12  C   UNL     1       0.485   8.919  22.105  0.00  0.00    +0.000 A 
ATOM     13  C   UNL     1      -0.292   9.389  23.167  0.00  0.00    +0.000 A 
ATOM     14  C   UNL     1      -0.755  10.697  23.152  0.00  0.00    +0.000 A 
ATOM     15  C   UNL     1      -0.498  11.490  22.040  0.00  0.00    +0.000 A 
ATOM     16  C   UNL     1      -0.795  12.273  19.207  0.00  0.00    +0.000 C 
ATOM     17  C   UNL     1      -0.598  13.205  17.975  0.00  0.00    +0.000 C 
ATOM     18  C   UNL     1      -1.338  10.972  18.545  0.00  0.00    +0.000 C 
ENDROOT
BRANCH   4  19
ATOM     19  O   UNL     1      -0.229  15.102  23.506  0.00  0.00    +0.000 OA
ATOM     20  C   UNL     1      -0.304  16.487  23.850  0.00  0.00    +0.000 C 
ENDBRANCH   4  19
BRANCH   7  21
ATOM     21  O   UNL     1       2.943  13.487  19.226  0.00  0.00    +0.000 OA
ATOM     22  C   UNL     1       3.677  14.445  18.469  0.00  0.00    +0.000 C 
ENDBRANCH   7  21
BRANCH   1  23
ATOM     23  O   UNL     1      -3.006  12.093  20.372  0.00  0.00    +0.000 OA
BRANCH  23  25
ATOM     24  C   UNL     1      -4.877  11.958  18.787  0.00  0.00    +0.000 C 
ATOM     25  C   UNL     1      -4.263  12.633  20.001  0.00  0.00    +0.000 C 
ENDBRANCH  23  25
ENDBRANCH   1  23
BRANCH   1  26
ATOM     26  O   UNL     1      -2.219  14.186  19.959  0.00  0.00    +0.000 OA
BRANCH  26  27
ATOM     27  C   UNL     1      -2.520  15.241  20.857  0.00  0.00    +0.000 C 
ATOM     28  C   UNL     1      -1.931  16.581  20.443  0.00  0.00    +0.000 C 
ENDBRANCH  26  27
ENDBRANCH   1  26
TORSDOF 6
ENDMDL
