MODEL 1
REMARK VINA RESULT:      -8.5      0.000      0.000
REMARK  Name = 
REMARK  7 active torsions:
REMARK  status: ('A' for Active; 'I' for Inactive)
REMARK    1  A    between atoms: C_1  and  O_2
REMARK    2  A    between atoms: O_2  and  C_3
REMARK    3  A    between atoms: C_6  and  N_7
REMARK    4  A    between atoms: C_8  and  C_10
REMARK    5  A    between atoms: C_16  and  C_17
REMARK    6  A    between atoms: C_18  and  C_19
REMARK    7  A    between atoms: C_19  and  O_21
REMARK                            x       y       z     vdW  Elec       q    Type
REMARK                         _______ _______ _______ _____ _____    ______ ____
ROOT
ATOM      1  C   UNL     1       2.813   6.191  19.140  0.00  0.00    +0.000 A 
ATOM      2  C   UNL     1       2.649   4.856  19.146  0.00  0.00    +0.000 A 
ATOM      3  C   UNL     1       3.553   4.009  18.378  0.00  0.00    +0.000 A 
ATOM      4  O   UNL     1       3.633   2.806  18.580  0.00  0.00    +0.000 OA
ATOM      5  C   UNL     1       4.322   4.683  17.337  0.00  0.00    +0.000 A 
ATOM      6  C   UNL     1       4.927   3.901  16.338  0.00  0.00    +0.000 A 
ATOM      7  C   UNL     1       5.545   4.505  15.246  0.00  0.00    +0.000 A 
ATOM      8  C   UNL     1       5.546   5.914  15.209  0.00  0.00    +0.000 A 
ATOM      9  C   UNL     1       4.972   6.696  16.246  0.00  0.00    +0.000 A 
ATOM     10  C   UNL     1       4.342   6.078  17.323  0.00  0.00    +0.000 A 
ATOM     11  O   UNL     1       3.727   6.849  18.309  0.00  0.00    +0.000 OA
ENDROOT
BRANCH   1  13
ATOM     12  N   UNL     1       1.846   8.275  20.142  0.00  0.00    +0.000 N 
ATOM     13  C   UNL     1       1.911   6.894  20.144  0.00  0.00    +0.000 C 
ATOM     14  O   UNL     1       1.289   6.186  20.939  0.00  0.00    +0.000 OA
ATOM     15  H   UNL     1       2.445   8.779  19.502  0.00  0.00    +0.000 HD
BRANCH  12  19
ATOM     16  C   UNL     1      -0.859  10.611  22.517  0.00  0.00    +0.000 A 
ATOM     17  C   UNL     1      -0.006   9.698  23.123  0.00  0.00    +0.000 A 
ATOM     18  C   UNL     1       0.899   8.943  22.364  0.00  0.00    +0.000 A 
ATOM     19  C   UNL     1       0.973   9.054  20.967  0.00  0.00    +0.000 A 
ATOM     20  C   UNL     1       0.109   9.987  20.368  0.00  0.00    +0.000 A 
ATOM     21  C   UNL     1      -0.798  10.755  21.135  0.00  0.00    +0.000 A 
BRANCH  16  23
ATOM     22  C   UNL     1      -2.577  12.234  22.821  0.00  0.00    +0.000 C 
ATOM     23  O   UNL     1      -1.703  11.259  23.374  0.00  0.00    +0.000 OA
ENDBRANCH  16  23
ENDBRANCH  12  19
ENDBRANCH   1  13
BRANCH   7  24
ATOM     24  C   UNL     1       6.148   3.733  14.134  0.00  0.00    +0.000 C 
ATOM     25  C   UNL     1       5.634   3.569  12.903  0.00  0.00    +0.000 C 
BRANCH  25  26
ATOM     26  C   UNL     1       6.371   2.758  11.906  0.00  0.00    +0.000 C 
ATOM     27  O   UNL     1       7.449   3.062  11.428  0.00  0.00    +0.000 OA
BRANCH  26  28
ATOM     28  O   UNL     1       5.719   1.625  11.580  0.00  0.00    +0.000 OA
ATOM     29  H   UNL     1       4.781   1.724  11.336  0.00  0.00    +0.000 HD
ENDBRANCH  26  28
ENDBRANCH  25  26
ENDBRANCH   7  24
TORSDOF 6
ENDMDL
MODEL 2
REMARK VINA RESULT:      -8.3      0.166      1.114
REMARK  Name = 
REMARK  7 active torsions:
REMARK  status: ('A' for Active; 'I' for Inactive)
REMARK    1  A    between atoms: C_1  and  O_2
REMARK    2  A    between atoms: O_2  and  C_3
REMARK    3  A    between atoms: C_6  and  N_7
REMARK    4  A    between atoms: C_8  and  C_10
REMARK    5  A    between atoms: C_16  and  C_17
REMARK    6  A    between atoms: C_18  and  C_19
REMARK    7  A    between atoms: C_19  and  O_21
REMARK                            x       y       z     vdW  Elec       q    Type
REMARK                         _______ _______ _______ _____ _____    ______ ____
ROOT
ATOM      1  C   UNL     1       2.716   6.251  19.142  0.00  0.00    +0.000 A 
ATOM      2  C   UNL     1       2.505   4.923  19.119  0.00  0.00    +0.000 A 
ATOM      3  C   UNL     1       3.388   4.061  18.342  0.00  0.00    +0.000 A 
ATOM      4  O   UNL     1       3.423   2.851  18.521  0.00  0.00    +0.000 OA
ATOM      5  C   UNL     1       4.191   4.728  17.325  0.00  0.00    +0.000 A 
ATOM      6  C   UNL     1       4.780   3.947  16.315  0.00  0.00    +0.000 A 
ATOM      7  C   UNL     1       5.431   4.551  15.243  0.00  0.00    +0.000 A 
ATOM      8  C   UNL     1       5.481   5.959  15.235  0.00  0.00    +0.000 A 
ATOM      9  C   UNL     1       4.924   6.739  16.282  0.00  0.00    +0.000 A 
ATOM     10  C   UNL     1       4.261   6.122  17.339  0.00  0.00    +0.000 A 
ATOM     11  O   UNL     1       3.662   6.894  18.335  0.00  0.00    +0.000 OA
ENDROOT
BRANCH   1  13
ATOM     12  N   UNL     1       1.701   8.340  20.086  0.00  0.00    +0.000 N 
ATOM     13  C   UNL     1       1.828   6.965  20.152  0.00  0.00    +0.000 C 
ATOM     14  O   UNL     1       1.274   6.272  21.007  0.00  0.00    +0.000 OA
ATOM     15  H   UNL     1       2.249   8.837  19.395  0.00  0.00    +0.000 HD
BRANCH  12  19
ATOM     16  C   UNL     1      -0.816  10.679  22.657  0.00  0.00    +0.000 A 
ATOM     17  C   UNL     1      -0.844  10.876  21.283  0.00  0.00    +0.000 A 
ATOM     18  C   UNL     1      -0.044  10.105  20.426  0.00  0.00    +0.000 A 
ATOM     19  C   UNL     1       0.832   9.122  20.911  0.00  0.00    +0.000 A 
ATOM     20  C   UNL     1       0.844   8.928  22.304  0.00  0.00    +0.000 A 
ATOM     21  C   UNL     1       0.032   9.700  23.166  0.00  0.00    +0.000 A 
BRANCH  16  23
ATOM     22  C   UNL     1      -2.519  12.345  22.636  0.00  0.00    +0.000 C 
ATOM     23  O   UNL     1      -1.627  11.516  23.369  0.00  0.00    +0.000 OA
ENDBRANCH  16  23
ENDBRANCH  12  19
ENDBRANCH   1  13
BRANCH   7  24
ATOM     24  C   UNL     1       6.018   3.781  14.122  0.00  0.00    +0.000 C 
ATOM     25  C   UNL     1       5.470   3.587  12.910  0.00  0.00    +0.000 C 
BRANCH  25  26
ATOM     26  C   UNL     1       6.196   2.783  11.899  0.00  0.00    +0.000 C 
ATOM     27  O   UNL     1       5.783   1.746  11.414  0.00  0.00    +0.000 OA
BRANCH  26  28
ATOM     28  O   UNL     1       7.379   3.330  11.558  0.00  0.00    +0.000 OA
ATOM     29  H   UNL     1       7.338   4.173  11.071  0.00  0.00    +0.000 HD
ENDBRANCH  26  28
ENDBRANCH  25  26
ENDBRANCH   7  24
TORSDOF 6
ENDMDL
MODEL 3
REMARK VINA RESULT:      -8.1      2.198     11.167
REMARK  Name = 
REMARK  7 active torsions:
REMARK  status: ('A' for Active; 'I' for Inactive)
REMARK    1  A    between atoms: C_1  and  O_2
REMARK    2  A    between atoms: O_2  and  C_3
REMARK    3  A    between atoms: C_6  and  N_7
REMARK    4  A    between atoms: C_8  and  C_10
REMARK    5  A    between atoms: C_16  and  C_17
REMARK    6  A    between atoms: C_18  and  C_19
REMARK    7  A    between atoms: C_19  and  O_21
REMARK                            x       y       z     vdW  Elec       q    Type
REMARK                         _______ _______ _______ _____ _____    ______ ____
ROOT
ATOM      1  C   UNL     1       1.380   9.271  19.199  0.00  0.00    +0.000 A 
ATOM      2  C   UNL     1       0.650  10.188  18.538  0.00  0.00    +0.000 A 
ATOM      3  C   UNL     1      -0.070  11.216  19.279  0.00  0.00    +0.000 A 
ATOM      4  O   UNL     1      -0.492  12.225  18.733  0.00  0.00    +0.000 OA
ATOM      5  C   UNL     1      -0.279  10.945  20.697  0.00  0.00    +0.000 A 
ATOM      6  C   UNL     1      -1.251  11.690  21.386  0.00  0.00    +0.000 A 
ATOM      7  C   UNL     1      -1.589  11.370  22.698  0.00  0.00    +0.000 A 
ATOM      8  C   UNL     1      -0.903  10.290  23.291  0.00  0.00    +0.000 A 
ATOM      9  C   UNL     1       0.110   9.572  22.602  0.00  0.00    +0.000 A 
ATOM     10  C   UNL     1       0.425   9.893  21.285  0.00  0.00    +0.000 A 
ATOM     11  O   UNL     1       1.378   9.147  20.593  0.00  0.00    +0.000 OA
ENDROOT
BRANCH   1  13
ATOM     12  N   UNL     1       2.832   7.275  18.764  0.00  0.00    +0.000 N 
ATOM     13  C   UNL     1       2.212   8.405  18.264  0.00  0.00    +0.000 C 
ATOM     14  O   UNL     1       2.314   8.773  17.092  0.00  0.00    +0.000 OA
ATOM     15  H   UNL     1       2.753   7.087  19.755  0.00  0.00    +0.000 HD
BRANCH  12  19
ATOM     16  C   UNL     1       4.914   4.378  16.379  0.00  0.00    +0.000 A 
ATOM     17  C   UNL     1       5.401   5.673  16.489  0.00  0.00    +0.000 A 
ATOM     18  C   UNL     1       4.745   6.626  17.282  0.00  0.00    +0.000 A 
ATOM     19  C   UNL     1       3.564   6.328  17.979  0.00  0.00    +0.000 A 
ATOM     20  C   UNL     1       3.087   5.011  17.864  0.00  0.00    +0.000 A 
ATOM     21  C   UNL     1       3.753   4.048  17.071  0.00  0.00    +0.000 A 
BRANCH  16  23
ATOM     22  C   UNL     1       6.440   4.187  14.559  0.00  0.00    +0.000 C 
ATOM     23  O   UNL     1       5.639   3.564  15.556  0.00  0.00    +0.000 OA
ENDBRANCH  16  23
ENDBRANCH  12  19
ENDBRANCH   1  13
BRANCH   7  24
ATOM     24  C   UNL     1      -2.646  12.082  23.454  0.00  0.00    +0.000 C 
ATOM     25  C   UNL     1      -3.819  12.522  22.966  0.00  0.00    +0.000 C 
BRANCH  25  26
ATOM     26  C   UNL     1      -4.767  13.223  23.865  0.00  0.00    +0.000 C 
ATOM     27  O   UNL     1      -4.946  14.427  23.877  0.00  0.00    +0.000 OA
BRANCH  26  28
ATOM     28  O   UNL     1      -5.428  12.376  24.677  0.00  0.00    +0.000 OA
ATOM     29  H   UNL     1      -6.251  11.995  24.322  0.00  0.00    +0.000 HD
ENDBRANCH  26  28
ENDBRANCH  25  26
ENDBRANCH   7  24
TORSDOF 6
ENDMDL
MODEL 4
REMARK VINA RESULT:      -8.0      2.049     11.115
REMARK  Name = 
REMARK  7 active torsions:
REMARK  status: ('A' for Active; 'I' for Inactive)
REMARK    1  A    between atoms: C_1  and  O_2
REMARK    2  A    between atoms: O_2  and  C_3
REMARK    3  A    between atoms: C_6  and  N_7
REMARK    4  A    between atoms: C_8  and  C_10
REMARK    5  A    between atoms: C_16  and  C_17
REMARK    6  A    between atoms: C_18  and  C_19
REMARK    7  A    between atoms: C_19  and  O_21
REMARK                            x       y       z     vdW  Elec       q    Type
REMARK                         _______ _______ _______ _____ _____    ______ ____
ROOT
ATOM      1  C   UNL     1       1.710   8.291  19.949  0.00  0.00    +0.000 A 
ATOM      2  C   UNL     1       1.330   9.222  19.055  0.00  0.00    +0.000 A 
ATOM      3  C   UNL     1       0.745  10.475  19.515  0.00  0.00    +0.000 A 
ATOM      4  O   UNL     1       0.660  11.451  18.783  0.00  0.00    +0.000 OA
ATOM      5  C   UNL     1       0.240  10.474  20.883  0.00  0.00    +0.000 A 
ATOM      6  C   UNL     1      -0.644  11.495  21.273  0.00  0.00    +0.000 A 
ATOM      7  C   UNL     1      -1.266  11.455  22.519  0.00  0.00    +0.000 A 
ATOM      8  C   UNL     1      -0.953  10.365  23.356  0.00  0.00    +0.000 A 
ATOM      9  C   UNL     1      -0.025   9.362  22.971  0.00  0.00    +0.000 A 
ATOM     10  C   UNL     1       0.576   9.406  21.717  0.00  0.00    +0.000 A 
ATOM     11  O   UNL     1       1.441   8.387  21.320  0.00  0.00    +0.000 OA
ENDROOT
BRANCH   1  13
ATOM     12  N   UNL     1       2.960   7.291  18.020  0.00  0.00    +0.000 N 
ATOM     13  C   UNL     1       2.474   7.143  19.306  0.00  0.00    +0.000 C 
ATOM     14  O   UNL     1       2.605   6.110  19.966  0.00  0.00    +0.000 OA
ATOM     15  H   UNL     1       2.744   8.146  17.525  0.00  0.00    +0.000 HD
BRANCH  12  19
ATOM     16  C   UNL     1       5.280   4.330  15.956  0.00  0.00    +0.000 A 
ATOM     17  C   UNL     1       5.583   5.677  15.816  0.00  0.00    +0.000 A 
ATOM     18  C   UNL     1       4.849   6.656  16.502  0.00  0.00    +0.000 A 
ATOM     19  C   UNL     1       3.769   6.329  17.336  0.00  0.00    +0.000 A 
ATOM     20  C   UNL     1       3.478   4.960  17.473  0.00  0.00    +0.000 A 
ATOM     21  C   UNL     1       4.224   3.972  16.788  0.00  0.00    +0.000 A 
BRANCH  16  23
ATOM     22  C   UNL     1       6.374   3.891  13.884  0.00  0.00    +0.000 C 
ATOM     23  O   UNL     1       6.060   3.490  15.213  0.00  0.00    +0.000 OA
ENDBRANCH  16  23
ENDBRANCH  12  19
ENDBRANCH   1  13
BRANCH   7  24
ATOM     24  C   UNL     1      -2.249  12.472  22.960  0.00  0.00    +0.000 C 
ATOM     25  C   UNL     1      -3.366  12.247  23.673  0.00  0.00    +0.000 C 
BRANCH  25  26
ATOM     26  C   UNL     1      -4.246  13.385  24.030  0.00  0.00    +0.000 C 
ATOM     27  O   UNL     1      -5.301  13.642  23.478  0.00  0.00    +0.000 OA
BRANCH  26  28
ATOM     28  O   UNL     1      -3.755  14.116  25.049  0.00  0.00    +0.000 OA
ATOM     29  H   UNL     1      -3.110  14.807  24.811  0.00  0.00    +0.000 HD
ENDBRANCH  26  28
ENDBRANCH  25  26
ENDBRANCH   7  24
TORSDOF 6
ENDMDL
MODEL 5
REMARK VINA RESULT:      -7.9      2.376      4.476
REMARK  Name = 
REMARK  7 active torsions:
REMARK  status: ('A' for Active; 'I' for Inactive)
REMARK    1  A    between atoms: C_1  and  O_2
REMARK    2  A    between atoms: O_2  and  C_3
REMARK    3  A    between atoms: C_6  and  N_7
REMARK    4  A    between atoms: C_8  and  C_10
REMARK    5  A    between atoms: C_16  and  C_17
REMARK    6  A    between atoms: C_18  and  C_19
REMARK    7  A    between atoms: C_19  and  O_21
REMARK                            x       y       z     vdW  Elec       q    Type
REMARK                         _______ _______ _______ _____ _____    ______ ____
ROOT
ATOM      1  C   UNL     1       0.944   9.295  20.868  0.00  0.00    +0.000 A 
ATOM      2  C   UNL     1       1.243   9.969  19.743  0.00  0.00    +0.000 A 
ATOM      3  C   UNL     1       1.715   9.248  18.568  0.00  0.00    +0.000 A 
ATOM      4  O   UNL     1       1.715   9.760  17.457  0.00  0.00    +0.000 OA
ATOM      5  C   UNL     1       2.216   7.900  18.811  0.00  0.00    +0.000 A 
ATOM      6  C   UNL     1       3.005   7.289  17.821  0.00  0.00    +0.000 A 
ATOM      7  C   UNL     1       3.626   6.067  18.066  0.00  0.00    +0.000 A 
ATOM      8  C   UNL     1       3.408   5.480  19.329  0.00  0.00    +0.000 A 
ATOM      9  C   UNL     1       2.572   6.083  20.306  0.00  0.00    +0.000 A 
ATOM     10  C   UNL     1       1.972   7.313  20.053  0.00  0.00    +0.000 A 
ATOM     11  O   UNL     1       1.201   7.930  21.038  0.00  0.00    +0.000 OA
ENDROOT
BRANCH   1  13
ATOM     12  N   UNL     1      -0.413  11.301  21.516  0.00  0.00    +0.000 N 
ATOM     13  C   UNL     1       0.285  10.178  21.919  0.00  0.00    +0.000 C 
ATOM     14  O   UNL     1       0.427   9.855  23.100  0.00  0.00    +0.000 OA
ATOM     15  H   UNL     1      -0.418  11.531  20.531  0.00  0.00    +0.000 HD
BRANCH  12  19
ATOM     16  C   UNL     1      -2.585  13.985  24.064  0.00  0.00    +0.000 A 
ATOM     17  C   UNL     1      -3.089  12.721  23.788  0.00  0.00    +0.000 A 
ATOM     18  C   UNL     1      -2.381  11.823  22.976  0.00  0.00    +0.000 A 
ATOM     19  C   UNL     1      -1.152  12.162  22.388  0.00  0.00    +0.000 A 
ATOM     20  C   UNL     1      -0.651  13.442  22.682  0.00  0.00    +0.000 A 
ATOM     21  C   UNL     1      -1.361  14.344  23.508  0.00  0.00    +0.000 A 
BRANCH  16  23
ATOM     22  C   UNL     1      -2.847  15.978  25.344  0.00  0.00    +0.000 C 
ATOM     23  O   UNL     1      -3.390  14.761  24.848  0.00  0.00    +0.000 OA
ENDBRANCH  16  23
ENDBRANCH  12  19
ENDBRANCH   1  13
BRANCH   7  24
ATOM     24  C   UNL     1       4.515   5.405  17.084  0.00  0.00    +0.000 C 
ATOM     25  C   UNL     1       5.177   5.999  16.077  0.00  0.00    +0.000 C 
BRANCH  25  26
ATOM     26  C   UNL     1       6.028   5.183  15.179  0.00  0.00    +0.000 C 
ATOM     27  O   UNL     1       5.608   4.333  14.414  0.00  0.00    +0.000 OA
BRANCH  26  28
ATOM     28  O   UNL     1       7.335   5.486  15.291  0.00  0.00    +0.000 OA
ATOM     29  H   UNL     1       7.562   6.174  15.941  0.00  0.00    +0.000 HD
ENDBRANCH  26  28
ENDBRANCH  25  26
ENDBRANCH   7  24
TORSDOF 6
ENDMDL
MODEL 6
REMARK VINA RESULT:      -7.9      2.440      4.617
REMARK  Name = 
REMARK  7 active torsions:
REMARK  status: ('A' for Active; 'I' for Inactive)
REMARK    1  A    between atoms: C_1  and  O_2
REMARK    2  A    between atoms: O_2  and  C_3
REMARK    3  A    between atoms: C_6  and  N_7
REMARK    4  A    between atoms: C_8  and  C_10
REMARK    5  A    between atoms: C_16  and  C_17
REMARK    6  A    between atoms: C_18  and  C_19
REMARK    7  A    between atoms: C_19  and  O_21
REMARK                            x       y       z     vdW  Elec       q    Type
REMARK                         _______ _______ _______ _____ _____    ______ ____
ROOT
ATOM      1  C   UNL     1       0.855   9.415  20.910  0.00  0.00    +0.000 A 
ATOM      2  C   UNL     1       1.200  10.085  19.796  0.00  0.00    +0.000 A 
ATOM      3  C   UNL     1       1.685   9.356  18.630  0.00  0.00    +0.000 A 
ATOM      4  O   UNL     1       1.727   9.871  17.522  0.00  0.00    +0.000 OA
ATOM      5  C   UNL     1       2.144   7.994  18.880  0.00  0.00    +0.000 A 
ATOM      6  C   UNL     1       2.943   7.366  17.909  0.00  0.00    +0.000 A 
ATOM      7  C   UNL     1       3.525   6.128  18.165  0.00  0.00    +0.000 A 
ATOM      8  C   UNL     1       3.259   5.542  19.420  0.00  0.00    +0.000 A 
ATOM      9  C   UNL     1       2.414   6.163  20.377  0.00  0.00    +0.000 A 
ATOM     10  C   UNL     1       1.853   7.409  20.114  0.00  0.00    +0.000 A 
ATOM     11  O   UNL     1       1.071   8.042  21.080  0.00  0.00    +0.000 OA
ENDROOT
BRANCH   1  13
ATOM     12  N   UNL     1      -0.498  11.433  21.527  0.00  0.00    +0.000 N 
ATOM     13  C   UNL     1       0.191  10.310  21.947  0.00  0.00    +0.000 C 
ATOM     14  O   UNL     1       0.323   9.998  23.132  0.00  0.00    +0.000 OA
ATOM     15  H   UNL     1      -0.495  11.652  20.540  0.00  0.00    +0.000 HD
BRANCH  12  19
ATOM     16  C   UNL     1      -2.782  13.941  24.155  0.00  0.00    +0.000 A 
ATOM     17  C   UNL     1      -1.515  14.331  23.742  0.00  0.00    +0.000 A 
ATOM     18  C   UNL     1      -0.765  13.534  22.866  0.00  0.00    +0.000 A 
ATOM     19  C   UNL     1      -1.241  12.304  22.385  0.00  0.00    +0.000 A 
ATOM     20  C   UNL     1      -2.528  11.926  22.806  0.00  0.00    +0.000 A 
ATOM     21  C   UNL     1      -3.288  12.734  23.684  0.00  0.00    +0.000 A 
BRANCH  16  23
ATOM     22  C   UNL     1      -3.739  16.090  24.538  0.00  0.00    +0.000 C 
ATOM     23  O   UNL     1      -3.388  14.801  25.026  0.00  0.00    +0.000 OA
ENDBRANCH  16  23
ENDBRANCH  12  19
ENDBRANCH   1  13
BRANCH   7  24
ATOM     24  C   UNL     1       4.422   5.446  17.204  0.00  0.00    +0.000 C 
ATOM     25  C   UNL     1       5.717   5.729  16.979  0.00  0.00    +0.000 C 
BRANCH  25  26
ATOM     26  C   UNL     1       6.472   4.946  15.973  0.00  0.00    +0.000 C 
ATOM     27  O   UNL     1       7.309   5.411  15.221  0.00  0.00    +0.000 OA
BRANCH  26  28
ATOM     28  O   UNL     1       6.139   3.641  15.979  0.00  0.00    +0.000 OA
ATOM     29  H   UNL     1       5.857   3.265  15.126  0.00  0.00    +0.000 HD
ENDBRANCH  26  28
ENDBRANCH  25  26
ENDBRANCH   7  24
TORSDOF 6
ENDMDL
MODEL 7
REMARK VINA RESULT:      -7.5      2.437     11.287
REMARK  Name = 
REMARK  7 active torsions:
REMARK  status: ('A' for Active; 'I' for Inactive)
REMARK    1  A    between atoms: C_1  and  O_2
REMARK    2  A    between atoms: O_2  and  C_3
REMARK    3  A    between atoms: C_6  and  N_7
REMARK    4  A    between atoms: C_8  and  C_10
REMARK    5  A    between atoms: C_16  and  C_17
REMARK    6  A    between atoms: C_18  and  C_19
REMARK    7  A    between atoms: C_19  and  O_21
REMARK                            x       y       z     vdW  Elec       q    Type
REMARK                         _______ _______ _______ _____ _____    ______ ____
ROOT
ATOM      1  C   UNL     1       1.193   9.439  19.454  0.00  0.00    +0.000 A 
ATOM      2  C   UNL     1       0.914   8.790  20.599  0.00  0.00    +0.000 A 
ATOM      3  C   UNL     1       0.002   9.384  21.568  0.00  0.00    +0.000 A 
ATOM      4  O   UNL     1      -0.507   8.722  22.461  0.00  0.00    +0.000 OA
ATOM      5  C   UNL     1      -0.234  10.816  21.420  0.00  0.00    +0.000 A 
ATOM      6  C   UNL     1      -0.796  11.518  22.501  0.00  0.00    +0.000 A 
ATOM      7  C   UNL     1      -0.903  12.906  22.463  0.00  0.00    +0.000 A 
ATOM      8  C   UNL     1      -0.443  13.552  21.297  0.00  0.00    +0.000 A 
ATOM      9  C   UNL     1       0.082  12.831  20.193  0.00  0.00    +0.000 A 
ATOM     10  C   UNL     1       0.199  11.445  20.252  0.00  0.00    +0.000 A 
ATOM     11  O   UNL     1       0.769  10.746  19.189  0.00  0.00    +0.000 OA
ENDROOT
BRANCH   1  13
ATOM     12  N   UNL     1       2.588   7.422  18.936  0.00  0.00    +0.000 N 
ATOM     13  C   UNL     1       2.001   8.588  18.484  0.00  0.00    +0.000 C 
ATOM     14  O   UNL     1       2.113   9.001  17.328  0.00  0.00    +0.000 OA
ATOM     15  H   UNL     1       2.505   7.196  19.919  0.00  0.00    +0.000 HD
BRANCH  12  19
ATOM     16  C   UNL     1       4.816   4.683  16.496  0.00  0.00    +0.000 A 
ATOM     17  C   UNL     1       3.663   4.263  17.145  0.00  0.00    +0.000 A 
ATOM     18  C   UNL     1       2.911   5.151  17.928  0.00  0.00    +0.000 A 
ATOM     19  C   UNL     1       3.294   6.488  18.112  0.00  0.00    +0.000 A 
ATOM     20  C   UNL     1       4.460   6.902  17.444  0.00  0.00    +0.000 A 
ATOM     21  C   UNL     1       5.214   6.008  16.647  0.00  0.00    +0.000 A 
BRANCH  16  23
ATOM     22  C   UNL     1       6.045   4.078  14.546  0.00  0.00    +0.000 C 
ATOM     23  O   UNL     1       5.460   3.708  15.789  0.00  0.00    +0.000 OA
ENDBRANCH  16  23
ENDBRANCH  12  19
ENDBRANCH   1  13
BRANCH   7  24
ATOM     24  C   UNL     1      -1.432  13.703  23.594  0.00  0.00    +0.000 C 
ATOM     25  C   UNL     1      -2.696  14.134  23.746  0.00  0.00    +0.000 C 
BRANCH  25  26
ATOM     26  C   UNL     1      -3.058  14.928  24.944  0.00  0.00    +0.000 C 
ATOM     27  O   UNL     1      -2.296  15.186  25.858  0.00  0.00    +0.000 OA
BRANCH  26  28
ATOM     28  O   UNL     1      -4.337  15.348  24.917  0.00  0.00    +0.000 OA
ATOM     29  H   UNL     1      -5.016  14.670  25.085  0.00  0.00    +0.000 HD
ENDBRANCH  26  28
ENDBRANCH  25  26
ENDBRANCH   7  24
TORSDOF 6
ENDMDL
MODEL 8
REMARK VINA RESULT:      -7.5      2.514      4.297
REMARK  Name = 
REMARK  7 active torsions:
REMARK  status: ('A' for Active; 'I' for Inactive)
REMARK    1  A    between atoms: C_1  and  O_2
REMARK    2  A    between atoms: O_2  and  C_3
REMARK    3  A    between atoms: C_6  and  N_7
REMARK    4  A    between atoms: C_8  and  C_10
REMARK    5  A    between atoms: C_16  and  C_17
REMARK    6  A    between atoms: C_18  and  C_19
REMARK    7  A    between atoms: C_19  and  O_21
REMARK                            x       y       z     vdW  Elec       q    Type
REMARK                         _______ _______ _______ _____ _____    ______ ____
ROOT
ATOM      1  C   UNL     1       0.820   8.893  20.383  0.00  0.00    +0.000 A 
ATOM      2  C   UNL     1       1.277   9.555  19.304  0.00  0.00    +0.000 A 
ATOM      3  C   UNL     1       2.014   8.839  18.271  0.00  0.00    +0.000 A 
ATOM      4  O   UNL     1       2.187   9.316  17.158  0.00  0.00    +0.000 OA
ATOM      5  C   UNL     1       2.556   7.542  18.662  0.00  0.00    +0.000 A 
ATOM      6  C   UNL     1       3.560   6.967  17.865  0.00  0.00    +0.000 A 
ATOM      7  C   UNL     1       4.210   5.805  18.275  0.00  0.00    +0.000 A 
ATOM      8  C   UNL     1       3.800   5.241  19.500  0.00  0.00    +0.000 A 
ATOM      9  C   UNL     1       2.753   5.804  20.277  0.00  0.00    +0.000 A 
ATOM     10  C   UNL     1       2.125   6.975  19.862  0.00  0.00    +0.000 A 
ATOM     11  O   UNL     1       1.138   7.558  20.657  0.00  0.00    +0.000 OA
ENDROOT
BRANCH   1  13
ATOM     12  N   UNL     1      -0.320  11.066  20.894  0.00  0.00    +0.000 N 
ATOM     13  C   UNL     1      -0.088   9.751  21.252  0.00  0.00    +0.000 C 
ATOM     14  O   UNL     1      -0.562   9.230  22.263  0.00  0.00    +0.000 OA
ATOM     15  H   UNL     1       0.167  11.433  20.087  0.00  0.00    +0.000 HD
BRANCH  12  19
ATOM     16  C   UNL     1      -2.916  13.790  22.957  0.00  0.00    +0.000 A 
ATOM     17  C   UNL     1      -3.338  13.173  21.787  0.00  0.00    +0.000 A 
ATOM     18  C   UNL     1      -2.511  12.262  21.113  0.00  0.00    +0.000 A 
ATOM     19  C   UNL     1      -1.220  11.951  21.568  0.00  0.00    +0.000 A 
ATOM     20  C   UNL     1      -0.809  12.579  22.757  0.00  0.00    +0.000 A 
ATOM     21  C   UNL     1      -1.647  13.490  23.441  0.00  0.00    +0.000 A 
BRANCH  16  23
ATOM     22  C   UNL     1      -5.084  14.776  22.862  0.00  0.00    +0.000 C 
ATOM     23  O   UNL     1      -3.813  14.670  23.492  0.00  0.00    +0.000 OA
ENDBRANCH  16  23
ENDBRANCH  12  19
ENDBRANCH   1  13
BRANCH   7  24
ATOM     24  C   UNL     1       5.315   5.187  17.506  0.00  0.00    +0.000 C 
ATOM     25  C   UNL     1       6.109   5.801  16.612  0.00  0.00    +0.000 C 
BRANCH  25  26
ATOM     26  C   UNL     1       7.171   5.029  15.926  0.00  0.00    +0.000 C 
ATOM     27  O   UNL     1       7.502   5.189  14.765  0.00  0.00    +0.000 OA
BRANCH  26  28
ATOM     28  O   UNL     1       7.749   4.118  16.733  0.00  0.00    +0.000 OA
ATOM     29  H   UNL     1       7.961   4.417  17.636  0.00  0.00    +0.000 HD
ENDBRANCH  26  28
ENDBRANCH  25  26
ENDBRANCH   7  24
TORSDOF 6
ENDMDL
MODEL 9
REMARK VINA RESULT:      -7.4      2.263     11.250
REMARK  Name = 
REMARK  7 active torsions:
REMARK  status: ('A' for Active; 'I' for Inactive)
REMARK    1  A    between atoms: C_1  and  O_2
REMARK    2  A    between atoms: O_2  and  C_3
REMARK    3  A    between atoms: C_6  and  N_7
REMARK    4  A    between atoms: C_8  and  C_10
REMARK    5  A    between atoms: C_16  and  C_17
REMARK    6  A    between atoms: C_18  and  C_19
REMARK    7  A    between atoms: C_19  and  O_21
REMARK                            x       y       z     vdW  Elec       q    Type
REMARK                         _______ _______ _______ _____ _____    ______ ____
ROOT
ATOM      1  C   UNL     1       1.110   9.224  19.458  0.00  0.00    +0.000 A 
ATOM      2  C   UNL     1       1.508   9.148  20.741  0.00  0.00    +0.000 A 
ATOM      3  C   UNL     1       0.688   9.738  21.792  0.00  0.00    +0.000 A 
ATOM      4  O   UNL     1       0.845   9.445  22.969  0.00  0.00    +0.000 OA
ATOM      5  C   UNL     1      -0.298  10.717  21.351  0.00  0.00    +0.000 A 
ATOM      6  C   UNL     1      -0.863  11.578  22.309  0.00  0.00    +0.000 A 
ATOM      7  C   UNL     1      -1.696  12.623  21.916  0.00  0.00    +0.000 A 
ATOM      8  C   UNL     1      -1.950  12.756  20.536  0.00  0.00    +0.000 A 
ATOM      9  C   UNL     1      -1.412  11.854  19.581  0.00  0.00    +0.000 A 
ATOM     10  C   UNL     1      -0.567  10.825  19.986  0.00  0.00    +0.000 A 
ATOM     11  O   UNL     1       0.007   9.978  19.038  0.00  0.00    +0.000 OA
ENDROOT
BRANCH   1  13
ATOM     12  N   UNL     1       2.587   7.248  19.013  0.00  0.00    +0.000 N 
ATOM     13  C   UNL     1       1.980   8.391  18.527  0.00  0.00    +0.000 C 
ATOM     14  O   UNL     1       2.121   8.796  17.371  0.00  0.00    +0.000 OA
ATOM     15  H   UNL     1       2.474   7.030  19.995  0.00  0.00    +0.000 HD
BRANCH  12  19
ATOM     16  C   UNL     1       4.766   4.439  16.611  0.00  0.00    +0.000 A 
ATOM     17  C   UNL     1       5.270   5.715  16.824  0.00  0.00    +0.000 A 
ATOM     18  C   UNL     1       4.581   6.638  17.625  0.00  0.00    +0.000 A 
ATOM     19  C   UNL     1       3.351   6.330  18.226  0.00  0.00    +0.000 A 
ATOM     20  C   UNL     1       2.857   5.032  18.007  0.00  0.00    +0.000 A 
ATOM     21  C   UNL     1       3.555   4.098  17.206  0.00  0.00    +0.000 A 
BRANCH  16  23
ATOM     22  C   UNL     1       5.993   4.233  14.578  0.00  0.00    +0.000 C 
ATOM     23  O   UNL     1       5.528   3.655  15.792  0.00  0.00    +0.000 OA
ENDBRANCH  16  23
ENDBRANCH  12  19
ENDBRANCH   1  13
BRANCH   7  24
ATOM     24  C   UNL     1      -2.272  13.595  22.874  0.00  0.00    +0.000 C 
ATOM     25  C   UNL     1      -3.107  13.318  23.891  0.00  0.00    +0.000 C 
BRANCH  25  26
ATOM     26  C   UNL     1      -3.594  14.418  24.757  0.00  0.00    +0.000 C 
ATOM     27  O   UNL     1      -2.921  14.983  25.600  0.00  0.00    +0.000 OA
BRANCH  26  28
ATOM     28  O   UNL     1      -4.877  14.740  24.508  0.00  0.00    +0.000 OA
ATOM     29  H   UNL     1      -5.331  14.206  23.831  0.00  0.00    +0.000 HD
ENDBRANCH  26  28
ENDBRANCH  25  26
ENDBRANCH   7  24
TORSDOF 6
ENDMDL
