MODEL 1
REMARK VINA RESULT:      -8.5      0.000      0.000
REMARK  Name = 
REMARK  9 active torsions:
REMARK  status: ('A' for Active; 'I' for Inactive)
REMARK    1  A    between atoms: C_1  and  N_2
REMARK    2  A    between atoms: N_2  and  C_3
REMARK    3  A    between atoms: N_2  and  C_4
REMARK    4  A    between atoms: C_4  and  C_5
REMARK    5  A    between atoms: C_7  and  C_8
REMARK    6  A    between atoms: C_16  and  O_17
REMARK    7  A    between atoms: O_17  and  C_18
REMARK    8  A    between atoms: C_18  and  C_19
REMARK    9  A    between atoms: N_24  and  C_25
REMARK                            x       y       z     vdW  Elec       q    Type
REMARK                         _______ _______ _______ _____ _____    ______ ____
ROOT
ATOM      1  O   UNL     1       3.614   6.125  19.324  0.00  0.00    +0.000 OA
ENDROOT
BRANCH   1   7
ATOM      2  C   UNL     1       4.050   4.272  17.681  0.00  0.00    +0.000 A 
ATOM      3  C   UNL     1       4.640   3.997  16.418  0.00  0.00    +0.000 A 
ATOM      4  C   UNL     1       5.204   4.980  15.586  0.00  0.00    +0.000 A 
ATOM      5  C   UNL     1       5.100   6.302  16.027  0.00  0.00    +0.000 A 
ATOM      6  C   UNL     1       4.523   6.603  17.269  0.00  0.00    +0.000 A 
ATOM      7  C   UNL     1       4.005   5.608  18.114  0.00  0.00    +0.000 A 
BRANCH   4   8
ATOM      8  C   UNL     1       5.973   4.594  14.375  0.00  0.00    +0.000 A 
ATOM      9  C   UNL     1       7.162   5.253  14.007  0.00  0.00    +0.000 A 
ATOM     10  C   UNL     1       7.794   4.997  12.785  0.00  0.00    +0.000 A 
ATOM     11  C   UNL     1       7.267   4.051  11.912  0.00  0.00    +0.000 A 
ATOM     12  C   UNL     1       6.118   3.353  12.268  0.00  0.00    +0.000 A 
ATOM     13  C   UNL     1       5.480   3.623  13.483  0.00  0.00    +0.000 A 
ENDBRANCH   4   8
BRANCH   2  14
ATOM     14  C   UNL     1       3.641   3.041  18.472  0.00  0.00    +0.000 C 
BRANCH  14  16
ATOM     15  C   UNL     1       1.233   2.641  18.740  0.00  0.00    +0.000 C 
ATOM     16  N   UNL     1       2.448   3.203  19.316  0.00  0.00    +0.000 NA
ATOM     17  C   UNL     1       2.699   2.658  20.649  0.00  0.00    +0.000 C 
ENDBRANCH  14  16
ENDBRANCH   2  14
ENDBRANCH   1   7
BRANCH   1  18
ATOM     18  C   UNL     1       2.751   7.248  19.324  0.00  0.00    +0.000 C 
BRANCH  18  19
ATOM     19  C   UNL     1       1.660   7.191  20.391  0.00  0.00    +0.000 C 
ATOM     20  O   UNL     1       1.551   6.178  21.094  0.00  0.00    +0.000 OA
ATOM     21  N   UNL     1       0.784   8.249  20.526  0.00  0.00    +0.000 N 
ATOM     22  C   UNL     1      -0.170   8.244  21.641  0.00  0.00    +0.000 C 
ATOM     23  C   UNL     1       0.113   9.419  22.587  0.00  0.00    +0.000 C 
ATOM     24  N   UNL     1       0.112  10.689  21.834  0.00  0.00    +0.000 N 
ATOM     25  C   UNL     1       1.034  10.729  20.680  0.00  0.00    +0.000 C 
ATOM     26  C   UNL     1       0.808   9.503  19.763  0.00  0.00    +0.000 C 
BRANCH  24  27
ATOM     27  C   UNL     1      -0.794  11.698  22.096  0.00  0.00    +0.000 A 
ATOM     28  C   UNL     1      -1.770  11.558  23.097  0.00  0.00    +0.000 A 
ATOM     29  C   UNL     1      -2.719  12.553  23.358  0.00  0.00    +0.000 A 
ATOM     30  C   UNL     1      -2.710  13.727  22.614  0.00  0.00    +0.000 A 
ATOM     31  C   UNL     1      -1.748  13.897  21.625  0.00  0.00    +0.000 A 
ATOM     32 CL   UNL     1      -1.716  15.352  20.703  0.00  0.00    +0.000 Cl
ATOM     33  C   UNL     1      -0.803  12.896  21.370  0.00  0.00    +0.000 A 
ENDBRANCH  24  27
ENDBRANCH  18  19
ENDBRANCH   1  18
TORSDOF 7
ENDMDL
MODEL 2
REMARK VINA RESULT:      -8.5      1.044      1.365
REMARK  Name = 
REMARK  9 active torsions:
REMARK  status: ('A' for Active; 'I' for Inactive)
REMARK    1  A    between atoms: C_1  and  N_2
REMARK    2  A    between atoms: N_2  and  C_3
REMARK    3  A    between atoms: N_2  and  C_4
REMARK    4  A    between atoms: C_4  and  C_5
REMARK    5  A    between atoms: C_7  and  C_8
REMARK    6  A    between atoms: C_16  and  O_17
REMARK    7  A    between atoms: O_17  and  C_18
REMARK    8  A    between atoms: C_18  and  C_19
REMARK    9  A    between atoms: N_24  and  C_25
REMARK                            x       y       z     vdW  Elec       q    Type
REMARK                         _______ _______ _______ _____ _____    ______ ____
ROOT
ATOM      1  O   UNL     1       3.464   6.278  19.360  0.00  0.00    +0.000 OA
ENDROOT
BRANCH   1   7
ATOM      2  C   UNL     1       3.606   4.544  17.544  0.00  0.00    +0.000 A 
ATOM      3  C   UNL     1       4.245   4.249  16.310  0.00  0.00    +0.000 A 
ATOM      4  C   UNL     1       5.124   5.129  15.654  0.00  0.00    +0.000 A 
ATOM      5  C   UNL     1       5.302   6.383  16.243  0.00  0.00    +0.000 A 
ATOM      6  C   UNL     1       4.684   6.702  17.460  0.00  0.00    +0.000 A 
ATOM      7  C   UNL     1       3.845   5.798  18.132  0.00  0.00    +0.000 A 
BRANCH   4   8
ATOM      8  C   UNL     1       5.902   4.677  14.472  0.00  0.00    +0.000 A 
ATOM      9  C   UNL     1       7.155   5.234  14.148  0.00  0.00    +0.000 A 
ATOM     10  C   UNL     1       7.808   4.922  12.950  0.00  0.00    +0.000 A 
ATOM     11  C   UNL     1       7.237   4.020  12.058  0.00  0.00    +0.000 A 
ATOM     12  C   UNL     1       6.022   3.421  12.372  0.00  0.00    +0.000 A 
ATOM     13  C   UNL     1       5.364   3.746  13.563  0.00  0.00    +0.000 A 
ENDBRANCH   4   8
BRANCH   2  14
ATOM     14  C   UNL     1       2.820   3.389  18.144  0.00  0.00    +0.000 C 
BRANCH  14  16
ATOM     15  C   UNL     1       1.923   2.515  20.255  0.00  0.00    +0.000 C 
ATOM     16  N   UNL     1       3.042   3.155  19.578  0.00  0.00    +0.000 NA
ATOM     17  C   UNL     1       4.278   2.400  19.777  0.00  0.00    +0.000 C 
ENDBRANCH  14  16
ENDBRANCH   2  14
ENDBRANCH   1   7
BRANCH   1  18
ATOM     18  C   UNL     1       2.632   7.424  19.400  0.00  0.00    +0.000 C 
BRANCH  18  19
ATOM     19  C   UNL     1       1.514   7.342  20.437  0.00  0.00    +0.000 C 
ATOM     20  O   UNL     1       1.388   6.314  21.113  0.00  0.00    +0.000 OA
ATOM     21  N   UNL     1       0.633   8.396  20.572  0.00  0.00    +0.000 N 
ATOM     22  C   UNL     1      -0.350   8.365  21.661  0.00  0.00    +0.000 C 
ATOM     23  C   UNL     1      -0.093   9.519  22.641  0.00  0.00    +0.000 C 
ATOM     24  N   UNL     1      -0.077  10.806  21.917  0.00  0.00    +0.000 N 
ATOM     25  C   UNL     1       0.875  10.872  20.788  0.00  0.00    +0.000 C 
ATOM     26  C   UNL     1       0.675   9.667  19.839  0.00  0.00    +0.000 C 
BRANCH  24  27
ATOM     27  C   UNL     1      -0.991  11.807  22.177  0.00  0.00    +0.000 A 
ATOM     28  C   UNL     1      -0.981  13.009  21.448  0.00  0.00    +0.000 A 
ATOM     29  C   UNL     1      -1.876  14.050  21.716  0.00  0.00    +0.000 A 
ATOM     30  C   UNL     1      -2.815  13.910  22.730  0.00  0.00    +0.000 A 
ATOM     31  C   UNL     1      -2.855  12.728  23.460  0.00  0.00    +0.000 A 
ATOM     32 CL   UNL     1      -4.022  12.533  24.712  0.00  0.00    +0.000 Cl
ATOM     33  C   UNL     1      -1.955  11.690  23.186  0.00  0.00    +0.000 A 
ENDBRANCH  24  27
ENDBRANCH  18  19
ENDBRANCH   1  18
TORSDOF 7
ENDMDL
MODEL 3
REMARK VINA RESULT:      -8.4      2.617      3.833
REMARK  Name = 
REMARK  9 active torsions:
REMARK  status: ('A' for Active; 'I' for Inactive)
REMARK    1  A    between atoms: C_1  and  N_2
REMARK    2  A    between atoms: N_2  and  C_3
REMARK    3  A    between atoms: N_2  and  C_4
REMARK    4  A    between atoms: C_4  and  C_5
REMARK    5  A    between atoms: C_7  and  C_8
REMARK    6  A    between atoms: C_16  and  O_17
REMARK    7  A    between atoms: O_17  and  C_18
REMARK    8  A    between atoms: C_18  and  C_19
REMARK    9  A    between atoms: N_24  and  C_25
REMARK                            x       y       z     vdW  Elec       q    Type
REMARK                         _______ _______ _______ _____ _____    ______ ____
ROOT
ATOM      1  O   UNL     1       1.383   8.157  20.384  0.00  0.00    +0.000 OA
ENDROOT
BRANCH   1   7
ATOM      2  C   UNL     1       2.494   5.990  19.757  0.00  0.00    +0.000 A 
ATOM      3  C   UNL     1       3.408   5.414  18.835  0.00  0.00    +0.000 A 
ATOM      4  C   UNL     1       3.992   6.118  17.767  0.00  0.00    +0.000 A 
ATOM      5  C   UNL     1       3.574   7.440  17.592  0.00  0.00    +0.000 A 
ATOM      6  C   UNL     1       2.673   8.035  18.487  0.00  0.00    +0.000 A 
ATOM      7  C   UNL     1       2.132   7.335  19.579  0.00  0.00    +0.000 A 
BRANCH   4   8
ATOM      8  C   UNL     1       5.082   5.506  16.965  0.00  0.00    +0.000 A 
ATOM      9  C   UNL     1       6.228   4.951  17.567  0.00  0.00    +0.000 A 
ATOM     10  C   UNL     1       7.322   4.523  16.806  0.00  0.00    +0.000 A 
ATOM     11  C   UNL     1       7.284   4.611  15.419  0.00  0.00    +0.000 A 
ATOM     12  C   UNL     1       6.147   5.114  14.794  0.00  0.00    +0.000 A 
ATOM     13  C   UNL     1       5.062   5.556  15.558  0.00  0.00    +0.000 A 
ENDBRANCH   4   8
BRANCH   2  14
ATOM     14  C   UNL     1       2.109   5.086  20.917  0.00  0.00    +0.000 C 
BRANCH  14  16
ATOM     15  C   UNL     1       2.295   2.783  21.747  0.00  0.00    +0.000 C 
ATOM     16  N   UNL     1       2.051   3.651  20.603  0.00  0.00    +0.000 NA
ATOM     17  C   UNL     1       0.778   3.329  19.961  0.00  0.00    +0.000 C 
ENDBRANCH  14  16
ENDBRANCH   2  14
ENDBRANCH   1   7
BRANCH   1  18
ATOM     18  C   UNL     1       0.906   9.374  19.838  0.00  0.00    +0.000 C 
BRANCH  18  19
ATOM     19  C   UNL     1       0.718  10.484  20.870  0.00  0.00    +0.000 C 
ATOM     20  O   UNL     1       1.140  10.320  22.021  0.00  0.00    +0.000 OA
ATOM     21  N   UNL     1       0.039  11.633  20.517  0.00  0.00    +0.000 N 
ATOM     22  C   UNL     1      -0.017  12.746  21.471  0.00  0.00    +0.000 C 
ATOM     23  C   UNL     1       0.705  13.974  20.897  0.00  0.00    +0.000 C 
ATOM     24  N   UNL     1       0.146  14.320  19.575  0.00  0.00    +0.000 N 
ATOM     25  C   UNL     1       0.150  13.218  18.590  0.00  0.00    +0.000 C 
ATOM     26  C   UNL     1      -0.505  11.951  19.191  0.00  0.00    +0.000 C 
BRANCH  24  27
ATOM     27  C   UNL     1      -0.474  15.529  19.333  0.00  0.00    +0.000 A 
ATOM     28  C   UNL     1      -1.524  15.985  20.148  0.00  0.00    +0.000 A 
ATOM     29  C   UNL     1      -2.189  17.192  19.903  0.00  0.00    +0.000 A 
ATOM     30  C   UNL     1      -1.810  17.981  18.824  0.00  0.00    +0.000 A 
ATOM     31  C   UNL     1      -0.766  17.560  18.007  0.00  0.00    +0.000 A 
ATOM     32 CL   UNL     1      -0.276  18.534  16.674  0.00  0.00    +0.000 Cl
ATOM     33  C   UNL     1      -0.107  16.351  18.259  0.00  0.00    +0.000 A 
ENDBRANCH  24  27
ENDBRANCH  18  19
ENDBRANCH   1  18
TORSDOF 7
ENDMDL
MODEL 4
REMARK VINA RESULT:      -8.1      2.840      4.043
REMARK  Name = 
REMARK  9 active torsions:
REMARK  status: ('A' for Active; 'I' for Inactive)
REMARK    1  A    between atoms: C_1  and  N_2
REMARK    2  A    between atoms: N_2  and  C_3
REMARK    3  A    between atoms: N_2  and  C_4
REMARK    4  A    between atoms: C_4  and  C_5
REMARK    5  A    between atoms: C_7  and  C_8
REMARK    6  A    between atoms: C_16  and  O_17
REMARK    7  A    between atoms: O_17  and  C_18
REMARK    8  A    between atoms: C_18  and  C_19
REMARK    9  A    between atoms: N_24  and  C_25
REMARK                            x       y       z     vdW  Elec       q    Type
REMARK                         _______ _______ _______ _____ _____    ______ ____
ROOT
ATOM      1  O   UNL     1       1.432   8.048  20.588  0.00  0.00    +0.000 OA
ENDROOT
BRANCH   1   7
ATOM      2  C   UNL     1       2.333   5.863  19.728  0.00  0.00    +0.000 A 
ATOM      3  C   UNL     1       3.185   5.303  18.738  0.00  0.00    +0.000 A 
ATOM      4  C   UNL     1       3.826   6.057  17.739  0.00  0.00    +0.000 A 
ATOM      5  C   UNL     1       3.532   7.422  17.706  0.00  0.00    +0.000 A 
ATOM      6  C   UNL     1       2.695   8.003  18.669  0.00  0.00    +0.000 A 
ATOM      7  C   UNL     1       2.097   7.248  19.692  0.00  0.00    +0.000 A 
BRANCH   4   8
ATOM      8  C   UNL     1       4.850   5.432  16.862  0.00  0.00    +0.000 A 
ATOM      9  C   UNL     1       5.963   6.154  16.388  0.00  0.00    +0.000 A 
ATOM     10  C   UNL     1       6.835   5.613  15.436  0.00  0.00    +0.000 A 
ATOM     11  C   UNL     1       6.632   4.323  14.957  0.00  0.00    +0.000 A 
ATOM     12  C   UNL     1       5.567   3.571  15.441  0.00  0.00    +0.000 A 
ATOM     13  C   UNL     1       4.688   4.120  16.380  0.00  0.00    +0.000 A 
ENDBRANCH   4   8
BRANCH   2  14
ATOM     14  C   UNL     1       1.872   4.885  20.796  0.00  0.00    +0.000 C 
BRANCH  14  16
ATOM     15  C   UNL     1       2.621   2.673  21.555  0.00  0.00    +0.000 C 
ATOM     16  N   UNL     1       2.058   3.464  20.468  0.00  0.00    +0.000 NA
ATOM     17  C   UNL     1       0.800   2.889  19.996  0.00  0.00    +0.000 C 
ENDBRANCH  14  16
ENDBRANCH   2  14
ENDBRANCH   1   7
BRANCH   1  18
ATOM     18  C   UNL     1       0.628   9.096  20.078  0.00  0.00    +0.000 C 
BRANCH  18  19
ATOM     19  C   UNL     1       0.614  10.348  20.954  0.00  0.00    +0.000 C 
ATOM     20  O   UNL     1       0.785  10.237  22.174  0.00  0.00    +0.000 OA
ATOM     21  N   UNL     1       0.367  11.578  20.378  0.00  0.00    +0.000 N 
ATOM     22  C   UNL     1       0.491  12.786  21.202  0.00  0.00    +0.000 C 
ATOM     23  C   UNL     1       1.622  13.678  20.669  0.00  0.00    +0.000 C 
ATOM     24  N   UNL     1       1.403  13.976  19.240  0.00  0.00    +0.000 N 
ATOM     25  C   UNL     1       1.237  12.789  18.375  0.00  0.00    +0.000 C 
ATOM     26  C   UNL     1       0.154  11.846  18.950  0.00  0.00    +0.000 C 
BRANCH  24  27
ATOM     27  C   UNL     1       1.211  15.263  18.779  0.00  0.00    +0.000 A 
ATOM     28  C   UNL     1       2.279  16.019  18.266  0.00  0.00    +0.000 A 
ATOM     29  C   UNL     1       2.115  17.336  17.823  0.00  0.00    +0.000 A 
ATOM     30  C   UNL     1       0.861  17.933  17.881  0.00  0.00    +0.000 A 
ATOM     31  C   UNL     1      -0.215  17.204  18.373  0.00  0.00    +0.000 A 
ATOM     32 CL   UNL     1      -1.778  17.925  18.439  0.00  0.00    +0.000 Cl
ATOM     33  C   UNL     1      -0.042  15.887  18.815  0.00  0.00    +0.000 A 
ENDBRANCH  24  27
ENDBRANCH  18  19
ENDBRANCH   1  18
TORSDOF 7
ENDMDL
MODEL 5
REMARK VINA RESULT:      -8.1      1.141      1.569
REMARK  Name = 
REMARK  9 active torsions:
REMARK  status: ('A' for Active; 'I' for Inactive)
REMARK    1  A    between atoms: C_1  and  N_2
REMARK    2  A    between atoms: N_2  and  C_3
REMARK    3  A    between atoms: N_2  and  C_4
REMARK    4  A    between atoms: C_4  and  C_5
REMARK    5  A    between atoms: C_7  and  C_8
REMARK    6  A    between atoms: C_16  and  O_17
REMARK    7  A    between atoms: O_17  and  C_18
REMARK    8  A    between atoms: C_18  and  C_19
REMARK    9  A    between atoms: N_24  and  C_25
REMARK                            x       y       z     vdW  Elec       q    Type
REMARK                         _______ _______ _______ _____ _____    ______ ____
ROOT
ATOM      1  O   UNL     1       3.692   5.849  19.522  0.00  0.00    +0.000 OA
ENDROOT
BRANCH   1   7
ATOM      2  C   UNL     1       3.579   4.525  17.387  0.00  0.00    +0.000 A 
ATOM      3  C   UNL     1       4.237   4.329  16.142  0.00  0.00    +0.000 A 
ATOM      4  C   UNL     1       5.350   5.075  15.718  0.00  0.00    +0.000 A 
ATOM      5  C   UNL     1       5.766   6.106  16.565  0.00  0.00    +0.000 A 
ATOM      6  C   UNL     1       5.137   6.322  17.800  0.00  0.00    +0.000 A 
ATOM      7  C   UNL     1       4.055   5.539  18.234  0.00  0.00    +0.000 A 
BRANCH   4   8
ATOM      8  C   UNL     1       6.100   4.686  14.496  0.00  0.00    +0.000 A 
ATOM      9  C   UNL     1       7.267   5.362  14.092  0.00  0.00    +0.000 A 
ATOM     10  C   UNL     1       7.877   5.100  12.861  0.00  0.00    +0.000 A 
ATOM     11  C   UNL     1       7.351   4.131  12.014  0.00  0.00    +0.000 A 
ATOM     12  C   UNL     1       6.224   3.415  12.406  0.00  0.00    +0.000 A 
ATOM     13  C   UNL     1       5.608   3.691  13.630  0.00  0.00    +0.000 A 
ENDBRANCH   4   8
BRANCH   2  14
ATOM     14  C   UNL     1       2.496   3.506  17.699  0.00  0.00    +0.000 C 
BRANCH  14  16
ATOM     15  C   UNL     1       1.509   2.191  19.523  0.00  0.00    +0.000 C 
ATOM     16  N   UNL     1       2.728   2.690  18.900  0.00  0.00    +0.000 NA
ATOM     17  C   UNL     1       3.648   1.596  18.593  0.00  0.00    +0.000 C 
ENDBRANCH  14  16
ENDBRANCH   2  14
ENDBRANCH   1   7
BRANCH   1  18
ATOM     18  C   UNL     1       2.390   6.361  19.744  0.00  0.00    +0.000 C 
BRANCH  18  19
ATOM     19  C   UNL     1       2.129   7.705  19.066  0.00  0.00    +0.000 C 
ATOM     20  O   UNL     1       2.411   7.845  17.869  0.00  0.00    +0.000 OA
ATOM     21  N   UNL     1       1.626   8.754  19.808  0.00  0.00    +0.000 N 
ATOM     22  C   UNL     1       1.251   9.995  19.119  0.00  0.00    +0.000 C 
ATOM     23  C   UNL     1      -0.258  10.244  19.258  0.00  0.00    +0.000 C 
ATOM     24  N   UNL     1      -0.644  10.237  20.683  0.00  0.00    +0.000 N 
ATOM     25  C   UNL     1      -0.257   9.020  21.427  0.00  0.00    +0.000 C 
ATOM     26  C   UNL     1       1.248   8.718  21.226  0.00  0.00    +0.000 C 
BRANCH  24  27
ATOM     27  C   UNL     1      -1.184  11.345  21.304  0.00  0.00    +0.000 A 
ATOM     28  C   UNL     1      -0.722  11.773  22.560  0.00  0.00    +0.000 A 
ATOM     29  C   UNL     1      -1.275  12.874  23.223  0.00  0.00    +0.000 A 
ATOM     30  C   UNL     1      -2.315  13.583  22.634  0.00  0.00    +0.000 A 
ATOM     31  C   UNL     1      -2.784  13.189  21.387  0.00  0.00    +0.000 A 
ATOM     32 CL   UNL     1      -4.064  14.065  20.638  0.00  0.00    +0.000 Cl
ATOM     33  C   UNL     1      -2.226  12.085  20.730  0.00  0.00    +0.000 A 
ENDBRANCH  24  27
ENDBRANCH  18  19
ENDBRANCH   1  18
TORSDOF 7
ENDMDL
MODEL 6
REMARK VINA RESULT:      -7.9      0.964      1.168
REMARK  Name = 
REMARK  9 active torsions:
REMARK  status: ('A' for Active; 'I' for Inactive)
REMARK    1  A    between atoms: C_1  and  N_2
REMARK    2  A    between atoms: N_2  and  C_3
REMARK    3  A    between atoms: N_2  and  C_4
REMARK    4  A    between atoms: C_4  and  C_5
REMARK    5  A    between atoms: C_7  and  C_8
REMARK    6  A    between atoms: C_16  and  O_17
REMARK    7  A    between atoms: O_17  and  C_18
REMARK    8  A    between atoms: C_18  and  C_19
REMARK    9  A    between atoms: N_24  and  C_25
REMARK                            x       y       z     vdW  Elec       q    Type
REMARK                         _______ _______ _______ _____ _____    ______ ____
ROOT
ATOM      1  O   UNL     1       3.512   6.385  19.264  0.00  0.00    +0.000 OA
ENDROOT
BRANCH   1   7
ATOM      2  C   UNL     1       4.022   4.461  17.727  0.00  0.00    +0.000 A 
ATOM      3  C   UNL     1       4.630   4.137  16.484  0.00  0.00    +0.000 A 
ATOM      4  C   UNL     1       5.166   5.092  15.602  0.00  0.00    +0.000 A 
ATOM      5  C   UNL     1       5.013   6.431  15.969  0.00  0.00    +0.000 A 
ATOM      6  C   UNL     1       4.418   6.780  17.189  0.00  0.00    +0.000 A 
ATOM      7  C   UNL     1       3.928   5.816  18.085  0.00  0.00    +0.000 A 
BRANCH   4   8
ATOM      8  C   UNL     1       5.955   4.667  14.417  0.00  0.00    +0.000 A 
ATOM      9  C   UNL     1       7.192   5.259  14.095  0.00  0.00    +0.000 A 
ATOM     10  C   UNL     1       7.852   4.971  12.896  0.00  0.00    +0.000 A 
ATOM     11  C   UNL     1       7.305   4.059  12.000  0.00  0.00    +0.000 A 
ATOM     12  C   UNL     1       6.108   3.425  12.312  0.00  0.00    +0.000 A 
ATOM     13  C   UNL     1       5.442   3.726  13.504  0.00  0.00    +0.000 A 
ENDBRANCH   4   8
BRANCH   2  14
ATOM     14  C   UNL     1       3.651   3.261  18.583  0.00  0.00    +0.000 C 
BRANCH  14  16
ATOM     15  C   UNL     1       1.780   3.250  20.172  0.00  0.00    +0.000 C 
ATOM     16  N   UNL     1       2.210   3.060  18.793  0.00  0.00    +0.000 NA
ATOM     17  C   UNL     1       1.447   3.911  17.882  0.00  0.00    +0.000 C 
ENDBRANCH  14  16
ENDBRANCH   2  14
ENDBRANCH   1   7
BRANCH   1  18
ATOM     18  C   UNL     1       2.663   7.516  19.195  0.00  0.00    +0.000 C 
BRANCH  18  19
ATOM     19  C   UNL     1       1.616   7.572  20.306  0.00  0.00    +0.000 C 
ATOM     20  O   UNL     1       1.542   6.641  21.118  0.00  0.00    +0.000 OA
ATOM     21  N   UNL     1       0.738   8.636  20.361  0.00  0.00    +0.000 N 
ATOM     22  C   UNL     1      -0.170   8.749  21.508  0.00  0.00    +0.000 C 
ATOM     23  C   UNL     1       0.143  10.021  22.310  0.00  0.00    +0.000 C 
ATOM     24  N   UNL     1       0.102  11.202  21.424  0.00  0.00    +0.000 N 
ATOM     25  C   UNL     1       0.976  11.119  20.235  0.00  0.00    +0.000 C 
ATOM     26  C   UNL     1       0.723   9.800  19.467  0.00  0.00    +0.000 C 
BRANCH  24  27
ATOM     27  C   UNL     1      -0.800  12.230  21.611  0.00  0.00    +0.000 A 
ATOM     28  C   UNL     1      -0.497  13.321  22.445  0.00  0.00    +0.000 A 
ATOM     29  C   UNL     1      -1.407  14.358  22.675  0.00  0.00    +0.000 A 
ATOM     30  C   UNL     1      -2.656  14.329  22.067  0.00  0.00    +0.000 A 
ATOM     31  C   UNL     1      -2.978  13.267  21.229  0.00  0.00    +0.000 A 
ATOM     32 CL   UNL     1      -4.517  13.223  20.457  0.00  0.00    +0.000 Cl
ATOM     33  C   UNL     1      -2.062  12.233  21.004  0.00  0.00    +0.000 A 
ENDBRANCH  24  27
ENDBRANCH  18  19
ENDBRANCH   1  18
TORSDOF 7
ENDMDL
MODEL 7
REMARK VINA RESULT:      -7.8      1.394      2.069
REMARK  Name = 
REMARK  9 active torsions:
REMARK  status: ('A' for Active; 'I' for Inactive)
REMARK    1  A    between atoms: C_1  and  N_2
REMARK    2  A    between atoms: N_2  and  C_3
REMARK    3  A    between atoms: N_2  and  C_4
REMARK    4  A    between atoms: C_4  and  C_5
REMARK    5  A    between atoms: C_7  and  C_8
REMARK    6  A    between atoms: C_16  and  O_17
REMARK    7  A    between atoms: O_17  and  C_18
REMARK    8  A    between atoms: C_18  and  C_19
REMARK    9  A    between atoms: N_24  and  C_25
REMARK                            x       y       z     vdW  Elec       q    Type
REMARK                         _______ _______ _______ _____ _____    ______ ____
ROOT
ATOM      1  O   UNL     1       3.647   6.641  19.311  0.00  0.00    +0.000 OA
ENDROOT
BRANCH   1   7
ATOM      2  C   UNL     1       4.011   4.703  17.752  0.00  0.00    +0.000 A 
ATOM      3  C   UNL     1       4.545   4.359  16.480  0.00  0.00    +0.000 A 
ATOM      4  C   UNL     1       5.070   5.296  15.573  0.00  0.00    +0.000 A 
ATOM      5  C   UNL     1       4.984   6.639  15.947  0.00  0.00    +0.000 A 
ATOM      6  C   UNL     1       4.463   7.008  17.195  0.00  0.00    +0.000 A 
ATOM      7  C   UNL     1       3.984   6.060  18.114  0.00  0.00    +0.000 A 
BRANCH   4   8
ATOM      8  C   UNL     1       5.784   4.844  14.351  0.00  0.00    +0.000 A 
ATOM      9  C   UNL     1       5.235   3.881  13.481  0.00  0.00    +0.000 A 
ATOM     10  C   UNL     1       5.976   3.342  12.424  0.00  0.00    +0.000 A 
ATOM     11  C   UNL     1       7.277   3.775  12.191  0.00  0.00    +0.000 A 
ATOM     12  C   UNL     1       7.829   4.758  13.006  0.00  0.00    +0.000 A 
ATOM     13  C   UNL     1       7.092   5.283  14.072  0.00  0.00    +0.000 A 
ENDBRANCH   4   8
BRANCH   2  14
ATOM     14  C   UNL     1       3.640   3.516  18.625  0.00  0.00    +0.000 C 
BRANCH  14  16
ATOM     15  C   UNL     1       1.968   1.818  19.219  0.00  0.00    +0.000 C 
ATOM     16  N   UNL     1       2.382   2.842  18.269  0.00  0.00    +0.000 NA
ATOM     17  C   UNL     1       1.324   3.829  18.066  0.00  0.00    +0.000 C 
ENDBRANCH  14  16
ENDBRANCH   2  14
ENDBRANCH   1   7
BRANCH   1  18
ATOM     18  C   UNL     1       2.278   6.904  19.565  0.00  0.00    +0.000 C 
BRANCH  18  19
ATOM     19  C   UNL     1       1.787   8.233  18.994  0.00  0.00    +0.000 C 
ATOM     20  O   UNL     1       1.756   8.392  17.767  0.00  0.00    +0.000 OA
ATOM     21  N   UNL     1       1.429   9.252  19.853  0.00  0.00    +0.000 N 
ATOM     22  C   UNL     1       0.830  10.472  19.298  0.00  0.00    +0.000 C 
ATOM     23  C   UNL     1      -0.608  10.637  19.810  0.00  0.00    +0.000 C 
ATOM     24  N   UNL     1      -0.629  10.605  21.286  0.00  0.00    +0.000 N 
ATOM     25  C   UNL     1      -0.005   9.410  21.892  0.00  0.00    +0.000 C 
ATOM     26  C   UNL     1       1.416   9.191  21.320  0.00  0.00    +0.000 C 
BRANCH  24  27
ATOM     27  C   UNL     1      -1.055  11.681  22.039  0.00  0.00    +0.000 A 
ATOM     28  C   UNL     1      -0.346  12.895  22.041  0.00  0.00    +0.000 A 
ATOM     29  C   UNL     1      -0.741  13.988  22.820  0.00  0.00    +0.000 A 
ATOM     30  C   UNL     1      -1.871  13.890  23.623  0.00  0.00    +0.000 A 
ATOM     31  C   UNL     1      -2.597  12.705  23.632  0.00  0.00    +0.000 A 
ATOM     32 CL   UNL     1      -4.008  12.573  24.612  0.00  0.00    +0.000 Cl
ATOM     33  C   UNL     1      -2.195  11.616  22.850  0.00  0.00    +0.000 A 
ENDBRANCH  24  27
ENDBRANCH  18  19
ENDBRANCH   1  18
TORSDOF 7
ENDMDL
MODEL 8
REMARK VINA RESULT:      -7.8      1.066      1.494
REMARK  Name = 
REMARK  9 active torsions:
REMARK  status: ('A' for Active; 'I' for Inactive)
REMARK    1  A    between atoms: C_1  and  N_2
REMARK    2  A    between atoms: N_2  and  C_3
REMARK    3  A    between atoms: N_2  and  C_4
REMARK    4  A    between atoms: C_4  and  C_5
REMARK    5  A    between atoms: C_7  and  C_8
REMARK    6  A    between atoms: C_16  and  O_17
REMARK    7  A    between atoms: O_17  and  C_18
REMARK    8  A    between atoms: C_18  and  C_19
REMARK    9  A    between atoms: N_24  and  C_25
REMARK                            x       y       z     vdW  Elec       q    Type
REMARK                         _______ _______ _______ _____ _____    ______ ____
ROOT
ATOM      1  O   UNL     1       3.452   5.518  19.704  0.00  0.00    +0.000 OA
ENDROOT
BRANCH   1   7
ATOM      2  C   UNL     1       3.335   4.313  17.500  0.00  0.00    +0.000 A 
ATOM      3  C   UNL     1       4.006   4.163  16.257  0.00  0.00    +0.000 A 
ATOM      4  C   UNL     1       5.147   4.897  15.889  0.00  0.00    +0.000 A 
ATOM      5  C   UNL     1       5.580   5.868  16.795  0.00  0.00    +0.000 A 
ATOM      6  C   UNL     1       4.938   6.038  18.030  0.00  0.00    +0.000 A 
ATOM      7  C   UNL     1       3.826   5.266  18.407  0.00  0.00    +0.000 A 
BRANCH   4   8
ATOM      8  C   UNL     1       5.904   4.550  14.659  0.00  0.00    +0.000 A 
ATOM      9  C   UNL     1       7.118   5.185  14.328  0.00  0.00    +0.000 A 
ATOM     10  C   UNL     1       7.743   4.973  13.094  0.00  0.00    +0.000 A 
ATOM     11  C   UNL     1       7.184   4.096  12.170  0.00  0.00    +0.000 A 
ATOM     12  C   UNL     1       6.010   3.422  12.487  0.00  0.00    +0.000 A 
ATOM     13  C   UNL     1       5.379   3.647  13.715  0.00  0.00    +0.000 A 
ENDBRANCH   4   8
BRANCH   2  14
ATOM     14  C   UNL     1       2.218   3.311  17.743  0.00  0.00    +0.000 C 
BRANCH  14  16
ATOM     15  C   UNL     1       3.954   2.105  18.991  0.00  0.00    +0.000 C 
ATOM     16  N   UNL     1       2.534   2.234  18.692  0.00  0.00    +0.000 NA
ATOM     17  C   UNL     1       1.751   2.397  19.915  0.00  0.00    +0.000 C 
ENDBRANCH  14  16
ENDBRANCH   2  14
ENDBRANCH   1   7
BRANCH   1  18
ATOM     18  C   UNL     1       2.155   6.038  19.936  0.00  0.00    +0.000 C 
BRANCH  18  19
ATOM     19  C   UNL     1       1.904   7.392  19.275  0.00  0.00    +0.000 C 
ATOM     20  O   UNL     1       1.996   7.494  18.046  0.00  0.00    +0.000 OA
ATOM     21  N   UNL     1       1.622   8.491  20.062  0.00  0.00    +0.000 N 
ATOM     22  C   UNL     1       1.247   9.752  19.412  0.00  0.00    +0.000 C 
ATOM     23  C   UNL     1      -0.191  10.136  19.788  0.00  0.00    +0.000 C 
ATOM     24  N   UNL     1      -0.338  10.180  21.257  0.00  0.00    +0.000 N 
ATOM     25  C   UNL     1       0.060   8.941  21.959  0.00  0.00    +0.000 C 
ATOM     26  C   UNL     1       1.479   8.504  21.523  0.00  0.00    +0.000 C 
BRANCH  24  27
ATOM     27  C   UNL     1      -0.670  11.339  21.928  0.00  0.00    +0.000 A 
ATOM     28  C   UNL     1      -1.649  11.340  22.938  0.00  0.00    +0.000 A 
ATOM     29  C   UNL     1      -2.025  12.508  23.609  0.00  0.00    +0.000 A 
ATOM     30  C   UNL     1      -1.421  13.717  23.284  0.00  0.00    +0.000 A 
ATOM     31  C   UNL     1      -0.443  13.743  22.297  0.00  0.00    +0.000 A 
ATOM     32 CL   UNL     1       0.325  15.230  21.892  0.00  0.00    +0.000 Cl
ATOM     33  C   UNL     1      -0.072  12.569  21.629  0.00  0.00    +0.000 A 
ENDBRANCH  24  27
ENDBRANCH  18  19
ENDBRANCH   1  18
TORSDOF 7
ENDMDL
MODEL 9
REMARK VINA RESULT:      -7.8      2.394      3.701
REMARK  Name = 
REMARK  9 active torsions:
REMARK  status: ('A' for Active; 'I' for Inactive)
REMARK    1  A    between atoms: C_1  and  N_2
REMARK    2  A    between atoms: N_2  and  C_3
REMARK    3  A    between atoms: N_2  and  C_4
REMARK    4  A    between atoms: C_4  and  C_5
REMARK    5  A    between atoms: C_7  and  C_8
REMARK    6  A    between atoms: C_16  and  O_17
REMARK    7  A    between atoms: O_17  and  C_18
REMARK    8  A    between atoms: C_18  and  C_19
REMARK    9  A    between atoms: N_24  and  C_25
REMARK                            x       y       z     vdW  Elec       q    Type
REMARK                         _______ _______ _______ _____ _____    ______ ____
ROOT
ATOM      1  O   UNL     1       1.472   8.049  20.536  0.00  0.00    +0.000 OA
ENDROOT
BRANCH   1   7
ATOM      2  C   UNL     1       2.560   5.892  19.838  0.00  0.00    +0.000 A 
ATOM      3  C   UNL     1       3.445   5.331  18.878  0.00  0.00    +0.000 A 
ATOM      4  C   UNL     1       3.996   6.053  17.805  0.00  0.00    +0.000 A 
ATOM      5  C   UNL     1       3.575   7.377  17.666  0.00  0.00    +0.000 A 
ATOM      6  C   UNL     1       2.703   7.958  18.598  0.00  0.00    +0.000 A 
ATOM      7  C   UNL     1       2.195   7.241  19.694  0.00  0.00    +0.000 A 
BRANCH   4   8
ATOM      8  C   UNL     1       5.060   5.453  16.959  0.00  0.00    +0.000 A 
ATOM      9  C   UNL     1       6.264   4.971  17.509  0.00  0.00    +0.000 A 
ATOM     10  C   UNL     1       7.326   4.557  16.697  0.00  0.00    +0.000 A 
ATOM     11  C   UNL     1       7.199   4.587  15.312  0.00  0.00    +0.000 A 
ATOM     12  C   UNL     1       6.005   5.016  14.742  0.00  0.00    +0.000 A 
ATOM     13  C   UNL     1       4.951   5.444  15.556  0.00  0.00    +0.000 A 
ENDBRANCH   4   8
BRANCH   2  14
ATOM     14  C   UNL     1       2.210   4.969  20.994  0.00  0.00    +0.000 C 
BRANCH  14  16
ATOM     15  C   UNL     1       2.063   2.641  21.760  0.00  0.00    +0.000 C 
ATOM     16  N   UNL     1       1.999   3.560  20.632  0.00  0.00    +0.000 NA
ATOM     17  C   UNL     1       0.741   3.412  19.903  0.00  0.00    +0.000 C 
ENDBRANCH  14  16
ENDBRANCH   2  14
ENDBRANCH   1   7
BRANCH   1  18
ATOM     18  C   UNL     1       0.972   9.271  20.022  0.00  0.00    +0.000 C 
BRANCH  18  19
ATOM     19  C   UNL     1       0.613  10.294  21.098  0.00  0.00    +0.000 C 
ATOM     20  O   UNL     1       0.839  10.030  22.286  0.00  0.00    +0.000 OA
ATOM     21  N   UNL     1       0.002  11.478  20.735  0.00  0.00    +0.000 N 
ATOM     22  C   UNL     1      -0.212  12.509  21.757  0.00  0.00    +0.000 C 
ATOM     23  C   UNL     1       0.594  13.770  21.415  0.00  0.00    +0.000 C 
ATOM     24  N   UNL     1       0.262  14.232  20.052  0.00  0.00    +0.000 N 
ATOM     25  C   UNL     1       0.431  13.215  18.993  0.00  0.00    +0.000 C 
ATOM     26  C   UNL     1      -0.314  11.912  19.369  0.00  0.00    +0.000 C 
BRANCH  24  27
ATOM     27  C   UNL     1      -0.310  15.465  19.813  0.00  0.00    +0.000 A 
ATOM     28  C   UNL     1      -0.297  16.036  18.529  0.00  0.00    +0.000 A 
ATOM     29  C   UNL     1      -0.841  17.299  18.269  0.00  0.00    +0.000 A 
ATOM     30  C   UNL     1      -1.421  18.026  19.301  0.00  0.00    +0.000 A 
ATOM     31  C   UNL     1      -1.457  17.481  20.579  0.00  0.00    +0.000 A 
ATOM     32 CL   UNL     1      -2.184  18.364  21.867  0.00  0.00    +0.000 Cl
ATOM     33  C   UNL     1      -0.910  16.217  20.831  0.00  0.00    +0.000 A 
ENDBRANCH  24  27
ENDBRANCH  18  19
ENDBRANCH   1  18
TORSDOF 7
ENDMDL
