MODEL 1
REMARK VINA RESULT:      -8.0      0.000      0.000
REMARK  Name = 
REMARK  9 active torsions:
REMARK  status: ('A' for Active; 'I' for Inactive)
REMARK    1  A    between atoms: C_1  and  O_2
REMARK    2  A    between atoms: O_2  and  C_3
REMARK    3  A    between atoms: C_6  and  N_7
REMARK    4  A    between atoms: N_7  and  C_8
REMARK    5  A    between atoms: C_8  and  N_18
REMARK    6  A    between atoms: C_9  and  C_10
REMARK    7  A    between atoms: C_9  and  N_15
REMARK    8  A    between atoms: C_28  and  O_29
REMARK    9  A    between atoms: O_29  and  C_30
REMARK                            x       y       z     vdW  Elec       q    Type
REMARK                         _______ _______ _______ _____ _____    ______ ____
ROOT
ATOM      1  C   UNL     1       3.594   5.438  19.551  0.00  0.00    +0.000 C 
ATOM      2  C   UNL     1       2.893   4.273  19.624  0.00  0.00    +0.000 C 
ENDROOT
BRANCH   1   3
ATOM      3  N   UNL     1       4.924   5.574  18.980  0.00  0.00    +0.000 N 
ATOM      4  N   UNL     1       6.053   5.347  19.738  0.00  0.00    +0.000 NA
ATOM      5  N   UNL     1       7.038   4.925  18.971  0.00  0.00    +0.000 NA
ATOM      6  C   UNL     1       6.651   5.069  17.684  0.00  0.00    +0.000 A 
ATOM      7  C   UNL     1       7.361   4.739  16.514  0.00  0.00    +0.000 A 
ATOM      8  C   UNL     1       6.811   5.036  15.270  0.00  0.00    +0.000 A 
ATOM      9  C   UNL     1       5.581   5.677  15.202  0.00  0.00    +0.000 A 
ATOM     10  C   UNL     1       4.843   5.974  16.362  0.00  0.00    +0.000 A 
ATOM     11  C   UNL     1       5.371   5.632  17.622  0.00  0.00    +0.000 A 
ENDBRANCH   1   3
BRANCH   2  12
ATOM     12  C   UNL     1       2.971   3.064  18.816  0.00  0.00    +0.000 C 
ATOM     13 CL   UNL     1       2.027   3.089  17.328  0.00  0.00    +0.000 Cl
ATOM     14  C   UNL     1       3.759   2.004  19.105  0.00  0.00    +0.000 C 
ATOM     15 CL   UNL     1       3.804   0.569  18.128  0.00  0.00    +0.000 Cl
ATOM     16 CL   UNL     1       4.799   1.961  20.495  0.00  0.00    +0.000 Cl
ENDBRANCH   2  12
BRANCH   2  17
ATOM     17  N   UNL     1       1.888   4.226  20.691  0.00  0.00    +0.000 N 
ATOM     18  O   UNL     1       2.287   3.988  21.835  0.00  0.00    +0.000 OA
ATOM     19  O   UNL     1       0.717   4.498  20.381  0.00  0.00    +0.000 OA
ENDBRANCH   2  17
BRANCH   1  20
ATOM     20  N   UNL     1       3.197   6.646  20.200  0.00  0.00    +0.000 N 
ATOM     21  H   UNL     1       2.998   6.477  21.194  0.00  0.00    +0.000 HD
BRANCH  20  25
ATOM     22  C   UNL     1       0.573   9.645  18.631  0.00  0.00    +0.000 A 
ATOM     23  C   UNL     1       1.470   8.945  17.826  0.00  0.00    +0.000 A 
ATOM     24  C   UNL     1       2.316   7.970  18.384  0.00  0.00    +0.000 A 
ATOM     25  C   UNL     1       2.277   7.636  19.753  0.00  0.00    +0.000 A 
ATOM     26  C   UNL     1       1.381   8.355  20.550  0.00  0.00    +0.000 A 
ATOM     27  C   UNL     1       0.568   9.381  20.008  0.00  0.00    +0.000 A 
BRANCH  22  29
ATOM     28  C   UNL     1      -1.473  10.101  17.496  0.00  0.00    +0.000 C 
ATOM     29  O   UNL     1      -0.290  10.587  18.127  0.00  0.00    +0.000 OA
ENDBRANCH  22  29
BRANCH  27  30
ATOM     30  O   UNL     1      -0.222  10.009  20.943  0.00  0.00    +0.000 OA
ATOM     31  C   UNL     1      -0.325   9.385  22.221  0.00  0.00    +0.000 C 
ENDBRANCH  27  30
ENDBRANCH  20  25
ENDBRANCH   1  20
TORSDOF 7
ENDMDL
MODEL 2
REMARK VINA RESULT:      -7.0      0.547      1.385
REMARK  Name = 
REMARK  9 active torsions:
REMARK  status: ('A' for Active; 'I' for Inactive)
REMARK    1  A    between atoms: C_1  and  O_2
REMARK    2  A    between atoms: O_2  and  C_3
REMARK    3  A    between atoms: C_6  and  N_7
REMARK    4  A    between atoms: N_7  and  C_8
REMARK    5  A    between atoms: C_8  and  N_18
REMARK    6  A    between atoms: C_9  and  C_10
REMARK    7  A    between atoms: C_9  and  N_15
REMARK    8  A    between atoms: C_28  and  O_29
REMARK    9  A    between atoms: O_29  and  C_30
REMARK                            x       y       z     vdW  Elec       q    Type
REMARK                         _______ _______ _______ _____ _____    ______ ____
ROOT
ATOM      1  C   UNL     1       3.669   5.526  19.636  0.00  0.00    +0.000 C 
ATOM      2  C   UNL     1       2.961   4.372  19.782  0.00  0.00    +0.000 C 
ENDROOT
BRANCH   1   3
ATOM      3  N   UNL     1       4.984   5.623  19.024  0.00  0.00    +0.000 N 
ATOM      4  N   UNL     1       6.130   5.380  19.752  0.00  0.00    +0.000 NA
ATOM      5  N   UNL     1       7.082   4.926  18.961  0.00  0.00    +0.000 NA
ATOM      6  C   UNL     1       6.659   5.061  17.685  0.00  0.00    +0.000 A 
ATOM      7  C   UNL     1       7.326   4.699  16.499  0.00  0.00    +0.000 A 
ATOM      8  C   UNL     1       6.746   4.992  15.268  0.00  0.00    +0.000 A 
ATOM      9  C   UNL     1       5.530   5.660  15.227  0.00  0.00    +0.000 A 
ATOM     10  C   UNL     1       4.833   5.990  16.405  0.00  0.00    +0.000 A 
ATOM     11  C   UNL     1       5.391   5.653  17.653  0.00  0.00    +0.000 A 
ENDBRANCH   1   3
BRANCH   2  12
ATOM     12  C   UNL     1       3.008   3.127  19.030  0.00  0.00    +0.000 C 
ATOM     13 CL   UNL     1       4.001   1.856  19.739  0.00  0.00    +0.000 Cl
ATOM     14  C   UNL     1       2.297   2.887  17.906  0.00  0.00    +0.000 C 
ATOM     15 CL   UNL     1       2.402   1.395  17.023  0.00  0.00    +0.000 Cl
ATOM     16 CL   UNL     1       1.213   4.056  17.216  0.00  0.00    +0.000 Cl
ENDBRANCH   2  12
BRANCH   2  17
ATOM     17  N   UNL     1       1.985   4.385  20.876  0.00  0.00    +0.000 N 
ATOM     18  O   UNL     1       0.826   4.710  20.599  0.00  0.00    +0.000 OA
ATOM     19  O   UNL     1       2.376   4.000  21.990  0.00  0.00    +0.000 OA
ENDBRANCH   2  17
BRANCH   1  20
ATOM     20  N   UNL     1       3.299   6.767  20.238  0.00  0.00    +0.000 N 
ATOM     21  H   UNL     1       3.155   6.653  21.249  0.00  0.00    +0.000 HD
BRANCH  20  25
ATOM     22  C   UNL     1       0.583   9.677  18.659  0.00  0.00    +0.000 A 
ATOM     23  C   UNL     1       1.496   8.998  17.855  0.00  0.00    +0.000 A 
ATOM     24  C   UNL     1       2.372   8.051  18.416  0.00  0.00    +0.000 A 
ATOM     25  C   UNL     1       2.349   7.727  19.788  0.00  0.00    +0.000 A 
ATOM     26  C   UNL     1       1.437   8.426  20.583  0.00  0.00    +0.000 A 
ATOM     27  C   UNL     1       0.591   9.423  20.038  0.00  0.00    +0.000 A 
BRANCH  22  29
ATOM     28  C   UNL     1      -1.527  10.072  17.621  0.00  0.00    +0.000 C 
ATOM     29  O   UNL     1      -0.309  10.591  18.152  0.00  0.00    +0.000 OA
ENDBRANCH  22  29
BRANCH  27  30
ATOM     30  O   UNL     1      -0.212  10.036  20.972  0.00  0.00    +0.000 OA
ATOM     31  C   UNL     1      -0.362   9.372  22.225  0.00  0.00    +0.000 C 
ENDBRANCH  27  30
ENDBRANCH  20  25
ENDBRANCH   1  20
TORSDOF 7
ENDMDL
MODEL 3
REMARK VINA RESULT:      -6.7      0.829      1.623
REMARK  Name = 
REMARK  9 active torsions:
REMARK  status: ('A' for Active; 'I' for Inactive)
REMARK    1  A    between atoms: C_1  and  O_2
REMARK    2  A    between atoms: O_2  and  C_3
REMARK    3  A    between atoms: C_6  and  N_7
REMARK    4  A    between atoms: N_7  and  C_8
REMARK    5  A    between atoms: C_8  and  N_18
REMARK    6  A    between atoms: C_9  and  C_10
REMARK    7  A    between atoms: C_9  and  N_15
REMARK    8  A    between atoms: C_28  and  O_29
REMARK    9  A    between atoms: O_29  and  C_30
REMARK                            x       y       z     vdW  Elec       q    Type
REMARK                         _______ _______ _______ _____ _____    ______ ____
ROOT
ATOM      1  C   UNL     1       3.331   5.359  19.842  0.00  0.00    +0.000 C 
ATOM      2  C   UNL     1       2.702   4.152  19.781  0.00  0.00    +0.000 C 
ENDROOT
BRANCH   1   3
ATOM      3  N   UNL     1       4.644   5.641  19.287  0.00  0.00    +0.000 N 
ATOM      4  N   UNL     1       5.792   5.404  20.012  0.00  0.00    +0.000 NA
ATOM      5  N   UNL     1       6.795   5.134  19.200  0.00  0.00    +0.000 NA
ATOM      6  C   UNL     1       6.387   5.395  17.939  0.00  0.00    +0.000 A 
ATOM      7  C   UNL     1       7.105   5.243  16.737  0.00  0.00    +0.000 A 
ATOM      8  C   UNL     1       6.526   5.642  15.535  0.00  0.00    +0.000 A 
ATOM      9  C   UNL     1       5.257   6.206  15.542  0.00  0.00    +0.000 A 
ATOM     10  C   UNL     1       4.513   6.324  16.730  0.00  0.00    +0.000 A 
ATOM     11  C   UNL     1       5.073   5.879  17.943  0.00  0.00    +0.000 A 
ENDBRANCH   1   3
BRANCH   2  12
ATOM     12  C   UNL     1       2.846   3.052  18.838  0.00  0.00    +0.000 C 
ATOM     13 CL   UNL     1       1.877   3.185  17.373  0.00  0.00    +0.000 Cl
ATOM     14  C   UNL     1       3.707   2.022  18.994  0.00  0.00    +0.000 C 
ATOM     15 CL   UNL     1       3.829   0.714  17.857  0.00  0.00    +0.000 Cl
ATOM     16 CL   UNL     1       4.772   1.889  20.360  0.00  0.00    +0.000 Cl
ENDBRANCH   2  12
BRANCH   2  17
ATOM     17  N   UNL     1       1.713   3.920  20.839  0.00  0.00    +0.000 N 
ATOM     18  O   UNL     1       2.135   3.538  21.935  0.00  0.00    +0.000 OA
ATOM     19  O   UNL     1       0.530   4.191  20.579  0.00  0.00    +0.000 OA
ENDBRANCH   2  17
BRANCH   1  20
ATOM     20  N   UNL     1       2.868   6.456  20.628  0.00  0.00    +0.000 N 
ATOM     21  H   UNL     1       2.488   6.128  21.525  0.00  0.00    +0.000 HD
BRANCH  20  25
ATOM     22  C   UNL     1       0.302   9.722  19.581  0.00  0.00    +0.000 A 
ATOM     23  C   UNL     1       0.096   8.948  20.722  0.00  0.00    +0.000 A 
ATOM     24  C   UNL     1       0.962   7.884  21.027  0.00  0.00    +0.000 A 
ATOM     25  C   UNL     1       2.079   7.571  20.225  0.00  0.00    +0.000 A 
ATOM     26  C   UNL     1       2.265   8.346  19.077  0.00  0.00    +0.000 A 
ATOM     27  C   UNL     1       1.364   9.383  18.730  0.00  0.00    +0.000 A 
BRANCH  22  29
ATOM     28  C   UNL     1      -1.629  10.511  18.427  0.00  0.00    +0.000 C 
ATOM     29  O   UNL     1      -0.503  10.787  19.257  0.00  0.00    +0.000 OA
ENDBRANCH  22  29
BRANCH  27  30
ATOM     30  O   UNL     1       1.678  10.014  17.549  0.00  0.00    +0.000 OA
ATOM     31  C   UNL     1       2.419  11.229  17.646  0.00  0.00    +0.000 C 
ENDBRANCH  27  30
ENDBRANCH  20  25
ENDBRANCH   1  20
TORSDOF 7
ENDMDL
MODEL 4
REMARK VINA RESULT:      -6.6      5.763      7.972
REMARK  Name = 
REMARK  9 active torsions:
REMARK  status: ('A' for Active; 'I' for Inactive)
REMARK    1  A    between atoms: C_1  and  O_2
REMARK    2  A    between atoms: O_2  and  C_3
REMARK    3  A    between atoms: C_6  and  N_7
REMARK    4  A    between atoms: N_7  and  C_8
REMARK    5  A    between atoms: C_8  and  N_18
REMARK    6  A    between atoms: C_9  and  C_10
REMARK    7  A    between atoms: C_9  and  N_15
REMARK    8  A    between atoms: C_28  and  O_29
REMARK    9  A    between atoms: O_29  and  C_30
REMARK                            x       y       z     vdW  Elec       q    Type
REMARK                         _______ _______ _______ _____ _____    ______ ____
ROOT
ATOM      1  C   UNL     1      -0.073  11.711  20.202  0.00  0.00    +0.000 C 
ATOM      2  C   UNL     1       0.321  12.989  19.947  0.00  0.00    +0.000 C 
ENDROOT
BRANCH   1   3
ATOM      3  N   UNL     1       0.826  10.606  20.494  0.00  0.00    +0.000 N 
ATOM      4  N   UNL     1       0.966  10.118  21.775  0.00  0.00    +0.000 NA
ATOM      5  N   UNL     1       1.288   8.840  21.742  0.00  0.00    +0.000 NA
ATOM      6  C   UNL     1       1.573   8.518  20.461  0.00  0.00    +0.000 A 
ATOM      7  C   UNL     1       1.949   7.268  19.935  0.00  0.00    +0.000 A 
ATOM      8  C   UNL     1       2.274   7.159  18.586  0.00  0.00    +0.000 A 
ATOM      9  C   UNL     1       2.246   8.292  17.783  0.00  0.00    +0.000 A 
ATOM     10  C   UNL     1       1.831   9.538  18.287  0.00  0.00    +0.000 A 
ATOM     11  C   UNL     1       1.454   9.645  19.639  0.00  0.00    +0.000 A 
ENDBRANCH   1   3
BRANCH   2  12
ATOM     12  C   UNL     1       1.526  13.708  20.336  0.00  0.00    +0.000 C 
ATOM     13 CL   UNL     1       1.460  14.489  21.915  0.00  0.00    +0.000 Cl
ATOM     14  C   UNL     1       2.665  13.737  19.609  0.00  0.00    +0.000 C 
ATOM     15 CL   UNL     1       4.072  14.630  20.097  0.00  0.00    +0.000 Cl
ATOM     16 CL   UNL     1       2.834  12.896  18.099  0.00  0.00    +0.000 Cl
ENDBRANCH   2  12
BRANCH   2  17
ATOM     17  N   UNL     1      -0.625  13.775  19.149  0.00  0.00    +0.000 N 
ATOM     18  O   UNL     1      -1.461  14.447  19.761  0.00  0.00    +0.000 OA
ATOM     19  O   UNL     1      -0.474  13.764  17.917  0.00  0.00    +0.000 OA
ENDBRANCH   2  17
BRANCH   1  20
ATOM     20  N   UNL     1      -1.409  11.241  20.028  0.00  0.00    +0.000 N 
ATOM     21  H   UNL     1      -1.585  10.415  20.614  0.00  0.00    +0.000 HD
BRANCH  20  25
ATOM     22  C   UNL     1      -3.372  10.604  16.275  0.00  0.00    +0.000 A 
ATOM     23  C   UNL     1      -2.118  10.067  16.561  0.00  0.00    +0.000 A 
ATOM     24  C   UNL     1      -1.509  10.303  17.806  0.00  0.00    +0.000 A 
ATOM     25  C   UNL     1      -2.138  11.056  18.819  0.00  0.00    +0.000 A 
ATOM     26  C   UNL     1      -3.389  11.599  18.513  0.00  0.00    +0.000 A 
ATOM     27  C   UNL     1      -3.985  11.416  17.241  0.00  0.00    +0.000 A 
BRANCH  22  29
ATOM     28  C   UNL     1      -3.206   9.972  13.982  0.00  0.00    +0.000 C 
ATOM     29  O   UNL     1      -4.017  10.379  15.083  0.00  0.00    +0.000 OA
ENDBRANCH  22  29
BRANCH  27  30
ATOM     30  O   UNL     1      -5.195  12.054  17.102  0.00  0.00    +0.000 OA
ATOM     31  C   UNL     1      -6.238  11.653  17.988  0.00  0.00    +0.000 C 
ENDBRANCH  27  30
ENDBRANCH  20  25
ENDBRANCH   1  20
TORSDOF 7
ENDMDL
MODEL 5
REMARK VINA RESULT:      -6.4      3.583      6.407
REMARK  Name = 
REMARK  9 active torsions:
REMARK  status: ('A' for Active; 'I' for Inactive)
REMARK    1  A    between atoms: C_1  and  O_2
REMARK    2  A    between atoms: O_2  and  C_3
REMARK    3  A    between atoms: C_6  and  N_7
REMARK    4  A    between atoms: N_7  and  C_8
REMARK    5  A    between atoms: C_8  and  N_18
REMARK    6  A    between atoms: C_9  and  C_10
REMARK    7  A    between atoms: C_9  and  N_15
REMARK    8  A    between atoms: C_28  and  O_29
REMARK    9  A    between atoms: O_29  and  C_30
REMARK                            x       y       z     vdW  Elec       q    Type
REMARK                         _______ _______ _______ _____ _____    ______ ____
ROOT
ATOM      1  C   UNL     1       4.384   4.113  18.353  0.00  0.00    +0.000 C 
ATOM      2  C   UNL     1       3.048   4.170  18.611  0.00  0.00    +0.000 C 
ENDROOT
BRANCH   1   3
ATOM      3  N   UNL     1       5.377   5.020  18.906  0.00  0.00    +0.000 N 
ATOM      4  N   UNL     1       6.160   4.652  19.978  0.00  0.00    +0.000 NA
ATOM      5  N   UNL     1       7.320   5.278  19.930  0.00  0.00    +0.000 NA
ATOM      6  C   UNL     1       7.243   6.216  18.961  0.00  0.00    +0.000 A 
ATOM      7  C   UNL     1       8.237   7.117  18.533  0.00  0.00    +0.000 A 
ATOM      8  C   UNL     1       7.933   8.064  17.559  0.00  0.00    +0.000 A 
ATOM      9  C   UNL     1       6.646   8.124  17.042  0.00  0.00    +0.000 A 
ATOM     10  C   UNL     1       5.655   7.203  17.430  0.00  0.00    +0.000 A 
ATOM     11  C   UNL     1       5.969   6.211  18.379  0.00  0.00    +0.000 A 
ENDBRANCH   1   3
BRANCH   2  12
ATOM     12  C   UNL     1       2.322   4.713  19.751  0.00  0.00    +0.000 C 
ATOM     13 CL   UNL     1       1.933   3.552  21.018  0.00  0.00    +0.000 Cl
ATOM     14  C   UNL     1       2.017   6.020  19.907  0.00  0.00    +0.000 C 
ATOM     15 CL   UNL     1       1.125   6.623  21.271  0.00  0.00    +0.000 Cl
ATOM     16 CL   UNL     1       2.470   7.233  18.751  0.00  0.00    +0.000 Cl
ENDBRANCH   2  12
BRANCH   2  17
ATOM     17  N   UNL     1       2.196   3.585  17.571  0.00  0.00    +0.000 N 
ATOM     18  O   UNL     1       1.440   4.349  16.961  0.00  0.00    +0.000 OA
ATOM     19  O   UNL     1       2.344   2.376  17.328  0.00  0.00    +0.000 OA
ENDBRANCH   2  17
BRANCH   1  20
ATOM     20  N   UNL     1       4.965   3.277  17.352  0.00  0.00    +0.000 N 
ATOM     21  H   UNL     1       5.590   2.581  17.777  0.00  0.00    +0.000 HD
BRANCH  20  25
ATOM     22  C   UNL     1       6.880   4.554  13.740  0.00  0.00    +0.000 A 
ATOM     23  C   UNL     1       7.471   4.712  14.993  0.00  0.00    +0.000 A 
ATOM     24  C   UNL     1       6.805   4.281  16.153  0.00  0.00    +0.000 A 
ATOM     25  C   UNL     1       5.544   3.651  16.106  0.00  0.00    +0.000 A 
ATOM     26  C   UNL     1       4.959   3.511  14.845  0.00  0.00    +0.000 A 
ATOM     27  C   UNL     1       5.595   3.996  13.675  0.00  0.00    +0.000 A 
BRANCH  22  29
ATOM     28  C   UNL     1       8.553   5.896  12.698  0.00  0.00    +0.000 C 
ATOM     29  O   UNL     1       7.504   4.937  12.578  0.00  0.00    +0.000 OA
ENDBRANCH  22  29
BRANCH  27  30
ATOM     30  O   UNL     1       4.858   3.811  12.529  0.00  0.00    +0.000 OA
ATOM     31  C   UNL     1       5.180   2.669  11.736  0.00  0.00    +0.000 C 
ENDBRANCH  27  30
ENDBRANCH  20  25
ENDBRANCH   1  20
TORSDOF 7
ENDMDL
MODEL 6
REMARK VINA RESULT:      -6.4      1.416      1.950
REMARK  Name = 
REMARK  9 active torsions:
REMARK  status: ('A' for Active; 'I' for Inactive)
REMARK    1  A    between atoms: C_1  and  O_2
REMARK    2  A    between atoms: O_2  and  C_3
REMARK    3  A    between atoms: C_6  and  N_7
REMARK    4  A    between atoms: N_7  and  C_8
REMARK    5  A    between atoms: C_8  and  N_18
REMARK    6  A    between atoms: C_9  and  C_10
REMARK    7  A    between atoms: C_9  and  N_15
REMARK    8  A    between atoms: C_28  and  O_29
REMARK    9  A    between atoms: O_29  and  C_30
REMARK                            x       y       z     vdW  Elec       q    Type
REMARK                         _______ _______ _______ _____ _____    ______ ____
ROOT
ATOM      1  C   UNL     1       3.147   5.941  19.180  0.00  0.00    +0.000 C 
ATOM      2  C   UNL     1       2.548   4.743  19.428  0.00  0.00    +0.000 C 
ENDROOT
BRANCH   1   3
ATOM      3  N   UNL     1       4.273   6.138  18.282  0.00  0.00    +0.000 N 
ATOM      4  N   UNL     1       4.113   6.755  17.061  0.00  0.00    +0.000 NA
ATOM      5  N   UNL     1       5.229   7.364  16.709  0.00  0.00    +0.000 NA
ATOM      6  C   UNL     1       6.195   6.986  17.574  0.00  0.00    +0.000 A 
ATOM      7  C   UNL     1       7.545   7.387  17.610  0.00  0.00    +0.000 A 
ATOM      8  C   UNL     1       8.406   6.821  18.545  0.00  0.00    +0.000 A 
ATOM      9  C   UNL     1       7.927   5.850  19.414  0.00  0.00    +0.000 A 
ATOM     10  C   UNL     1       6.572   5.471  19.418  0.00  0.00    +0.000 A 
ATOM     11  C   UNL     1       5.685   6.074  18.506  0.00  0.00    +0.000 A 
ENDBRANCH   1   3
BRANCH   2  12
ATOM     12  C   UNL     1       2.474   3.533  18.623  0.00  0.00    +0.000 C 
ATOM     13 CL   UNL     1       1.286   3.565  17.322  0.00  0.00    +0.000 Cl
ATOM     14  C   UNL     1       3.290   2.466  18.773  0.00  0.00    +0.000 C 
ATOM     15 CL   UNL     1       3.151   1.028  17.808  0.00  0.00    +0.000 Cl
ATOM     16 CL   UNL     1       4.556   2.414  19.961  0.00  0.00    +0.000 Cl
ENDBRANCH   2  12
BRANCH   2  17
ATOM     17  N   UNL     1       1.861   4.656  20.721  0.00  0.00    +0.000 N 
ATOM     18  O   UNL     1       0.651   4.410  20.704  0.00  0.00    +0.000 OA
ATOM     19  O   UNL     1       2.557   4.766  21.743  0.00  0.00    +0.000 OA
ENDBRANCH   2  17
BRANCH   1  20
ATOM     20  N   UNL     1       2.873   7.133  19.916  0.00  0.00    +0.000 N 
ATOM     21  H   UNL     1       2.882   6.948  20.927  0.00  0.00    +0.000 HD
BRANCH  20  25
ATOM     22  C   UNL     1      -0.034  10.135  18.976  0.00  0.00    +0.000 A 
ATOM     23  C   UNL     1       0.807   9.584  18.011  0.00  0.00    +0.000 A 
ATOM     24  C   UNL     1       1.749   8.602  18.364  0.00  0.00    +0.000 A 
ATOM     25  C   UNL     1       1.867   8.113  19.681  0.00  0.00    +0.000 A 
ATOM     26  C   UNL     1       1.027   8.685  20.641  0.00  0.00    +0.000 A 
ATOM     27  C   UNL     1       0.116   9.717  20.306  0.00  0.00    +0.000 A 
BRANCH  22  29
ATOM     28  C   UNL     1      -2.141  10.620  17.972  0.00  0.00    +0.000 C 
ATOM     29  O   UNL     1      -0.986  11.078  18.673  0.00  0.00    +0.000 OA
ENDBRANCH  22  29
BRANCH  27  30
ATOM     30  O   UNL     1      -0.600  10.190  21.381  0.00  0.00    +0.000 OA
ATOM     31  C   UNL     1      -0.404   9.524  22.627  0.00  0.00    +0.000 C 
ENDBRANCH  27  30
ENDBRANCH  20  25
ENDBRANCH   1  20
TORSDOF 7
ENDMDL
MODEL 7
REMARK VINA RESULT:      -6.2      5.452      9.126
REMARK  Name = 
REMARK  9 active torsions:
REMARK  status: ('A' for Active; 'I' for Inactive)
REMARK    1  A    between atoms: C_1  and  O_2
REMARK    2  A    between atoms: O_2  and  C_3
REMARK    3  A    between atoms: C_6  and  N_7
REMARK    4  A    between atoms: N_7  and  C_8
REMARK    5  A    between atoms: C_8  and  N_18
REMARK    6  A    between atoms: C_9  and  C_10
REMARK    7  A    between atoms: C_9  and  N_15
REMARK    8  A    between atoms: C_28  and  O_29
REMARK    9  A    between atoms: O_29  and  C_30
REMARK                            x       y       z     vdW  Elec       q    Type
REMARK                         _______ _______ _______ _____ _____    ______ ____
ROOT
ATOM      1  C   UNL     1      -1.063  11.391  19.980  0.00  0.00    +0.000 C 
ATOM      2  C   UNL     1      -0.536  12.579  20.387  0.00  0.00    +0.000 C 
ENDROOT
BRANCH   1   3
ATOM      3  N   UNL     1      -2.322  11.239  19.269  0.00  0.00    +0.000 N 
ATOM      4  N   UNL     1      -3.462  11.890  19.690  0.00  0.00    +0.000 NA
ATOM      5  N   UNL     1      -4.255  12.126  18.663  0.00  0.00    +0.000 NA
ATOM      6  C   UNL     1      -3.762  11.457  17.598  0.00  0.00    +0.000 A 
ATOM      7  C   UNL     1      -4.259  11.420  16.281  0.00  0.00    +0.000 A 
ATOM      8  C   UNL     1      -3.643  10.603  15.337  0.00  0.00    +0.000 A 
ATOM      9  C   UNL     1      -2.562   9.818  15.714  0.00  0.00    +0.000 A 
ATOM     10  C   UNL     1      -2.029   9.878  17.015  0.00  0.00    +0.000 A 
ATOM     11  C   UNL     1      -2.618  10.738  17.962  0.00  0.00    +0.000 A 
ENDBRANCH   1   3
BRANCH   2  12
ATOM     12  C   UNL     1      -0.730  13.929  19.877  0.00  0.00    +0.000 C 
ATOM     13 CL   UNL     1      -1.984  14.866  20.685  0.00  0.00    +0.000 Cl
ATOM     14  C   UNL     1       0.025  14.494  18.909  0.00  0.00    +0.000 C 
ATOM     15 CL   UNL     1      -0.256  16.100  18.310  0.00  0.00    +0.000 Cl
ATOM     16 CL   UNL     1       1.349  13.665  18.150  0.00  0.00    +0.000 Cl
ENDBRANCH   2  12
BRANCH   2  17
ATOM     17  N   UNL     1       0.382  12.485  21.526  0.00  0.00    +0.000 N 
ATOM     18  O   UNL     1       1.593  12.499  21.281  0.00  0.00    +0.000 OA
ATOM     19  O   UNL     1      -0.121  12.469  22.661  0.00  0.00    +0.000 OA
ENDBRANCH   2  17
BRANCH   1  20
ATOM     20  N   UNL     1      -0.545  10.118  20.366  0.00  0.00    +0.000 N 
ATOM     21  H   UNL     1      -0.433  10.064  21.386  0.00  0.00    +0.000 HD
BRANCH  20  25
ATOM     22  C   UNL     1       2.623   8.010  18.399  0.00  0.00    +0.000 A 
ATOM     23  C   UNL     1       1.978   9.100  17.816  0.00  0.00    +0.000 A 
ATOM     24  C   UNL     1       0.941   9.762  18.497  0.00  0.00    +0.000 A 
ATOM     25  C   UNL     1       0.530   9.382  19.791  0.00  0.00    +0.000 A 
ATOM     26  C   UNL     1       1.176   8.279  20.357  0.00  0.00    +0.000 A 
ATOM     27  C   UNL     1       2.181   7.570  19.655  0.00  0.00    +0.000 A 
BRANCH  22  29
ATOM     28  C   UNL     1       3.435   5.981  17.447  0.00  0.00    +0.000 C 
ATOM     29  O   UNL     1       3.657   7.350  17.783  0.00  0.00    +0.000 OA
ENDBRANCH  22  29
BRANCH  27  30
ATOM     30  O   UNL     1       2.678   6.489  20.346  0.00  0.00    +0.000 OA
ATOM     31  C   UNL     1       1.761   5.435  20.636  0.00  0.00    +0.000 C 
ENDBRANCH  27  30
ENDBRANCH  20  25
ENDBRANCH   1  20
TORSDOF 7
ENDMDL
MODEL 8
REMARK VINA RESULT:      -6.2      1.285      1.590
REMARK  Name = 
REMARK  9 active torsions:
REMARK  status: ('A' for Active; 'I' for Inactive)
REMARK    1  A    between atoms: C_1  and  O_2
REMARK    2  A    between atoms: O_2  and  C_3
REMARK    3  A    between atoms: C_6  and  N_7
REMARK    4  A    between atoms: N_7  and  C_8
REMARK    5  A    between atoms: C_8  and  N_18
REMARK    6  A    between atoms: C_9  and  C_10
REMARK    7  A    between atoms: C_9  and  N_15
REMARK    8  A    between atoms: C_28  and  O_29
REMARK    9  A    between atoms: O_29  and  C_30
REMARK                            x       y       z     vdW  Elec       q    Type
REMARK                         _______ _______ _______ _____ _____    ______ ____
ROOT
ATOM      1  C   UNL     1       3.029   5.014  18.739  0.00  0.00    +0.000 C 
ATOM      2  C   UNL     1       2.587   3.987  19.516  0.00  0.00    +0.000 C 
ENDROOT
BRANCH   1   3
ATOM      3  N   UNL     1       4.426   5.363  18.536  0.00  0.00    +0.000 N 
ATOM      4  N   UNL     1       5.299   5.459  19.599  0.00  0.00    +0.000 NA
ATOM      5  N   UNL     1       6.525   5.173  19.207  0.00  0.00    +0.000 NA
ATOM      6  C   UNL     1       6.520   5.094  17.858  0.00  0.00    +0.000 A 
ATOM      7  C   UNL     1       7.591   4.795  16.994  0.00  0.00    +0.000 A 
ATOM      8  C   UNL     1       7.395   4.835  15.617  0.00  0.00    +0.000 A 
ATOM      9  C   UNL     1       6.151   5.193  15.114  0.00  0.00    +0.000 A 
ATOM     10  C   UNL     1       5.062   5.453  15.966  0.00  0.00    +0.000 A 
ATOM     11  C   UNL     1       5.240   5.367  17.360  0.00  0.00    +0.000 A 
ENDBRANCH   1   3
BRANCH   2  12
ATOM     12  C   UNL     1       3.242   2.751  19.920  0.00  0.00    +0.000 C 
ATOM     13 CL   UNL     1       3.111   2.353  21.631  0.00  0.00    +0.000 Cl
ATOM     14  C   UNL     1       3.850   1.897  19.067  0.00  0.00    +0.000 C 
ATOM     15 CL   UNL     1       4.643   0.443  19.593  0.00  0.00    +0.000 Cl
ATOM     16 CL   UNL     1       3.916   2.172  17.353  0.00  0.00    +0.000 Cl
ENDBRANCH   2  12
BRANCH   2  17
ATOM     17  N   UNL     1       1.224   4.150  20.032  0.00  0.00    +0.000 N 
ATOM     18  O   UNL     1       1.058   4.962  20.947  0.00  0.00    +0.000 OA
ATOM     19  O   UNL     1       0.323   3.511  19.466  0.00  0.00    +0.000 OA
ENDBRANCH   2  17
BRANCH   1  20
ATOM     20  N   UNL     1       2.175   6.007  18.172  0.00  0.00    +0.000 N 
ATOM     21  H   UNL     1       2.316   6.073  17.156  0.00  0.00    +0.000 HD
BRANCH  20  25
ATOM     22  C   UNL     1       1.474  10.063  19.356  0.00  0.00    +0.000 A 
ATOM     23  C   UNL     1       1.746   9.709  18.036  0.00  0.00    +0.000 A 
ATOM     24  C   UNL     1       1.972   8.364  17.692  0.00  0.00    +0.000 A 
ATOM     25  C   UNL     1       1.906   7.324  18.641  0.00  0.00    +0.000 A 
ATOM     26  C   UNL     1       1.646   7.697  19.963  0.00  0.00    +0.000 A 
ATOM     27  C   UNL     1       1.475   9.054  20.330  0.00  0.00    +0.000 A 
BRANCH  22  29
ATOM     28  C   UNL     1      -0.072  11.876  19.429  0.00  0.00    +0.000 C 
ATOM     29  O   UNL     1       1.222  11.359  19.734  0.00  0.00    +0.000 OA
ENDBRANCH  22  29
BRANCH  27  30
ATOM     30  O   UNL     1       1.268   9.240  21.677  0.00  0.00    +0.000 OA
ATOM     31  C   UNL     1      -0.079   9.157  22.137  0.00  0.00    +0.000 C 
ENDBRANCH  27  30
ENDBRANCH  20  25
ENDBRANCH   1  20
TORSDOF 7
ENDMDL
MODEL 9
REMARK VINA RESULT:      -6.0      5.955      9.573
REMARK  Name = 
REMARK  9 active torsions:
REMARK  status: ('A' for Active; 'I' for Inactive)
REMARK    1  A    between atoms: C_1  and  O_2
REMARK    2  A    between atoms: O_2  and  C_3
REMARK    3  A    between atoms: C_6  and  N_7
REMARK    4  A    between atoms: N_7  and  C_8
REMARK    5  A    between atoms: C_8  and  N_18
REMARK    6  A    between atoms: C_9  and  C_10
REMARK    7  A    between atoms: C_9  and  N_15
REMARK    8  A    between atoms: C_28  and  O_29
REMARK    9  A    between atoms: O_29  and  C_30
REMARK                            x       y       z     vdW  Elec       q    Type
REMARK                         _______ _______ _______ _____ _____    ______ ____
ROOT
ATOM      1  C   UNL     1      -0.279  12.495  19.118  0.00  0.00    +0.000 C 
ATOM      2  C   UNL     1       0.060  13.539  19.924  0.00  0.00    +0.000 C 
ENDROOT
BRANCH   1   3
ATOM      3  N   UNL     1      -1.620  11.949  18.985  0.00  0.00    +0.000 N 
ATOM      4  N   UNL     1      -2.617  12.276  19.879  0.00  0.00    +0.000 NA
ATOM      5  N   UNL     1      -3.794  12.214  19.290  0.00  0.00    +0.000 NA
ATOM      6  C   UNL     1      -3.620  11.645  18.077  0.00  0.00    +0.000 A 
ATOM      7  C   UNL     1      -4.585  11.386  17.084  0.00  0.00    +0.000 A 
ATOM      8  C   UNL     1      -4.212  10.720  15.921  0.00  0.00    +0.000 A 
ATOM      9  C   UNL     1      -2.898  10.298  15.766  0.00  0.00    +0.000 A 
ATOM     10  C   UNL     1      -1.915  10.588  16.731  0.00  0.00    +0.000 A 
ATOM     11  C   UNL     1      -2.275  11.304  17.888  0.00  0.00    +0.000 A 
ENDBRANCH   1   3
BRANCH   2  12
ATOM     12  C   UNL     1      -0.739  14.641  20.439  0.00  0.00    +0.000 C 
ATOM     13 CL   UNL     1      -1.365  14.419  22.072  0.00  0.00    +0.000 Cl
ATOM     14  C   UNL     1      -0.949  15.803  19.782  0.00  0.00    +0.000 C 
ATOM     15 CL   UNL     1      -1.932  17.085  20.422  0.00  0.00    +0.000 Cl
ATOM     16 CL   UNL     1      -0.268  16.132  18.219  0.00  0.00    +0.000 Cl
ENDBRANCH   2  12
BRANCH   2  17
ATOM     17  N   UNL     1       1.466  13.560  20.342  0.00  0.00    +0.000 N 
ATOM     18  O   UNL     1       1.731  13.110  21.460  0.00  0.00    +0.000 OA
ATOM     19  O   UNL     1       2.298  13.965  19.514  0.00  0.00    +0.000 OA
ENDBRANCH   2  17
BRANCH   1  20
ATOM     20  N   UNL     1       0.670  11.672  18.441  0.00  0.00    +0.000 N 
ATOM     21  H   UNL     1       0.486  11.658  17.430  0.00  0.00    +0.000 HD
BRANCH  20  25
ATOM     22  C   UNL     1       2.111   7.720  19.249  0.00  0.00    +0.000 A 
ATOM     23  C   UNL     1       2.317   8.353  18.024  0.00  0.00    +0.000 A 
ATOM     24  C   UNL     1       1.825   9.650  17.801  0.00  0.00    +0.000 A 
ATOM     25  C   UNL     1       1.137  10.374  18.796  0.00  0.00    +0.000 A 
ATOM     26  C   UNL     1       0.926   9.722  20.015  0.00  0.00    +0.000 A 
ATOM     27  C   UNL     1       1.367   8.393  20.229  0.00  0.00    +0.000 A 
BRANCH  22  29
ATOM     28  C   UNL     1       3.714   6.028  18.751  0.00  0.00    +0.000 C 
ATOM     29  O   UNL     1       2.595   6.464  19.521  0.00  0.00    +0.000 OA
ENDBRANCH  22  29
BRANCH  27  30
ATOM     30  O   UNL     1       1.038   7.896  21.468  0.00  0.00    +0.000 OA
ATOM     31  C   UNL     1      -0.116   8.450  22.097  0.00  0.00    +0.000 C 
ENDBRANCH  27  30
ENDBRANCH  20  25
ENDBRANCH   1  20
TORSDOF 7
ENDMDL
