MODEL 1
REMARK VINA RESULT:      -6.1      0.000      0.000
REMARK  Name = 
REMARK  2 active torsions:
REMARK  status: ('A' for Active; 'I' for Inactive)
REMARK    1  A    between atoms: N_5  and  C_6
REMARK    2  A    between atoms: N_15  and  C_16
REMARK                            x       y       z     vdW  Elec       q    Type
REMARK                         _______ _______ _______ _____ _____    ______ ____
ROOT
ATOM      1  O   UNL     1       2.052  10.714  18.044  0.00  0.00    +0.000 OA
ATOM      2  C   UNL     1       1.107  10.924  18.799  0.00  0.00    +0.000 C 
ATOM      3  N   UNL     1       0.603   9.943  19.625  0.00  0.00    +0.000 N 
ATOM      4  C   UNL     1      -0.511  10.280  20.435  0.00  0.00    +0.000 C 
ATOM      5  N   UNL     1      -0.643  11.716  20.330  0.00  0.00    +0.000 N 
ATOM      6  C   UNL     1       0.584  12.280  19.277  0.00  0.00    +0.000 C 
ATOM      7  C   UNL     1       2.370  12.878  19.936  0.00  0.00    +0.000 C 
ATOM      8  C   UNL     1       2.551  14.782  20.382  0.00  0.00    +0.000 C 
ATOM      9  N   UNL     1       1.284  16.042  19.754  0.00  0.00    +0.000 NA
ATOM     10  C   UNL     1      -0.177  15.390  18.798  0.00  0.00    +0.000 C 
ATOM     11  C   UNL     1      -0.375  13.518  18.297  0.00  0.00    +0.000 C 
ATOM     12  H   UNL     1       1.082   9.063  19.722  0.00  0.00    +0.000 HD
ENDROOT
BRANCH   9  13
ATOM     13  C   UNL     1       2.108  16.854  18.920  0.00  0.00    +0.000 C 
ATOM     14  C   UNL     1       1.185  17.867  18.164  0.00  0.00    +0.000 C 
ATOM     15  C   UNL     1      -0.234  18.350  18.683  0.00  0.00    +0.000 C 
ATOM     16  C   UNL     1      -1.388  17.305  18.747  0.00  0.00    +0.000 C 
ATOM     17  C   UNL     1      -2.620  17.636  19.642  0.00  0.00    +0.000 C 
ATOM     18  C   UNL     1      -2.535  17.418  21.155  0.00  0.00    +0.000 C 
ATOM     19  C   UNL     1      -2.559  15.930  21.539  0.00  0.00    +0.000 C 
ATOM     20  C   UNL     1      -1.963  15.703  22.900  0.00  0.00    +0.000 C 
ATOM     21  C   UNL     1      -0.459  15.868  22.943  0.00  0.00    +0.000 C 
ATOM     22  C   UNL     1       0.800  15.299  21.727  0.00  0.00    +0.000 C 
ATOM     23  C   UNL     1       2.707  16.122  21.318  0.00  0.00    +0.000 C 
ATOM     24  C   UNL     1       3.037  17.240  20.047  0.00  0.00    +0.000 C 
ENDBRANCH   9  13
BRANCH   5  25
ATOM     25  C   UNL     1      -1.640  12.320  21.157  0.00  0.00    +0.000 A 
ATOM     26  C   UNL     1      -2.882  12.750  20.642  0.00  0.00    +0.000 A 
ATOM     27  C   UNL     1      -4.053  12.908  21.457  0.00  0.00    +0.000 A 
ATOM     28  C   UNL     1      -4.009  12.675  22.821  0.00  0.00    +0.000 A 
ATOM     29  C   UNL     1      -2.774  12.469  23.388  0.00  0.00    +0.000 A 
ATOM     30  C   UNL     1      -1.612  12.404  22.572  0.00  0.00    +0.000 A 
ENDBRANCH   5  25
TORSDOF 2
ENDMDL
MODEL 2
REMARK VINA RESULT:      -5.9      6.819      9.627
REMARK  Name = 
REMARK  2 active torsions:
REMARK  status: ('A' for Active; 'I' for Inactive)
REMARK    1  A    between atoms: N_5  and  C_6
REMARK    2  A    between atoms: N_15  and  C_16
REMARK                            x       y       z     vdW  Elec       q    Type
REMARK                         _______ _______ _______ _____ _____    ______ ____
ROOT
ATOM      1  O   UNL     1      11.590  11.826  20.205  0.00  0.00    +0.000 OA
ATOM      2  C   UNL     1      10.721  12.634  19.892  0.00  0.00    +0.000 C 
ATOM      3  N   UNL     1      10.290  12.776  18.591  0.00  0.00    +0.000 N 
ATOM      4  C   UNL     1       9.305  13.762  18.333  0.00  0.00    +0.000 C 
ATOM      5  N   UNL     1       8.834  14.185  19.633  0.00  0.00    +0.000 N 
ATOM      6  C   UNL     1       9.706  13.310  20.818  0.00  0.00    +0.000 C 
ATOM      7  C   UNL     1       9.053  11.581  21.570  0.00  0.00    +0.000 C 
ATOM      8  C   UNL     1       7.928  11.690  23.176  0.00  0.00    +0.000 C 
ATOM      9  N   UNL     1       7.889  13.271  24.218  0.00  0.00    +0.000 NA
ATOM     10  C   UNL     1       8.869  14.732  23.602  0.00  0.00    +0.000 C 
ATOM     11  C   UNL     1      10.030  14.656  22.041  0.00  0.00    +0.000 C 
ATOM     12  H   UNL     1      10.590  12.126  17.882  0.00  0.00    +0.000 HD
ENDROOT
BRANCH   9  13
ATOM     13  C   UNL     1       8.425  12.791  25.450  0.00  0.00    +0.000 C 
ATOM     14  C   UNL     1       8.669  14.021  26.386  0.00  0.00    +0.000 C 
ATOM     15  C   UNL     1       7.892  15.400  26.280  0.00  0.00    +0.000 C 
ATOM     16  C   UNL     1       8.128  16.281  25.016  0.00  0.00    +0.000 C 
ATOM     17  C   UNL     1       7.076  17.383  24.692  0.00  0.00    +0.000 C 
ATOM     18  C   UNL     1       5.766  16.997  23.998  0.00  0.00    +0.000 C 
ATOM     19  C   UNL     1       5.965  16.643  22.516  0.00  0.00    +0.000 C 
ATOM     20  C   UNL     1       4.841  15.789  21.998  0.00  0.00    +0.000 C 
ATOM     21  C   UNL     1       4.864  14.368  22.520  0.00  0.00    +0.000 C 
ATOM     22  C   UNL     1       6.304  13.245  22.747  0.00  0.00    +0.000 C 
ATOM     23  C   UNL     1       6.532  11.651  24.122  0.00  0.00    +0.000 C 
ATOM     24  C   UNL     1       7.315  11.785  25.653  0.00  0.00    +0.000 C 
ENDBRANCH   9  13
BRANCH   5  25
ATOM     25  C   UNL     1       7.741  15.107  19.638  0.00  0.00    +0.000 A 
ATOM     26  C   UNL     1       7.921  16.481  19.903  0.00  0.00    +0.000 A 
ATOM     27  C   UNL     1       6.995  17.488  19.467  0.00  0.00    +0.000 A 
ATOM     28  C   UNL     1       5.840  17.147  18.784  0.00  0.00    +0.000 A 
ATOM     29  C   UNL     1       5.526  15.812  18.700  0.00  0.00    +0.000 A 
ATOM     30  C   UNL     1       6.415  14.832  19.218  0.00  0.00    +0.000 A 
ENDBRANCH   5  25
TORSDOF 2
ENDMDL
MODEL 3
REMARK VINA RESULT:      -5.8      1.864      5.768
REMARK  Name = 
REMARK  2 active torsions:
REMARK  status: ('A' for Active; 'I' for Inactive)
REMARK    1  A    between atoms: N_5  and  C_6
REMARK    2  A    between atoms: N_15  and  C_16
REMARK                            x       y       z     vdW  Elec       q    Type
REMARK                         _______ _______ _______ _____ _____    ______ ____
ROOT
ATOM      1  O   UNL     1       2.284  16.333  18.259  0.00  0.00    +0.000 OA
ATOM      2  C   UNL     1       1.546  16.325  19.239  0.00  0.00    +0.000 C 
ATOM      3  N   UNL     1       0.965  17.476  19.724  0.00  0.00    +0.000 N 
ATOM      4  C   UNL     1       0.153  17.362  20.881  0.00  0.00    +0.000 C 
ATOM      5  N   UNL     1      -0.036  15.942  21.079  0.00  0.00    +0.000 N 
ATOM      6  C   UNL     1       0.820  15.121  19.845  0.00  0.00    +0.000 C 
ATOM      7  C   UNL     1      -0.029  14.603  18.115  0.00  0.00    +0.000 C 
ATOM      8  C   UNL     1      -0.869  12.830  18.043  0.00  0.00    +0.000 C 
ATOM      9  N   UNL     1      -0.460  11.518  19.347  0.00  0.00    +0.000 NA
ATOM     10  C   UNL     1       0.675  12.013  20.739  0.00  0.00    +0.000 C 
ATOM     11  C   UNL     1       1.563  13.745  20.828  0.00  0.00    +0.000 C 
ATOM     12  H   UNL     1       1.032  18.337  19.206  0.00  0.00    +0.000 HD
ENDROOT
BRANCH   9  13
ATOM     13  C   UNL     1       0.150  10.517  18.535  0.00  0.00    +0.000 C 
ATOM     14  C   UNL     1       0.757   9.427  19.480  0.00  0.00    +0.000 C 
ATOM     15  C   UNL     1       0.248   9.131  20.953  0.00  0.00    +0.000 C 
ATOM     16  C   UNL     1       0.459  10.229  22.039  0.00  0.00    +0.000 C 
ATOM     17  C   UNL     1      -0.401  10.144  23.335  0.00  0.00    +0.000 C 
ATOM     18  C   UNL     1      -1.847  10.647  23.316  0.00  0.00    +0.000 C 
ATOM     19  C   UNL     1      -1.939  12.180  23.264  0.00  0.00    +0.000 C 
ATOM     20  C   UNL     1      -3.267  12.635  22.727  0.00  0.00    +0.000 C 
ATOM     21  C   UNL     1      -3.438  12.401  21.242  0.00  0.00    +0.000 C 
ATOM     22  C   UNL     1      -2.219  12.654  19.886  0.00  0.00    +0.000 C 
ATOM     23  C   UNL     1      -2.099  11.667  18.017  0.00  0.00    +0.000 C 
ATOM     24  C   UNL     1      -1.089  10.307  17.694  0.00  0.00    +0.000 C 
ENDBRANCH   9  13
BRANCH   5  25
ATOM     25  C   UNL     1      -0.925  15.566  22.134  0.00  0.00    +0.000 A 
ATOM     26  C   UNL     1      -0.456  15.114  23.385  0.00  0.00    +0.000 A 
ATOM     27  C   UNL     1      -1.240  15.182  24.585  0.00  0.00    +0.000 A 
ATOM     28  C   UNL     1      -2.535  15.671  24.564  0.00  0.00    +0.000 A 
ATOM     29  C   UNL     1      -3.098  15.916  23.335  0.00  0.00    +0.000 A 
ATOM     30  C   UNL     1      -2.330  15.757  22.149  0.00  0.00    +0.000 A 
ENDBRANCH   5  25
TORSDOF 2
ENDMDL
MODEL 4
REMARK VINA RESULT:      -5.8      2.085      4.032
REMARK  Name = 
REMARK  2 active torsions:
REMARK  status: ('A' for Active; 'I' for Inactive)
REMARK    1  A    between atoms: N_5  and  C_6
REMARK    2  A    between atoms: N_15  and  C_16
REMARK                            x       y       z     vdW  Elec       q    Type
REMARK                         _______ _______ _______ _____ _____    ______ ____
ROOT
ATOM      1  O   UNL     1       3.272  16.996  17.968  0.00  0.00    +0.000 OA
ATOM      2  C   UNL     1       2.691  15.924  18.108  0.00  0.00    +0.000 C 
ATOM      3  N   UNL     1       3.292  14.723  17.801  0.00  0.00    +0.000 N 
ATOM      4  C   UNL     1       2.522  13.544  17.969  0.00  0.00    +0.000 C 
ATOM      5  N   UNL     1       1.340  13.957  18.694  0.00  0.00    +0.000 N 
ATOM      6  C   UNL     1       1.453  15.644  18.965  0.00  0.00    +0.000 C 
ATOM      7  C   UNL     1       2.267  16.413  20.616  0.00  0.00    +0.000 C 
ATOM      8  C   UNL     1       1.053  16.742  22.124  0.00  0.00    +0.000 C 
ATOM      9  N   UNL     1      -0.821  16.802  21.855  0.00  0.00    +0.000 NA
ATOM     10  C   UNL     1      -1.456  16.435  20.142  0.00  0.00    +0.000 C 
ATOM     11  C   UNL     1      -0.289  16.145  18.610  0.00  0.00    +0.000 C 
ATOM     12  H   UNL     1       4.272  14.688  17.572  0.00  0.00    +0.000 HD
ENDROOT
BRANCH   9  13
ATOM     13  C   UNL     1      -1.098  18.154  22.213  0.00  0.00    +0.000 C 
ATOM     14  C   UNL     1      -2.603  18.443  21.895  0.00  0.00    +0.000 C 
ATOM     15  C   UNL     1      -3.736  17.335  21.826  0.00  0.00    +0.000 C 
ATOM     16  C   UNL     1      -3.667  16.284  20.677  0.00  0.00    +0.000 C 
ATOM     17  C   UNL     1      -4.484  14.968  20.846  0.00  0.00    +0.000 C 
ATOM     18  C   UNL     1      -3.925  13.839  21.716  0.00  0.00    +0.000 C 
ATOM     19  C   UNL     1      -2.745  13.111  21.054  0.00  0.00    +0.000 C 
ATOM     20  C   UNL     1      -1.894  12.402  22.070  0.00  0.00    +0.000 C 
ATOM     21  C   UNL     1      -1.064  13.334  22.927  0.00  0.00    +0.000 C 
ATOM     22  C   UNL     1      -0.126  14.835  22.425  0.00  0.00    +0.000 C 
ATOM     23  C   UNL     1       0.366  16.536  23.587  0.00  0.00    +0.000 C 
ATOM     24  C   UNL     1      -0.548  17.998  23.613  0.00  0.00    +0.000 C 
ENDBRANCH   9  13
BRANCH   5  25
ATOM     25  C   UNL     1       0.447  12.914  19.090  0.00  0.00    +0.000 A 
ATOM     26  C   UNL     1      -0.766  12.668  18.413  0.00  0.00    +0.000 A 
ATOM     27  C   UNL     1      -1.437  11.400  18.448  0.00  0.00    +0.000 A 
ATOM     28  C   UNL     1      -0.934  10.347  19.195  0.00  0.00    +0.000 A 
ATOM     29  C   UNL     1       0.119  10.615  20.036  0.00  0.00    +0.000 A 
ATOM     30  C   UNL     1       0.715  11.905  20.051  0.00  0.00    +0.000 A 
ENDBRANCH   5  25
TORSDOF 2
ENDMDL
MODEL 5
REMARK VINA RESULT:      -5.6      1.661      5.600
REMARK  Name = 
REMARK  2 active torsions:
REMARK  status: ('A' for Active; 'I' for Inactive)
REMARK    1  A    between atoms: N_5  and  C_6
REMARK    2  A    between atoms: N_15  and  C_16
REMARK                            x       y       z     vdW  Elec       q    Type
REMARK                         _______ _______ _______ _____ _____    ______ ____
ROOT
ATOM      1  O   UNL     1       0.019   9.969  19.226  0.00  0.00    +0.000 OA
ATOM      2  C   UNL     1       0.363  11.147  19.231  0.00  0.00    +0.000 C 
ATOM      3  N   UNL     1       1.102  11.696  18.205  0.00  0.00    +0.000 N 
ATOM      4  C   UNL     1       1.475  13.058  18.324  0.00  0.00    +0.000 C 
ATOM      5  N   UNL     1       0.713  13.570  19.442  0.00  0.00    +0.000 N 
ATOM      6  C   UNL     1      -0.231  12.285  20.065  0.00  0.00    +0.000 C 
ATOM      7  C   UNL     1      -2.096  11.928  19.451  0.00  0.00    +0.000 C 
ATOM      8  C   UNL     1      -3.535  12.823  20.443  0.00  0.00    +0.000 C 
ATOM      9  N   UNL     1      -3.209  13.558  22.159  0.00  0.00    +0.000 NA
ATOM     10  C   UNL     1      -1.463  13.488  22.806  0.00  0.00    +0.000 C 
ATOM     11  C   UNL     1      -0.015  12.574  21.877  0.00  0.00    +0.000 C 
ATOM     12  H   UNL     1       1.268  11.172  17.361  0.00  0.00    +0.000 HD
ENDROOT
BRANCH   9  13
ATOM     13  C   UNL     1      -4.073  12.756  22.960  0.00  0.00    +0.000 C 
ATOM     14  C   UNL     1      -3.797  13.096  24.462  0.00  0.00    +0.000 C 
ATOM     15  C   UNL     1      -3.197  14.471  24.977  0.00  0.00    +0.000 C 
ATOM     16  C   UNL     1      -1.724  14.817  24.601  0.00  0.00    +0.000 C 
ATOM     17  C   UNL     1      -1.276  16.304  24.712  0.00  0.00    +0.000 C 
ATOM     18  C   UNL     1      -1.638  17.288  23.595  0.00  0.00    +0.000 C 
ATOM     19  C   UNL     1      -0.819  17.056  22.315  0.00  0.00    +0.000 C 
ATOM     20  C   UNL     1      -1.509  17.628  21.108  0.00  0.00    +0.000 C 
ATOM     21  C   UNL     1      -2.730  16.846  20.676  0.00  0.00    +0.000 C 
ATOM     22  C   UNL     1      -2.962  15.023  20.586  0.00  0.00    +0.000 C 
ATOM     23  C   UNL     1      -4.754  13.908  20.756  0.00  0.00    +0.000 C 
ATOM     24  C   UNL     1      -5.318  13.182  22.215  0.00  0.00    +0.000 C 
ENDBRANCH   9  13
BRANCH   5  25
ATOM     25  C   UNL     1       0.831  14.971  19.696  0.00  0.00    +0.000 A 
ATOM     26  C   UNL     1       1.653  15.480  20.724  0.00  0.00    +0.000 A 
ATOM     27  C   UNL     1       2.169  16.819  20.720  0.00  0.00    +0.000 A 
ATOM     28  C   UNL     1       1.848  17.705  19.706  0.00  0.00    +0.000 A 
ATOM     29  C   UNL     1       0.881  17.316  18.810  0.00  0.00    +0.000 A 
ATOM     30  C   UNL     1       0.316  16.014  18.884  0.00  0.00    +0.000 A 
ENDBRANCH   5  25
TORSDOF 2
ENDMDL
MODEL 6
REMARK VINA RESULT:      -5.5      3.579      6.588
REMARK  Name = 
REMARK  2 active torsions:
REMARK  status: ('A' for Active; 'I' for Inactive)
REMARK    1  A    between atoms: N_5  and  C_6
REMARK    2  A    between atoms: N_15  and  C_16
REMARK                            x       y       z     vdW  Elec       q    Type
REMARK                         _______ _______ _______ _____ _____    ______ ____
ROOT
ATOM      1  O   UNL     1      -0.720  13.368  23.449  0.00  0.00    +0.000 OA
ATOM      2  C   UNL     1      -0.988  12.837  22.375  0.00  0.00    +0.000 C 
ATOM      3  N   UNL     1      -0.311  11.727  21.920  0.00  0.00    +0.000 N 
ATOM      4  C   UNL     1      -0.677  11.211  20.652  0.00  0.00    +0.000 C 
ATOM      5  N   UNL     1      -1.899  11.898  20.296  0.00  0.00    +0.000 N 
ATOM      6  C   UNL     1      -2.275  12.990  21.559  0.00  0.00    +0.000 C 
ATOM      7  C   UNL     1      -3.453  12.492  23.091  0.00  0.00    +0.000 C 
ATOM      8  C   UNL     1      -5.373  12.841  22.873  0.00  0.00    +0.000 C 
ATOM      9  N   UNL     1      -5.990  14.021  21.525  0.00  0.00    +0.000 NA
ATOM     10  C   UNL     1      -4.721  14.742  20.367  0.00  0.00    +0.000 C 
ATOM     11  C   UNL     1      -2.805  14.458  20.571  0.00  0.00    +0.000 C 
ATOM     12  H   UNL     1       0.339  11.246  22.521  0.00  0.00    +0.000 HD
ENDROOT
BRANCH   9  13
ATOM     13  C   UNL     1      -6.583  15.046  22.320  0.00  0.00    +0.000 C 
ATOM     14  C   UNL     1      -7.075  16.181  21.362  0.00  0.00    +0.000 C 
ATOM     15  C   UNL     1      -7.449  15.969  19.835  0.00  0.00    +0.000 C 
ATOM     16  C   UNL     1      -6.307  15.591  18.844  0.00  0.00    +0.000 C 
ATOM     17  C   UNL     1      -6.709  14.963  17.476  0.00  0.00    +0.000 C 
ATOM     18  C   UNL     1      -7.066  13.475  17.404  0.00  0.00    +0.000 C 
ATOM     19  C   UNL     1      -5.836  12.565  17.547  0.00  0.00    +0.000 C 
ATOM     20  C   UNL     1      -6.222  11.184  17.997  0.00  0.00    +0.000 C 
ATOM     21  C   UNL     1      -6.659  11.112  19.444  0.00  0.00    +0.000 C 
ATOM     22  C   UNL     1      -5.929  11.948  20.912  0.00  0.00    +0.000 C 
ATOM     23  C   UNL     1      -6.879  12.515  22.717  0.00  0.00    +0.000 C 
ATOM     24  C   UNL     1      -7.508  14.089  23.037  0.00  0.00    +0.000 C 
ENDBRANCH   9  13
BRANCH   5  25
ATOM     25  C   UNL     1      -2.537  11.465  19.092  0.00  0.00    +0.000 A 
ATOM     26  C   UNL     1      -2.346  12.129  17.862  0.00  0.00    +0.000 A 
ATOM     27  C   UNL     1      -2.555  11.494  16.591  0.00  0.00    +0.000 A 
ATOM     28  C   UNL     1      -2.999  10.185  16.512  0.00  0.00    +0.000 A 
ATOM     29  C   UNL     1      -3.402   9.583  17.680  0.00  0.00    +0.000 A 
ATOM     30  C   UNL     1      -3.269  10.262  18.921  0.00  0.00    +0.000 A 
ENDBRANCH   5  25
TORSDOF 2
ENDMDL
MODEL 7
REMARK VINA RESULT:      -5.4      7.622     10.668
REMARK  Name = 
REMARK  2 active torsions:
REMARK  status: ('A' for Active; 'I' for Inactive)
REMARK    1  A    between atoms: N_5  and  C_6
REMARK    2  A    between atoms: N_15  and  C_16
REMARK                            x       y       z     vdW  Elec       q    Type
REMARK                         _______ _______ _______ _____ _____    ______ ____
ROOT
ATOM      1  O   UNL     1      11.607  18.297  17.078  0.00  0.00    +0.000 OA
ATOM      2  C   UNL     1      11.386  17.122  17.357  0.00  0.00    +0.000 C 
ATOM      3  N   UNL     1      12.205  16.103  16.923  0.00  0.00    +0.000 N 
ATOM      4  C   UNL     1      11.842  14.778  17.273  0.00  0.00    +0.000 C 
ATOM      5  N   UNL     1      10.788  14.915  18.253  0.00  0.00    +0.000 N 
ATOM      6  C   UNL     1      10.496  16.586  18.481  0.00  0.00    +0.000 C 
ATOM      7  C   UNL     1      11.421  17.653  19.891  0.00  0.00    +0.000 C 
ATOM      8  C   UNL     1      10.535  17.755  21.640  0.00  0.00    +0.000 C 
ATOM      9  N   UNL     1       8.704  17.302  21.819  0.00  0.00    +0.000 NA
ATOM     10  C   UNL     1       7.824  16.665  20.305  0.00  0.00    +0.000 C 
ATOM     11  C   UNL     1       8.650  16.587  18.543  0.00  0.00    +0.000 C 
ATOM     12  H   UNL     1      13.081  16.311  16.470  0.00  0.00    +0.000 HD
ENDROOT
BRANCH   9  13
ATOM     13  C   UNL     1       8.159  18.556  22.226  0.00  0.00    +0.000 C 
ATOM     14  C   UNL     1       6.599  18.427  22.234  0.00  0.00    +0.000 C 
ATOM     15  C   UNL     1       5.810  17.062  22.410  0.00  0.00    +0.000 C 
ATOM     16  C   UNL     1       5.919  15.999  21.275  0.00  0.00    +0.000 C 
ATOM     17  C   UNL     1       5.531  14.529  21.616  0.00  0.00    +0.000 C 
ATOM     18  C   UNL     1       6.534  13.635  22.350  0.00  0.00    +0.000 C 
ATOM     19  C   UNL     1       7.704  13.199  21.453  0.00  0.00    +0.000 C 
ATOM     20  C   UNL     1       8.901  12.795  22.266  0.00  0.00    +0.000 C 
ATOM     21  C   UNL     1       9.613  13.957  22.925  0.00  0.00    +0.000 C 
ATOM     22  C   UNL     1       9.996  15.618  22.232  0.00  0.00    +0.000 C 
ATOM     23  C   UNL     1      10.248  17.453  23.259  0.00  0.00    +0.000 C 
ATOM     24  C   UNL     1       9.005  18.629  23.476  0.00  0.00    +0.000 C 
ENDBRANCH   9  13
BRANCH   5  25
ATOM     25  C   UNL     1      10.324  13.703  18.854  0.00  0.00    +0.000 A 
ATOM     26  C   UNL     1       9.162  13.041  18.405  0.00  0.00    +0.000 A 
ATOM     27  C   UNL     1       8.924  11.643  18.626  0.00  0.00    +0.000 A 
ATOM     28  C   UNL     1       9.826  10.870  19.337  0.00  0.00    +0.000 A 
ATOM     29  C   UNL     1      10.855  11.523  19.972  0.00  0.00    +0.000 A 
ATOM     30  C   UNL     1      11.023  12.926  19.812  0.00  0.00    +0.000 A 
ENDBRANCH   5  25
TORSDOF 2
ENDMDL
MODEL 8
REMARK VINA RESULT:      -5.4      5.863      8.893
REMARK  Name = 
REMARK  2 active torsions:
REMARK  status: ('A' for Active; 'I' for Inactive)
REMARK    1  A    between atoms: N_5  and  C_6
REMARK    2  A    between atoms: N_15  and  C_16
REMARK                            x       y       z     vdW  Elec       q    Type
REMARK                         _______ _______ _______ _____ _____    ______ ____
ROOT
ATOM      1  O   UNL     1       3.874  15.632  17.098  0.00  0.00    +0.000 OA
ATOM      2  C   UNL     1       4.070  15.456  18.297  0.00  0.00    +0.000 C 
ATOM      3  N   UNL     1       3.141  14.838  19.106  0.00  0.00    +0.000 N 
ATOM      4  C   UNL     1       3.452  14.714  20.483  0.00  0.00    +0.000 C 
ATOM      5  N   UNL     1       4.848  15.075  20.596  0.00  0.00    +0.000 N 
ATOM      6  C   UNL     1       5.412  15.485  19.032  0.00  0.00    +0.000 C 
ATOM      7  C   UNL     1       6.252  14.149  17.811  0.00  0.00    +0.000 C 
ATOM      8  C   UNL     1       8.202  13.950  17.934  0.00  0.00    +0.000 C 
ATOM      9  N   UNL     1       9.254  15.279  18.779  0.00  0.00    +0.000 NA
ATOM     10  C   UNL     1       8.360  16.710  19.570  0.00  0.00    +0.000 C 
ATOM     11  C   UNL     1       6.434  16.970  19.437  0.00  0.00    +0.000 C 
ATOM     12  H   UNL     1       2.328  14.400  18.704  0.00  0.00    +0.000 HD
ENDROOT
BRANCH   9  13
ATOM     13  C   UNL     1      10.047  15.728  17.682  0.00  0.00    +0.000 C 
ATOM     14  C   UNL     1      10.875  16.968  18.156  0.00  0.00    +0.000 C 
ATOM     15  C   UNL     1      11.270  17.262  19.664  0.00  0.00    +0.000 C 
ATOM     16  C   UNL     1      10.130  17.606  20.669  0.00  0.00    +0.000 C 
ATOM     17  C   UNL     1      10.433  17.463  22.190  0.00  0.00    +0.000 C 
ATOM     18  C   UNL     1      10.391  16.078  22.842  0.00  0.00    +0.000 C 
ATOM     19  C   UNL     1       8.959  15.543  22.999  0.00  0.00    +0.000 C 
ATOM     20  C   UNL     1       8.942  14.045  23.130  0.00  0.00    +0.000 C 
ATOM     21  C   UNL     1       9.258  13.316  21.842  0.00  0.00    +0.000 C 
ATOM     22  C   UNL     1       8.687  13.691  20.133  0.00  0.00    +0.000 C 
ATOM     23  C   UNL     1       9.644  13.256  18.296  0.00  0.00    +0.000 C 
ATOM     24  C   UNL     1      10.644  14.362  17.429  0.00  0.00    +0.000 C 
ENDBRANCH   9  13
BRANCH   5  25
ATOM     25  C   UNL     1       5.437  14.919  21.889  0.00  0.00    +0.000 A 
ATOM     26  C   UNL     1       5.656  16.015  22.750  0.00  0.00    +0.000 A 
ATOM     27  C   UNL     1       5.784  15.876  24.173  0.00  0.00    +0.000 A 
ATOM     28  C   UNL     1       5.735  14.631  24.776  0.00  0.00    +0.000 A 
ATOM     29  C   UNL     1       5.742  13.530  23.954  0.00  0.00    +0.000 A 
ATOM     30  C   UNL     1       5.704  13.688  22.542  0.00  0.00    +0.000 A 
ENDBRANCH   5  25
TORSDOF 2
ENDMDL
MODEL 9
REMARK VINA RESULT:      -5.3      1.191      1.232
REMARK  Name = 
REMARK  2 active torsions:
REMARK  status: ('A' for Active; 'I' for Inactive)
REMARK    1  A    between atoms: N_5  and  C_6
REMARK    2  A    between atoms: N_15  and  C_16
REMARK                            x       y       z     vdW  Elec       q    Type
REMARK                         _______ _______ _______ _____ _____    ______ ____
ROOT
ATOM      1  O   UNL     1       1.413  10.523  19.258  0.00  0.00    +0.000 OA
ATOM      2  C   UNL     1       0.584  11.068  19.980  0.00  0.00    +0.000 C 
ATOM      3  N   UNL     1       0.029  10.427  21.067  0.00  0.00    +0.000 N 
ATOM      4  C   UNL     1      -0.943  11.135  21.817  0.00  0.00    +0.000 C 
ATOM      5  N   UNL     1      -0.882  12.498  21.337  0.00  0.00    +0.000 N 
ATOM      6  C   UNL     1       0.304  12.568  20.105  0.00  0.00    +0.000 C 
ATOM      7  C   UNL     1       2.212  13.020  20.479  0.00  0.00    +0.000 C 
ATOM      8  C   UNL     1       2.700  14.919  20.386  0.00  0.00    +0.000 C 
ATOM      9  N   UNL     1       1.568  16.163  19.514  0.00  0.00    +0.000 NA
ATOM     10  C   UNL     1      -0.055  15.530  18.852  0.00  0.00    +0.000 C 
ATOM     11  C   UNL     1      -0.561  13.650  18.884  0.00  0.00    +0.000 C 
ATOM     12  H   UNL     1       0.387   9.536  21.369  0.00  0.00    +0.000 HD
ENDROOT
BRANCH   9  13
ATOM     13  C   UNL     1       2.413  16.589  18.448  0.00  0.00    +0.000 C 
ATOM     14  C   UNL     1       1.565  17.486  17.485  0.00  0.00    +0.000 C 
ATOM     15  C   UNL     1       0.271  18.295  17.917  0.00  0.00    +0.000 C 
ATOM     16  C   UNL     1      -0.998  17.488  18.326  0.00  0.00    +0.000 C 
ATOM     17  C   UNL     1      -2.095  18.225  19.151  0.00  0.00    +0.000 C 
ATOM     18  C   UNL     1      -1.906  18.411  20.659  0.00  0.00    +0.000 C 
ATOM     19  C   UNL     1      -2.088  17.102  21.444  0.00  0.00    +0.000 C 
ATOM     20  C   UNL     1      -1.409  17.164  22.783  0.00  0.00    +0.000 C 
ATOM     21  C   UNL     1       0.101  17.111  22.706  0.00  0.00    +0.000 C 
ATOM     22  C   UNL     1       1.166  16.058  21.636  0.00  0.00    +0.000 C 
ATOM     23  C   UNL     1       3.120  16.450  20.923  0.00  0.00    +0.000 C 
ATOM     24  C   UNL     1       3.479  17.124  19.377  0.00  0.00    +0.000 C 
ENDBRANCH   9  13
BRANCH   5  25
ATOM     25  C   UNL     1      -1.701  13.446  22.026  0.00  0.00    +0.000 A 
ATOM     26  C   UNL     1      -2.933  13.893  21.503  0.00  0.00    +0.000 A 
ATOM     27  C   UNL     1      -3.977  14.439  22.323  0.00  0.00    +0.000 A 
ATOM     28  C   UNL     1      -3.806  14.590  23.688  0.00  0.00    +0.000 A 
ATOM     29  C   UNL     1      -2.549  14.371  24.197  0.00  0.00    +0.000 A 
ATOM     30  C   UNL     1      -1.502  13.914  23.350  0.00  0.00    +0.000 A 
ENDBRANCH   5  25
TORSDOF 2
ENDMDL
