MODEL 1
REMARK VINA RESULT:      -8.5      0.000      0.000
REMARK  Name = 
REMARK  5 active torsions:
REMARK  status: ('A' for Active; 'I' for Inactive)
REMARK    1  A    between atoms: C_1  and  O_2
REMARK    2  A    between atoms: O_2  and  C_3
REMARK    3  A    between atoms: C_6  and  C_7
REMARK    4  A    between atoms: N_9  and  C_10
REMARK    5  A    between atoms: C_15  and  C_16
REMARK                            x       y       z     vdW  Elec       q    Type
REMARK                         _______ _______ _______ _____ _____    ______ ____
ROOT
ATOM      1  C   UNL     1       3.257   3.860  19.448  0.00  0.00    +0.000 A 
ATOM      2  C   UNL     1       3.321   2.542  19.928  0.00  0.00    +0.000 A 
ATOM      3  C   UNL     1       2.762   2.204  21.163  0.00  0.00    +0.000 A 
ATOM      4  C   UNL     1       2.114   3.172  21.919  0.00  0.00    +0.000 A 
ATOM      5  C   UNL     1       2.017   4.475  21.437  0.00  0.00    +0.000 A 
ATOM      6  C   UNL     1       2.585   4.843  20.200  0.00  0.00    +0.000 A 
ENDROOT
BRANCH   6   7
ATOM      7  C   UNL     1       2.247   6.230  19.739  0.00  0.00    +0.000 C 
ATOM      8  O   UNL     1       2.454   6.479  18.557  0.00  0.00    +0.000 OA
ATOM      9  N   UNL     1       1.744   7.100  20.679  0.00  0.00    +0.000 N 
ATOM     10  C   UNL     1       1.420   8.445  20.440  0.00  0.00    +0.000 A 
ATOM     11  C   UNL     1       1.011   9.218  21.523  0.00  0.00    +0.000 A 
ATOM     12  C   UNL     1       0.664  10.553  21.308  0.00  0.00    +0.000 A 
ATOM     13  C   UNL     1       0.720  11.075  20.024  0.00  0.00    +0.000 A 
ATOM     14  C   UNL     1       1.145  10.241  19.007  0.00  0.00    +0.000 A 
ATOM     15  N   UNL     1       1.501   8.957  19.198  0.00  0.00    +0.000 NA
ATOM     16  H   UNL     1       1.549   6.739  21.594  0.00  0.00    +0.000 HD
ENDBRANCH   6   7
BRANCH   1  19
ATOM     17  C   UNL     1       5.218   4.300  18.108  0.00  0.00    +0.000 C 
ATOM     18  O   UNL     1       5.937   4.389  19.098  0.00  0.00    +0.000 OA
ATOM     19  N   UNL     1       3.842   4.101  18.178  0.00  0.00    +0.000 N 
ATOM     20  H   UNL     1       3.514   3.477  17.448  0.00  0.00    +0.000 HD
BRANCH  17  24
ATOM     21  C   UNL     1       6.889   4.717  14.171  0.00  0.00    +0.000 A 
ATOM     22  C   UNL     1       5.604   4.210  14.358  0.00  0.00    +0.000 A 
ATOM     23  C   UNL     1       5.056   4.131  15.639  0.00  0.00    +0.000 A 
ATOM     24  C   UNL     1       5.801   4.537  16.756  0.00  0.00    +0.000 A 
ATOM     25  C   UNL     1       7.100   5.026  16.568  0.00  0.00    +0.000 A 
ATOM     26  C   UNL     1       7.638   5.119  15.278  0.00  0.00    +0.000 A 
BRANCH  21  28
ATOM     27  C   UNL     1       6.739   3.757  12.019  0.00  0.00    +0.000 C 
ATOM     28  O   UNL     1       7.329   4.727  12.877  0.00  0.00    +0.000 OA
ENDBRANCH  21  28
ENDBRANCH  17  24
ENDBRANCH   1  19
TORSDOF 4
ENDMDL
MODEL 2
REMARK VINA RESULT:      -8.3      1.001      1.330
REMARK  Name = 
REMARK  5 active torsions:
REMARK  status: ('A' for Active; 'I' for Inactive)
REMARK    1  A    between atoms: C_1  and  O_2
REMARK    2  A    between atoms: O_2  and  C_3
REMARK    3  A    between atoms: C_6  and  C_7
REMARK    4  A    between atoms: N_9  and  C_10
REMARK    5  A    between atoms: C_15  and  C_16
REMARK                            x       y       z     vdW  Elec       q    Type
REMARK                         _______ _______ _______ _____ _____    ______ ____
ROOT
ATOM      1  C   UNL     1       3.660   3.883  19.807  0.00  0.00    +0.000 A 
ATOM      2  C   UNL     1       3.676   2.582  20.336  0.00  0.00    +0.000 A 
ATOM      3  C   UNL     1       2.764   2.200  21.321  0.00  0.00    +0.000 A 
ATOM      4  C   UNL     1       1.810   3.105  21.772  0.00  0.00    +0.000 A 
ATOM      5  C   UNL     1       1.766   4.388  21.232  0.00  0.00    +0.000 A 
ATOM      6  C   UNL     1       2.685   4.800  20.245  0.00  0.00    +0.000 A 
ENDROOT
BRANCH   6   7
ATOM      7  C   UNL     1       2.399   6.142  19.639  0.00  0.00    +0.000 C 
ATOM      8  O   UNL     1       2.715   6.290  18.464  0.00  0.00    +0.000 OA
ATOM      9  N   UNL     1       1.818   7.088  20.451  0.00  0.00    +0.000 N 
ATOM     10  C   UNL     1       1.525   8.407  20.070  0.00  0.00    +0.000 A 
ATOM     11  C   UNL     1       1.023   9.269  21.041  0.00  0.00    +0.000 A 
ATOM     12  C   UNL     1       0.705  10.580  20.682  0.00  0.00    +0.000 A 
ATOM     13  C   UNL     1       0.882  10.991  19.369  0.00  0.00    +0.000 A 
ATOM     14  C   UNL     1       1.393  10.074  18.470  0.00  0.00    +0.000 A 
ATOM     15  N   UNL     1       1.723   8.812  18.802  0.00  0.00    +0.000 NA
ATOM     16  H   UNL     1       1.538   6.806  21.372  0.00  0.00    +0.000 HD
ENDBRANCH   6   7
BRANCH   1  19
ATOM     17  C   UNL     1       4.332   3.801  17.489  0.00  0.00    +0.000 C 
ATOM     18  O   UNL     1       3.347   3.141  17.173  0.00  0.00    +0.000 OA
ATOM     19  N   UNL     1       4.618   4.170  18.800  0.00  0.00    +0.000 N 
ATOM     20  H   UNL     1       5.001   5.108  18.853  0.00  0.00    +0.000 HD
BRANCH  17  24
ATOM     21  C   UNL     1       7.198   5.009  14.522  0.00  0.00    +0.000 A 
ATOM     22  C   UNL     1       7.266   5.491  15.829  0.00  0.00    +0.000 A 
ATOM     23  C   UNL     1       6.360   5.048  16.793  0.00  0.00    +0.000 A 
ATOM     24  C   UNL     1       5.354   4.131  16.454  0.00  0.00    +0.000 A 
ATOM     25  C   UNL     1       5.274   3.665  15.136  0.00  0.00    +0.000 A 
ATOM     26  C   UNL     1       6.197   4.100  14.176  0.00  0.00    +0.000 A 
BRANCH  21  28
ATOM     27  C   UNL     1       7.787   5.448  12.279  0.00  0.00    +0.000 C 
ATOM     28  O   UNL     1       8.122   5.529  13.659  0.00  0.00    +0.000 OA
ENDBRANCH  21  28
ENDBRANCH  17  24
ENDBRANCH   1  19
TORSDOF 4
ENDMDL
MODEL 3
REMARK VINA RESULT:      -7.8      4.222      5.736
REMARK  Name = 
REMARK  5 active torsions:
REMARK  status: ('A' for Active; 'I' for Inactive)
REMARK    1  A    between atoms: C_1  and  O_2
REMARK    2  A    between atoms: O_2  and  C_3
REMARK    3  A    between atoms: C_6  and  C_7
REMARK    4  A    between atoms: N_9  and  C_10
REMARK    5  A    between atoms: C_15  and  C_16
REMARK                            x       y       z     vdW  Elec       q    Type
REMARK                         _______ _______ _______ _____ _____    ______ ____
ROOT
ATOM      1  C   UNL     1       6.238   6.233  16.676  0.00  0.00    +0.000 A 
ATOM      2  C   UNL     1       6.932   5.554  15.662  0.00  0.00    +0.000 A 
ATOM      3  C   UNL     1       6.540   4.275  15.262  0.00  0.00    +0.000 A 
ATOM      4  C   UNL     1       5.437   3.671  15.853  0.00  0.00    +0.000 A 
ATOM      5  C   UNL     1       4.723   4.349  16.838  0.00  0.00    +0.000 A 
ATOM      6  C   UNL     1       5.107   5.636  17.267  0.00  0.00    +0.000 A 
ENDROOT
BRANCH   6   7
ATOM      7  C   UNL     1       4.142   6.304  18.201  0.00  0.00    +0.000 C 
ATOM      8  O   UNL     1       4.068   5.841  19.333  0.00  0.00    +0.000 OA
ATOM      9  N   UNL     1       3.423   7.367  17.707  0.00  0.00    +0.000 N 
ATOM     10  C   UNL     1       2.444   8.078  18.420  0.00  0.00    +0.000 A 
ATOM     11  C   UNL     1       1.738   9.069  17.744  0.00  0.00    +0.000 A 
ATOM     12  C   UNL     1       0.774   9.804  18.435  0.00  0.00    +0.000 A 
ATOM     13  C   UNL     1       0.550   9.542  19.779  0.00  0.00    +0.000 A 
ATOM     14  C   UNL     1       1.288   8.536  20.372  0.00  0.00    +0.000 A 
ATOM     15  N   UNL     1       2.209   7.805  19.716  0.00  0.00    +0.000 NA
ATOM     16  H   UNL     1       3.642   7.693  16.784  0.00  0.00    +0.000 HD
ENDBRANCH   6   7
BRANCH   1  19
ATOM     17  C   UNL     1       7.734   7.655  17.930  0.00  0.00    +0.000 C 
ATOM     18  O   UNL     1       8.186   6.706  18.565  0.00  0.00    +0.000 OA
ATOM     19  N   UNL     1       6.704   7.534  17.002  0.00  0.00    +0.000 N 
ATOM     20  H   UNL     1       6.850   8.133  16.197  0.00  0.00    +0.000 HD
BRANCH  17  24
ATOM     21  C   UNL     1       9.222  11.634  18.579  0.00  0.00    +0.000 A 
ATOM     22  C   UNL     1       8.315  11.362  17.555  0.00  0.00    +0.000 A 
ATOM     23  C   UNL     1       7.801  10.075  17.392  0.00  0.00    +0.000 A 
ATOM     24  C   UNL     1       8.209   9.035  18.239  0.00  0.00    +0.000 A 
ATOM     25  C   UNL     1       9.136   9.306  19.253  0.00  0.00    +0.000 A 
ATOM     26  C   UNL     1       9.636  10.603  19.424  0.00  0.00    +0.000 A 
BRANCH  21  28
ATOM     27  C   UNL     1      10.415  13.360  17.496  0.00  0.00    +0.000 C 
ATOM     28  O   UNL     1       9.674  12.924  18.630  0.00  0.00    +0.000 OA
ENDBRANCH  21  28
ENDBRANCH  17  24
ENDBRANCH   1  19
TORSDOF 4
ENDMDL
MODEL 4
REMARK VINA RESULT:      -7.7      4.180      5.888
REMARK  Name = 
REMARK  5 active torsions:
REMARK  status: ('A' for Active; 'I' for Inactive)
REMARK    1  A    between atoms: C_1  and  O_2
REMARK    2  A    between atoms: O_2  and  C_3
REMARK    3  A    between atoms: C_6  and  C_7
REMARK    4  A    between atoms: N_9  and  C_10
REMARK    5  A    between atoms: C_15  and  C_16
REMARK                            x       y       z     vdW  Elec       q    Type
REMARK                         _______ _______ _______ _____ _____    ______ ____
ROOT
ATOM      1  C   UNL     1       6.222   6.154  16.562  0.00  0.00    +0.000 A 
ATOM      2  C   UNL     1       6.883   5.454  15.540  0.00  0.00    +0.000 A 
ATOM      3  C   UNL     1       6.459   4.178  15.159  0.00  0.00    +0.000 A 
ATOM      4  C   UNL     1       5.359   3.599  15.779  0.00  0.00    +0.000 A 
ATOM      5  C   UNL     1       4.678   4.299  16.773  0.00  0.00    +0.000 A 
ATOM      6  C   UNL     1       5.094   5.582  17.182  0.00  0.00    +0.000 A 
ENDROOT
BRANCH   6   7
ATOM      7  C   UNL     1       4.161   6.275  18.130  0.00  0.00    +0.000 C 
ATOM      8  O   UNL     1       4.116   5.835  19.273  0.00  0.00    +0.000 OA
ATOM      9  N   UNL     1       3.436   7.334  17.636  0.00  0.00    +0.000 N 
ATOM     10  C   UNL     1       2.483   8.066  18.363  0.00  0.00    +0.000 A 
ATOM     11  C   UNL     1       1.765   9.050  17.688  0.00  0.00    +0.000 A 
ATOM     12  C   UNL     1       0.827   9.806  18.393  0.00  0.00    +0.000 A 
ATOM     13  C   UNL     1       0.639   9.571  19.748  0.00  0.00    +0.000 A 
ATOM     14  C   UNL     1       1.387   8.571  20.338  0.00  0.00    +0.000 A 
ATOM     15  N   UNL     1       2.284   7.820  19.671  0.00  0.00    +0.000 NA
ATOM     16  H   UNL     1       3.630   7.641  16.702  0.00  0.00    +0.000 HD
ENDBRANCH   6   7
BRANCH   1  19
ATOM     17  C   UNL     1       7.724   7.564  17.823  0.00  0.00    +0.000 C 
ATOM     18  O   UNL     1       8.128   6.620  18.496  0.00  0.00    +0.000 OA
ATOM     19  N   UNL     1       6.719   7.448  16.867  0.00  0.00    +0.000 N 
ATOM     20  H   UNL     1       6.907   8.020  16.051  0.00  0.00    +0.000 HD
BRANCH  17  24
ATOM     21  C   UNL     1       9.060  11.509  18.882  0.00  0.00    +0.000 A 
ATOM     22  C   UNL     1       9.440  10.395  19.629  0.00  0.00    +0.000 A 
ATOM     23  C   UNL     1       9.042   9.115  19.240  0.00  0.00    +0.000 A 
ATOM     24  C   UNL     1       8.233   8.937  18.109  0.00  0.00    +0.000 A 
ATOM     25  C   UNL     1       7.834  10.059  17.372  0.00  0.00    +0.000 A 
ATOM     26  C   UNL     1       8.251  11.340  17.757  0.00  0.00    +0.000 A 
BRANCH  21  28
ATOM     27  C   UNL     1      10.133  12.667  20.638  0.00  0.00    +0.000 C 
ATOM     28  O   UNL     1       9.491  12.712  19.369  0.00  0.00    +0.000 OA
ENDBRANCH  21  28
ENDBRANCH  17  24
ENDBRANCH   1  19
TORSDOF 4
ENDMDL
MODEL 5
REMARK VINA RESULT:      -7.5      2.138      7.383
REMARK  Name = 
REMARK  5 active torsions:
REMARK  status: ('A' for Active; 'I' for Inactive)
REMARK    1  A    between atoms: C_1  and  O_2
REMARK    2  A    between atoms: O_2  and  C_3
REMARK    3  A    between atoms: C_6  and  C_7
REMARK    4  A    between atoms: N_9  and  C_10
REMARK    5  A    between atoms: C_15  and  C_16
REMARK                            x       y       z     vdW  Elec       q    Type
REMARK                         _______ _______ _______ _____ _____    ______ ____
ROOT
ATOM      1  C   UNL     1       2.489   4.163  18.192  0.00  0.00    +0.000 A 
ATOM      2  C   UNL     1       1.670   3.429  19.064  0.00  0.00    +0.000 A 
ATOM      3  C   UNL     1       1.869   2.059  19.249  0.00  0.00    +0.000 A 
ATOM      4  C   UNL     1       2.903   1.413  18.582  0.00  0.00    +0.000 A 
ATOM      5  C   UNL     1       3.741   2.138  17.738  0.00  0.00    +0.000 A 
ATOM      6  C   UNL     1       3.551   3.519  17.527  0.00  0.00    +0.000 A 
ENDROOT
BRANCH   6   7
ATOM      7  C   UNL     1       4.634   4.191  16.736  0.00  0.00    +0.000 C 
ATOM      8  O   UNL     1       5.181   5.153  17.263  0.00  0.00    +0.000 OA
ATOM      9  N   UNL     1       4.914   3.676  15.491  0.00  0.00    +0.000 N 
ATOM     10  C   UNL     1       5.858   4.204  14.595  0.00  0.00    +0.000 A 
ATOM     11  C   UNL     1       5.955   3.621  13.335  0.00  0.00    +0.000 A 
ATOM     12  C   UNL     1       6.899   4.114  12.432  0.00  0.00    +0.000 A 
ATOM     13  C   UNL     1       7.727   5.160  12.814  0.00  0.00    +0.000 A 
ATOM     14  C   UNL     1       7.560   5.686  14.081  0.00  0.00    +0.000 A 
ATOM     15  N   UNL     1       6.642   5.235  14.958  0.00  0.00    +0.000 NA
ATOM     16  H   UNL     1       4.445   2.833  15.216  0.00  0.00    +0.000 HD
ENDBRANCH   6   7
BRANCH   1  19
ATOM     17  C   UNL     1       2.439   6.360  19.194  0.00  0.00    +0.000 C 
ATOM     18  O   UNL     1       2.753   5.921  20.296  0.00  0.00    +0.000 OA
ATOM     19  N   UNL     1       2.216   5.551  18.083  0.00  0.00    +0.000 N 
ATOM     20  H   UNL     1       2.570   5.975  17.231  0.00  0.00    +0.000 HD
BRANCH  17  24
ATOM     21  C   UNL     1       1.360  10.498  18.763  0.00  0.00    +0.000 A 
ATOM     22  C   UNL     1       1.047   9.788  19.921  0.00  0.00    +0.000 A 
ATOM     23  C   UNL     1       1.451   8.460  20.067  0.00  0.00    +0.000 A 
ATOM     24  C   UNL     1       2.155   7.816  19.040  0.00  0.00    +0.000 A 
ATOM     25  C   UNL     1       2.450   8.524  17.868  0.00  0.00    +0.000 A 
ATOM     26  C   UNL     1       2.057   9.862  17.734  0.00  0.00    +0.000 A 
BRANCH  21  28
ATOM     27  C   UNL     1       1.861  12.776  18.399  0.00  0.00    +0.000 C 
ATOM     28  O   UNL     1       0.895  11.783  18.722  0.00  0.00    +0.000 OA
ENDBRANCH  21  28
ENDBRANCH  17  24
ENDBRANCH   1  19
TORSDOF 4
ENDMDL
MODEL 6
REMARK VINA RESULT:      -7.5      3.091      5.315
REMARK  Name = 
REMARK  5 active torsions:
REMARK  status: ('A' for Active; 'I' for Inactive)
REMARK    1  A    between atoms: C_1  and  O_2
REMARK    2  A    between atoms: O_2  and  C_3
REMARK    3  A    between atoms: C_6  and  C_7
REMARK    4  A    between atoms: N_9  and  C_10
REMARK    5  A    between atoms: C_15  and  C_16
REMARK                            x       y       z     vdW  Elec       q    Type
REMARK                         _______ _______ _______ _____ _____    ______ ____
ROOT
ATOM      1  C   UNL     1       1.147   9.028  20.678  0.00  0.00    +0.000 A 
ATOM      2  C   UNL     1       1.469   8.816  22.028  0.00  0.00    +0.000 A 
ATOM      3  C   UNL     1       0.723   9.419  23.043  0.00  0.00    +0.000 A 
ATOM      4  C   UNL     1      -0.367  10.218  22.722  0.00  0.00    +0.000 A 
ATOM      5  C   UNL     1      -0.714  10.409  21.386  0.00  0.00    +0.000 A 
ATOM      6  C   UNL     1       0.033   9.822  20.344  0.00  0.00    +0.000 A 
ENDROOT
BRANCH   6   7
ATOM      7  C   UNL     1      -0.565   9.974  18.977  0.00  0.00    +0.000 C 
ATOM      8  O   UNL     1       0.174   9.741  18.028  0.00  0.00    +0.000 OA
ATOM      9  N   UNL     1      -1.882  10.366  18.907  0.00  0.00    +0.000 N 
ATOM     10  C   UNL     1      -2.589  10.605  17.718  0.00  0.00    +0.000 A 
ATOM     11  C   UNL     1      -3.890  11.089  17.820  0.00  0.00    +0.000 A 
ATOM     12  C   UNL     1      -4.622  11.316  16.653  0.00  0.00    +0.000 A 
ATOM     13  C   UNL     1      -4.044  11.042  15.422  0.00  0.00    +0.000 A 
ATOM     14  C   UNL     1      -2.745  10.571  15.409  0.00  0.00    +0.000 A 
ATOM     15  N   UNL     1      -2.019  10.364  16.523  0.00  0.00    +0.000 NA
ATOM     16  H   UNL     1      -2.394  10.445  19.766  0.00  0.00    +0.000 HD
ENDBRANCH   6   7
BRANCH   1  19
ATOM     17  C   UNL     1       2.025   6.972  19.764  0.00  0.00    +0.000 C 
ATOM     18  O   UNL     1       1.513   6.298  20.653  0.00  0.00    +0.000 OA
ATOM     19  N   UNL     1       1.956   8.362  19.721  0.00  0.00    +0.000 N 
ATOM     20  H   UNL     1       1.840   8.704  18.773  0.00  0.00    +0.000 HD
BRANCH  17  24
ATOM     21  C   UNL     1       4.616   4.945  16.999  0.00  0.00    +0.000 A 
ATOM     22  C   UNL     1       3.836   4.233  17.909  0.00  0.00    +0.000 A 
ATOM     23  C   UNL     1       2.960   4.904  18.764  0.00  0.00    +0.000 A 
ATOM     24  C   UNL     1       2.873   6.303  18.735  0.00  0.00    +0.000 A 
ATOM     25  C   UNL     1       3.673   7.018  17.834  0.00  0.00    +0.000 A 
ATOM     26  C   UNL     1       4.538   6.338  16.966  0.00  0.00    +0.000 A 
BRANCH  21  28
ATOM     27  C   UNL     1       5.537   4.562  14.858  0.00  0.00    +0.000 C 
ATOM     28  O   UNL     1       5.452   4.185  16.228  0.00  0.00    +0.000 OA
ENDBRANCH  21  28
ENDBRANCH  17  24
ENDBRANCH   1  19
TORSDOF 4
ENDMDL
MODEL 7
REMARK VINA RESULT:      -7.5      3.749      7.472
REMARK  Name = 
REMARK  5 active torsions:
REMARK  status: ('A' for Active; 'I' for Inactive)
REMARK    1  A    between atoms: C_1  and  O_2
REMARK    2  A    between atoms: O_2  and  C_3
REMARK    3  A    between atoms: C_6  and  C_7
REMARK    4  A    between atoms: N_9  and  C_10
REMARK    5  A    between atoms: C_15  and  C_16
REMARK                            x       y       z     vdW  Elec       q    Type
REMARK                         _______ _______ _______ _____ _____    ______ ____
ROOT
ATOM      1  C   UNL     1       5.304   6.104  16.718  0.00  0.00    +0.000 A 
ATOM      2  C   UNL     1       4.705   5.025  16.047  0.00  0.00    +0.000 A 
ATOM      3  C   UNL     1       5.482   3.989  15.526  0.00  0.00    +0.000 A 
ATOM      4  C   UNL     1       6.862   4.006  15.690  0.00  0.00    +0.000 A 
ATOM      5  C   UNL     1       7.463   5.056  16.381  0.00  0.00    +0.000 A 
ATOM      6  C   UNL     1       6.700   6.119  16.905  0.00  0.00    +0.000 A 
ENDROOT
BRANCH   6   7
ATOM      7  C   UNL     1       7.464   7.076  17.771  0.00  0.00    +0.000 C 
ATOM      8  O   UNL     1       7.903   6.631  18.825  0.00  0.00    +0.000 OA
ATOM      9  N   UNL     1       7.600   8.367  17.313  0.00  0.00    +0.000 N 
ATOM     10  C   UNL     1       8.239   9.405  18.010  0.00  0.00    +0.000 A 
ATOM     11  C   UNL     1       8.209  10.679  17.450  0.00  0.00    +0.000 A 
ATOM     12  C   UNL     1       8.853  11.725  18.112  0.00  0.00    +0.000 A 
ATOM     13  C   UNL     1       9.520  11.471  19.302  0.00  0.00    +0.000 A 
ATOM     14  C   UNL     1       9.494  10.180  19.793  0.00  0.00    +0.000 A 
ATOM     15  N   UNL     1       8.862   9.163  19.177  0.00  0.00    +0.000 NA
ATOM     16  H   UNL     1       7.260   8.576  16.393  0.00  0.00    +0.000 HD
ENDBRANCH   6   7
BRANCH   1  19
ATOM     17  C   UNL     1       3.442   6.719  18.128  0.00  0.00    +0.000 C 
ATOM     18  O   UNL     1       3.215   5.550  18.427  0.00  0.00    +0.000 OA
ATOM     19  N   UNL     1       4.429   7.100  17.224  0.00  0.00    +0.000 N 
ATOM     20  H   UNL     1       4.899   7.951  17.516  0.00  0.00    +0.000 HD
BRANCH  17  24
ATOM     21  C   UNL     1       0.680   9.629  19.668  0.00  0.00    +0.000 A 
ATOM     22  C   UNL     1       1.131   8.575  20.460  0.00  0.00    +0.000 A 
ATOM     23  C   UNL     1       2.069   7.669  19.962  0.00  0.00    +0.000 A 
ATOM     24  C   UNL     1       2.549   7.794  18.651  0.00  0.00    +0.000 A 
ATOM     25  C   UNL     1       2.079   8.842  17.849  0.00  0.00    +0.000 A 
ATOM     26  C   UNL     1       1.151   9.758  18.360  0.00  0.00    +0.000 A 
BRANCH  21  28
ATOM     27  C   UNL     1      -0.337  10.357  21.671  0.00  0.00    +0.000 C 
ATOM     28  O   UNL     1      -0.252  10.440  20.253  0.00  0.00    +0.000 OA
ENDBRANCH  21  28
ENDBRANCH  17  24
ENDBRANCH   1  19
TORSDOF 4
ENDMDL
MODEL 8
REMARK VINA RESULT:      -7.5      3.729      7.345
REMARK  Name = 
REMARK  5 active torsions:
REMARK  status: ('A' for Active; 'I' for Inactive)
REMARK    1  A    between atoms: C_1  and  O_2
REMARK    2  A    between atoms: O_2  and  C_3
REMARK    3  A    between atoms: C_6  and  C_7
REMARK    4  A    between atoms: N_9  and  C_10
REMARK    5  A    between atoms: C_15  and  C_16
REMARK                            x       y       z     vdW  Elec       q    Type
REMARK                         _______ _______ _______ _____ _____    ______ ____
ROOT
ATOM      1  C   UNL     1       5.313   6.034  16.593  0.00  0.00    +0.000 A 
ATOM      2  C   UNL     1       4.757   4.955  15.888  0.00  0.00    +0.000 A 
ATOM      3  C   UNL     1       5.573   3.957  15.350  0.00  0.00    +0.000 A 
ATOM      4  C   UNL     1       6.950   4.014  15.530  0.00  0.00    +0.000 A 
ATOM      5  C   UNL     1       7.508   5.065  16.255  0.00  0.00    +0.000 A 
ATOM      6  C   UNL     1       6.706   6.090  16.796  0.00  0.00    +0.000 A 
ENDROOT
BRANCH   6   7
ATOM      7  C   UNL     1       7.429   7.049  17.694  0.00  0.00    +0.000 C 
ATOM      8  O   UNL     1       7.798   6.612  18.778  0.00  0.00    +0.000 OA
ATOM      9  N   UNL     1       7.610   8.331  17.229  0.00  0.00    +0.000 N 
ATOM     10  C   UNL     1       8.219   9.370  17.950  0.00  0.00    +0.000 A 
ATOM     11  C   UNL     1       8.240  10.637  17.373  0.00  0.00    +0.000 A 
ATOM     12  C   UNL     1       8.857  11.683  18.060  0.00  0.00    +0.000 A 
ATOM     13  C   UNL     1       9.448  11.437  19.292  0.00  0.00    +0.000 A 
ATOM     14  C   UNL     1       9.375  10.153  19.796  0.00  0.00    +0.000 A 
ATOM     15  N   UNL     1       8.768   9.136  19.156  0.00  0.00    +0.000 NA
ATOM     16  H   UNL     1       7.329   8.532  16.288  0.00  0.00    +0.000 HD
ENDBRANCH   6   7
BRANCH   1  19
ATOM     17  C   UNL     1       3.496   6.579  18.088  0.00  0.00    +0.000 C 
ATOM     18  O   UNL     1       3.370   5.411  18.443  0.00  0.00    +0.000 OA
ATOM     19  N   UNL     1       4.401   6.989  17.113  0.00  0.00    +0.000 N 
ATOM     20  H   UNL     1       4.826   7.881  17.344  0.00  0.00    +0.000 HD
BRANCH  17  24
ATOM     21  C   UNL     1       1.002   9.734  19.602  0.00  0.00    +0.000 A 
ATOM     22  C   UNL     1       1.492   9.766  18.297  0.00  0.00    +0.000 A 
ATOM     23  C   UNL     1       2.257   8.708  17.804  0.00  0.00    +0.000 A 
ATOM     24  C   UNL     1       2.562   7.612  18.623  0.00  0.00    +0.000 A 
ATOM     25  C   UNL     1       2.087   7.591  19.940  0.00  0.00    +0.000 A 
ATOM     26  C   UNL     1       1.305   8.648  20.424  0.00  0.00    +0.000 A 
BRANCH  21  28
ATOM     27  C   UNL     1      -0.449  11.478  18.947  0.00  0.00    +0.000 C 
ATOM     28  O   UNL     1       0.284  10.834  19.983  0.00  0.00    +0.000 OA
ENDBRANCH  21  28
ENDBRANCH  17  24
ENDBRANCH   1  19
TORSDOF 4
ENDMDL
MODEL 9
REMARK VINA RESULT:      -7.4      1.720      6.969
REMARK  Name = 
REMARK  5 active torsions:
REMARK  status: ('A' for Active; 'I' for Inactive)
REMARK    1  A    between atoms: C_1  and  O_2
REMARK    2  A    between atoms: O_2  and  C_3
REMARK    3  A    between atoms: C_6  and  C_7
REMARK    4  A    between atoms: N_9  and  C_10
REMARK    5  A    between atoms: C_15  and  C_16
REMARK                            x       y       z     vdW  Elec       q    Type
REMARK                         _______ _______ _______ _____ _____    ______ ____
ROOT
ATOM      1  C   UNL     1       2.957   4.629  20.460  0.00  0.00    +0.000 A 
ATOM      2  C   UNL     1       2.222   4.029  21.495  0.00  0.00    +0.000 A 
ATOM      3  C   UNL     1       2.334   2.661  21.751  0.00  0.00    +0.000 A 
ATOM      4  C   UNL     1       3.199   1.882  20.992  0.00  0.00    +0.000 A 
ATOM      5  C   UNL     1       3.956   2.473  19.983  0.00  0.00    +0.000 A 
ATOM      6  C   UNL     1       3.850   3.850  19.699  0.00  0.00    +0.000 A 
ENDROOT
BRANCH   6   7
ATOM      7  C   UNL     1       4.852   4.368  18.710  0.00  0.00    +0.000 C 
ATOM      8  O   UNL     1       5.612   5.244  19.109  0.00  0.00    +0.000 OA
ATOM      9  N   UNL     1       4.828   3.825  17.447  0.00  0.00    +0.000 N 
ATOM     10  C   UNL     1       5.656   4.220  16.384  0.00  0.00    +0.000 A 
ATOM     11  C   UNL     1       5.441   3.635  15.139  0.00  0.00    +0.000 A 
ATOM     12  C   UNL     1       6.264   3.996  14.071  0.00  0.00    +0.000 A 
ATOM     13  C   UNL     1       7.282   4.916  14.274  0.00  0.00    +0.000 A 
ATOM     14  C   UNL     1       7.422   5.455  15.538  0.00  0.00    +0.000 A 
ATOM     15  N   UNL     1       6.626   5.132  16.576  0.00  0.00    +0.000 NA
ATOM     16  H   UNL     1       4.206   3.056  17.279  0.00  0.00    +0.000 HD
ENDBRANCH   6   7
BRANCH   1  19
ATOM     17  C   UNL     1       2.157   6.480  19.131  0.00  0.00    +0.000 C 
ATOM     18  O   UNL     1       1.843   5.743  18.201  0.00  0.00    +0.000 OA
ATOM     19  N   UNL     1       2.785   6.027  20.288  0.00  0.00    +0.000 N 
ATOM     20  H   UNL     1       2.443   6.505  21.114  0.00  0.00    +0.000 HD
BRANCH  17  24
ATOM     21  C   UNL     1       1.381  10.689  18.739  0.00  0.00    +0.000 A 
ATOM     22  C   UNL     1       1.039   9.998  19.900  0.00  0.00    +0.000 A 
ATOM     23  C   UNL     1       1.346   8.643  20.033  0.00  0.00    +0.000 A 
ATOM     24  C   UNL     1       1.980   7.954  18.989  0.00  0.00    +0.000 A 
ATOM     25  C   UNL     1       2.304   8.645  17.814  0.00  0.00    +0.000 A 
ATOM     26  C   UNL     1       2.009  10.009  17.694  0.00  0.00    +0.000 A 
BRANCH  21  28
ATOM     27  C   UNL     1       2.082  12.944  18.731  0.00  0.00    +0.000 C 
ATOM     28  O   UNL     1       1.012  12.005  18.713  0.00  0.00    +0.000 OA
ENDBRANCH  21  28
ENDBRANCH  17  24
ENDBRANCH   1  19
TORSDOF 4
ENDMDL
