MODEL 1
REMARK VINA RESULT:      -7.0      0.000      0.000
REMARK  Name = 
REMARK  7 active torsions:
REMARK  status: ('A' for Active; 'I' for Inactive)
REMARK    1  A    between atoms: C_2  and  C_3
REMARK    2  A    between atoms: C_3  and  C_4
REMARK    3  A    between atoms: C_4  and  C_5
REMARK    4  A    between atoms: C_5  and  C_6
REMARK    5  A    between atoms: N_7  and  N_8
REMARK    6  A    between atoms: C_9  and  C_11
REMARK    7  A    between atoms: C_14  and  O_15
REMARK                            x       y       z     vdW  Elec       q    Type
REMARK                         _______ _______ _______ _____ _____    ______ ____
ROOT
ATOM      1  N   UNL     1       6.539   5.284  15.954  0.00  0.00    +0.000 N 
ATOM      2  C   UNL     1       5.477   6.150  16.171  0.00  0.00    +0.000 C 
ATOM      3  O   UNL     1       5.136   7.058  15.417  0.00  0.00    +0.000 OA
ATOM      4  H   UNL     1       6.646   4.460  16.529  0.00  0.00    +0.000 HD
ENDROOT
BRANCH   2   5
ATOM      5  C   UNL     1       4.696   5.913  17.418  0.00  0.00    +0.000 A 
ATOM      6  C   UNL     1       3.608   6.720  17.784  0.00  0.00    +0.000 A 
ATOM      7  C   UNL     1       2.891   6.446  18.954  0.00  0.00    +0.000 A 
ATOM      8  C   UNL     1       3.259   5.363  19.746  0.00  0.00    +0.000 A 
ATOM      9  C   UNL     1       4.326   4.546  19.389  0.00  0.00    +0.000 A 
ATOM     10  C   UNL     1       5.043   4.818  18.221  0.00  0.00    +0.000 A 
BRANCH   8  11
ATOM     11  O   UNL     1       2.585   5.057  20.890  0.00  0.00    +0.000 OA
ATOM     12  H   UNL     1       2.503   5.860  21.433  0.00  0.00    +0.000 HD
ENDBRANCH   8  11
ENDBRANCH   2   5
BRANCH   1  15
ATOM     13  C   UNL     1       7.027   4.819  13.742  0.00  0.00    +0.000 C 
ATOM     14  C   UNL     1       7.912   5.171  12.564  0.00  0.00    +0.000 C 
ATOM     15  N   UNL     1       7.313   5.442  14.847  0.00  0.00    +0.000 NA
BRANCH  13  16
ATOM     16  C   UNL     1       5.847   3.871  13.550  0.00  0.00    +0.000 C 
BRANCH  16  17
ATOM     17  C   UNL     1       5.735   3.262  12.154  0.00  0.00    +0.000 C 
BRANCH  17  19
ATOM     18  C   UNL     1       3.803   3.652  10.599  0.00  0.00    +0.000 C 
ATOM     19  C   UNL     1       4.301   3.125  11.724  0.00  0.00    +0.000 C 
ENDBRANCH  17  19
ENDBRANCH  16  17
ENDBRANCH  13  16
ENDBRANCH   1  15
TORSDOF 6
ENDMDL
MODEL 2
REMARK VINA RESULT:      -6.9      2.777      4.550
REMARK  Name = 
REMARK  7 active torsions:
REMARK  status: ('A' for Active; 'I' for Inactive)
REMARK    1  A    between atoms: C_2  and  C_3
REMARK    2  A    between atoms: C_3  and  C_4
REMARK    3  A    between atoms: C_4  and  C_5
REMARK    4  A    between atoms: C_5  and  C_6
REMARK    5  A    between atoms: N_7  and  N_8
REMARK    6  A    between atoms: C_9  and  C_11
REMARK    7  A    between atoms: C_14  and  O_15
REMARK                            x       y       z     vdW  Elec       q    Type
REMARK                         _______ _______ _______ _____ _____    ______ ____
ROOT
ATOM      1  N   UNL     1       4.704   3.513  17.199  0.00  0.00    +0.000 N 
ATOM      2  C   UNL     1       3.756   4.334  17.792  0.00  0.00    +0.000 C 
ATOM      3  O   UNL     1       3.402   5.432  17.368  0.00  0.00    +0.000 OA
ATOM      4  H   UNL     1       4.811   2.558  17.509  0.00  0.00    +0.000 HD
ENDROOT
BRANCH   2   5
ATOM      5  C   UNL     1       3.121   3.797  19.029  0.00  0.00    +0.000 A 
ATOM      6  C   UNL     1       3.793   2.917  19.892  0.00  0.00    +0.000 A 
ATOM      7  C   UNL     1       3.163   2.455  21.053  0.00  0.00    +0.000 A 
ATOM      8  C   UNL     1       1.871   2.880  21.350  0.00  0.00    +0.000 A 
ATOM      9  C   UNL     1       1.199   3.762  20.510  0.00  0.00    +0.000 A 
ATOM     10  C   UNL     1       1.826   4.225  19.351  0.00  0.00    +0.000 A 
BRANCH   8  11
ATOM     11  O   UNL     1       1.224   2.458  22.472  0.00  0.00    +0.000 OA
ATOM     12  H   UNL     1       0.326   2.830  22.478  0.00  0.00    +0.000 HD
ENDBRANCH   8  11
ENDBRANCH   2   5
BRANCH   1  15
ATOM     13  C   UNL     1       6.537   4.443  16.140  0.00  0.00    +0.000 C 
ATOM     14  C   UNL     1       7.164   4.772  14.801  0.00  0.00    +0.000 C 
ATOM     15  N   UNL     1       5.342   3.935  16.075  0.00  0.00    +0.000 NA
BRANCH  13  16
ATOM     16  C   UNL     1       7.342   4.629  17.422  0.00  0.00    +0.000 C 
BRANCH  16  17
ATOM     17  C   UNL     1       7.069   5.935  18.166  0.00  0.00    +0.000 C 
BRANCH  17  19
ATOM     18  C   UNL     1       7.989   8.249  17.853  0.00  0.00    +0.000 C 
ATOM     19  C   UNL     1       7.458   7.131  17.344  0.00  0.00    +0.000 C 
ENDBRANCH  17  19
ENDBRANCH  16  17
ENDBRANCH  13  16
ENDBRANCH   1  15
TORSDOF 6
ENDMDL
MODEL 3
REMARK VINA RESULT:      -6.9      2.671      4.254
REMARK  Name = 
REMARK  7 active torsions:
REMARK  status: ('A' for Active; 'I' for Inactive)
REMARK    1  A    between atoms: C_2  and  C_3
REMARK    2  A    between atoms: C_3  and  C_4
REMARK    3  A    between atoms: C_4  and  C_5
REMARK    4  A    between atoms: C_5  and  C_6
REMARK    5  A    between atoms: N_7  and  N_8
REMARK    6  A    between atoms: C_9  and  C_11
REMARK    7  A    between atoms: C_14  and  O_15
REMARK                            x       y       z     vdW  Elec       q    Type
REMARK                         _______ _______ _______ _____ _____    ______ ____
ROOT
ATOM      1  N   UNL     1       4.658   3.921  17.157  0.00  0.00    +0.000 N 
ATOM      2  C   UNL     1       3.806   4.794  17.819  0.00  0.00    +0.000 C 
ATOM      3  O   UNL     1       3.562   5.947  17.472  0.00  0.00    +0.000 OA
ATOM      4  H   UNL     1       4.670   2.941  17.405  0.00  0.00    +0.000 HD
ENDROOT
BRANCH   2   5
ATOM      5  C   UNL     1       3.133   4.245  19.030  0.00  0.00    +0.000 A 
ATOM      6  C   UNL     1       1.895   4.730  19.482  0.00  0.00    +0.000 A 
ATOM      7  C   UNL     1       1.291   4.168  20.613  0.00  0.00    +0.000 A 
ATOM      8  C   UNL     1       1.922   3.122  21.279  0.00  0.00    +0.000 A 
ATOM      9  C   UNL     1       3.141   2.623  20.834  0.00  0.00    +0.000 A 
ATOM     10  C   UNL     1       3.745   3.182  19.706  0.00  0.00    +0.000 A 
BRANCH   8  11
ATOM     11  O   UNL     1       1.366   2.544  22.381  0.00  0.00    +0.000 OA
ATOM     12  H   UNL     1       0.397   2.578  22.301  0.00  0.00    +0.000 HD
ENDBRANCH   8  11
ENDBRANCH   2   5
BRANCH   1  15
ATOM     13  C   UNL     1       6.593   4.623  16.104  0.00  0.00    +0.000 C 
ATOM     14  C   UNL     1       7.223   4.985  14.776  0.00  0.00    +0.000 C 
ATOM     15  N   UNL     1       5.323   4.348  16.052  0.00  0.00    +0.000 NA
BRANCH  13  16
ATOM     16  C   UNL     1       7.462   4.513  17.353  0.00  0.00    +0.000 C 
BRANCH  16  17
ATOM     17  C   UNL     1       7.461   5.754  18.245  0.00  0.00    +0.000 C 
BRANCH  17  19
ATOM     18  C   UNL     1       7.855   8.161  17.653  0.00  0.00    +0.000 C 
ATOM     19  C   UNL     1       7.210   7.005  17.452  0.00  0.00    +0.000 C 
ENDBRANCH  17  19
ENDBRANCH  16  17
ENDBRANCH  13  16
ENDBRANCH   1  15
TORSDOF 6
ENDMDL
MODEL 4
REMARK VINA RESULT:      -6.8      2.809      6.502
REMARK  Name = 
REMARK  7 active torsions:
REMARK  status: ('A' for Active; 'I' for Inactive)
REMARK    1  A    between atoms: C_2  and  C_3
REMARK    2  A    between atoms: C_3  and  C_4
REMARK    3  A    between atoms: C_4  and  C_5
REMARK    4  A    between atoms: C_5  and  C_6
REMARK    5  A    between atoms: N_7  and  N_8
REMARK    6  A    between atoms: C_9  and  C_11
REMARK    7  A    between atoms: C_14  and  O_15
REMARK                            x       y       z     vdW  Elec       q    Type
REMARK                         _______ _______ _______ _____ _____    ______ ____
ROOT
ATOM      1  N   UNL     1       4.267   3.046  18.634  0.00  0.00    +0.000 N 
ATOM      2  C   UNL     1       5.293   3.977  18.550  0.00  0.00    +0.000 C 
ATOM      3  O   UNL     1       5.817   4.544  19.506  0.00  0.00    +0.000 OA
ATOM      4  H   UNL     1       4.013   2.499  17.823  0.00  0.00    +0.000 HD
ENDROOT
BRANCH   2   5
ATOM      5  C   UNL     1       5.790   4.268  17.175  0.00  0.00    +0.000 A 
ATOM      6  C   UNL     1       4.961   4.174  16.046  0.00  0.00    +0.000 A 
ATOM      7  C   UNL     1       5.467   4.477  14.777  0.00  0.00    +0.000 A 
ATOM      8  C   UNL     1       6.792   4.880  14.644  0.00  0.00    +0.000 A 
ATOM      9  C   UNL     1       7.620   4.990  15.755  0.00  0.00    +0.000 A 
ATOM     10  C   UNL     1       7.118   4.688  17.023  0.00  0.00    +0.000 A 
BRANCH   8  11
ATOM     11  O   UNL     1       7.323   5.189  13.427  0.00  0.00    +0.000 OA
ATOM     12  H   UNL     1       8.061   4.585  13.242  0.00  0.00    +0.000 HD
ENDBRANCH   8  11
ENDBRANCH   2   5
BRANCH   1  15
ATOM     13  C   UNL     1       2.639   3.280  20.258  0.00  0.00    +0.000 C 
ATOM     14  C   UNL     1       2.124   2.761  21.585  0.00  0.00    +0.000 C 
ATOM     15  N   UNL     1       3.747   2.735  19.850  0.00  0.00    +0.000 NA
BRANCH  13  16
ATOM     16  C   UNL     1       1.819   4.295  19.468  0.00  0.00    +0.000 C 
BRANCH  16  17
ATOM     17  C   UNL     1       2.286   5.743  19.606  0.00  0.00    +0.000 C 
BRANCH  17  19
ATOM     18  C   UNL     1       3.475   7.119  17.876  0.00  0.00    +0.000 C 
ATOM     19  C   UNL     1       2.407   6.414  18.267  0.00  0.00    +0.000 C 
ENDBRANCH  17  19
ENDBRANCH  16  17
ENDBRANCH  13  16
ENDBRANCH   1  15
TORSDOF 6
ENDMDL
MODEL 5
REMARK VINA RESULT:      -6.8      1.664      1.909
REMARK  Name = 
REMARK  7 active torsions:
REMARK  status: ('A' for Active; 'I' for Inactive)
REMARK    1  A    between atoms: C_2  and  C_3
REMARK    2  A    between atoms: C_3  and  C_4
REMARK    3  A    between atoms: C_4  and  C_5
REMARK    4  A    between atoms: C_5  and  C_6
REMARK    5  A    between atoms: N_7  and  N_8
REMARK    6  A    between atoms: C_9  and  C_11
REMARK    7  A    between atoms: C_14  and  O_15
REMARK                            x       y       z     vdW  Elec       q    Type
REMARK                         _______ _______ _______ _____ _____    ______ ____
ROOT
ATOM      1  N   UNL     1       5.142   5.239  16.019  0.00  0.00    +0.000 N 
ATOM      2  C   UNL     1       5.262   4.708  17.296  0.00  0.00    +0.000 C 
ATOM      3  O   UNL     1       6.322   4.453  17.862  0.00  0.00    +0.000 OA
ATOM      4  H   UNL     1       4.249   5.581  15.695  0.00  0.00    +0.000 HD
ENDROOT
BRANCH   2   5
ATOM      5  C   UNL     1       3.980   4.465  18.016  0.00  0.00    +0.000 A 
ATOM      6  C   UNL     1       2.918   3.755  17.433  0.00  0.00    +0.000 A 
ATOM      7  C   UNL     1       1.740   3.533  18.155  0.00  0.00    +0.000 A 
ATOM      8  C   UNL     1       1.633   4.014  19.457  0.00  0.00    +0.000 A 
ATOM      9  C   UNL     1       2.681   4.707  20.051  0.00  0.00    +0.000 A 
ATOM     10  C   UNL     1       3.858   4.929  19.332  0.00  0.00    +0.000 A 
BRANCH   8  11
ATOM     11  O   UNL     1       0.506   3.816  20.197  0.00  0.00    +0.000 OA
ATOM     12  H   UNL     1       0.437   2.873  20.422  0.00  0.00    +0.000 HD
ENDBRANCH   8  11
ENDBRANCH   2   5
BRANCH   1  15
ATOM     13  C   UNL     1       6.508   4.799  14.205  0.00  0.00    +0.000 C 
ATOM     14  C   UNL     1       7.736   5.242  13.439  0.00  0.00    +0.000 C 
ATOM     15  N   UNL     1       6.264   5.476  15.288  0.00  0.00    +0.000 NA
BRANCH  13  16
ATOM     16  C   UNL     1       5.616   3.698  13.642  0.00  0.00    +0.000 C 
BRANCH  16  17
ATOM     17  C   UNL     1       5.823   3.401  12.158  0.00  0.00    +0.000 C 
BRANCH  17  19
ATOM     18  C   UNL     1       3.769   3.577  10.726  0.00  0.00    +0.000 C 
ATOM     19  C   UNL     1       4.574   2.861  11.521  0.00  0.00    +0.000 C 
ENDBRANCH  17  19
ENDBRANCH  16  17
ENDBRANCH  13  16
ENDBRANCH   1  15
TORSDOF 6
ENDMDL
MODEL 6
REMARK VINA RESULT:      -6.7      0.587      1.275
REMARK  Name = 
REMARK  7 active torsions:
REMARK  status: ('A' for Active; 'I' for Inactive)
REMARK    1  A    between atoms: C_2  and  C_3
REMARK    2  A    between atoms: C_3  and  C_4
REMARK    3  A    between atoms: C_4  and  C_5
REMARK    4  A    between atoms: C_5  and  C_6
REMARK    5  A    between atoms: N_7  and  N_8
REMARK    6  A    between atoms: C_9  and  C_11
REMARK    7  A    between atoms: C_14  and  O_15
REMARK                            x       y       z     vdW  Elec       q    Type
REMARK                         _______ _______ _______ _____ _____    ______ ____
ROOT
ATOM      1  N   UNL     1       6.283   5.355  16.021  0.00  0.00    +0.000 N 
ATOM      2  C   UNL     1       5.190   6.207  16.102  0.00  0.00    +0.000 C 
ATOM      3  O   UNL     1       4.921   7.093  15.294  0.00  0.00    +0.000 OA
ATOM      4  H   UNL     1       6.338   4.545  16.623  0.00  0.00    +0.000 HD
ENDROOT
BRANCH   2   5
ATOM      5  C   UNL     1       4.281   5.981  17.260  0.00  0.00    +0.000 A 
ATOM      6  C   UNL     1       4.190   4.739  17.908  0.00  0.00    +0.000 A 
ATOM      7  C   UNL     1       3.336   4.581  19.006  0.00  0.00    +0.000 A 
ATOM      8  C   UNL     1       2.586   5.664  19.455  0.00  0.00    +0.000 A 
ATOM      9  C   UNL     1       2.678   6.903  18.831  0.00  0.00    +0.000 A 
ATOM     10  C   UNL     1       3.529   7.064  17.736  0.00  0.00    +0.000 A 
BRANCH   8  11
ATOM     11  O   UNL     1       1.747   5.554  20.523  0.00  0.00    +0.000 OA
ATOM     12  H   UNL     1       2.261   5.278  21.301  0.00  0.00    +0.000 HD
ENDBRANCH   8  11
ENDBRANCH   2   5
BRANCH   1  15
ATOM     13  C   UNL     1       7.068   4.788  13.921  0.00  0.00    +0.000 C 
ATOM     14  C   UNL     1       8.061   5.133  12.831  0.00  0.00    +0.000 C 
ATOM     15  N   UNL     1       7.171   5.503  15.003  0.00  0.00    +0.000 NA
BRANCH  13  16
ATOM     16  C   UNL     1       5.994   3.735  13.667  0.00  0.00    +0.000 C 
BRANCH  16  17
ATOM     17  C   UNL     1       5.845   3.311  12.207  0.00  0.00    +0.000 C 
BRANCH  17  19
ATOM     18  C   UNL     1       3.690   2.928  10.978  0.00  0.00    +0.000 C 
ATOM     19  C   UNL     1       4.522   3.742  11.638  0.00  0.00    +0.000 C 
ENDBRANCH  17  19
ENDBRANCH  16  17
ENDBRANCH  13  16
ENDBRANCH   1  15
TORSDOF 6
ENDMDL
MODEL 7
REMARK VINA RESULT:      -6.6      2.930      4.850
REMARK  Name = 
REMARK  7 active torsions:
REMARK  status: ('A' for Active; 'I' for Inactive)
REMARK    1  A    between atoms: C_2  and  C_3
REMARK    2  A    between atoms: C_3  and  C_4
REMARK    3  A    between atoms: C_4  and  C_5
REMARK    4  A    between atoms: C_5  and  C_6
REMARK    5  A    between atoms: N_7  and  N_8
REMARK    6  A    between atoms: C_9  and  C_11
REMARK    7  A    between atoms: C_14  and  O_15
REMARK                            x       y       z     vdW  Elec       q    Type
REMARK                         _______ _______ _______ _____ _____    ______ ____
ROOT
ATOM      1  N   UNL     1       4.689   3.533  17.531  0.00  0.00    +0.000 N 
ATOM      2  C   UNL     1       3.316   3.339  17.580  0.00  0.00    +0.000 C 
ATOM      3  O   UNL     1       2.565   3.329  16.607  0.00  0.00    +0.000 OA
ATOM      4  H   UNL     1       5.255   3.353  18.349  0.00  0.00    +0.000 HD
ENDROOT
BRANCH   2   5
ATOM      5  C   UNL     1       2.746   3.102  18.936  0.00  0.00    +0.000 A 
ATOM      6  C   UNL     1       3.546   2.734  20.029  0.00  0.00    +0.000 A 
ATOM      7  C   UNL     1       2.969   2.542  21.290  0.00  0.00    +0.000 A 
ATOM      8  C   UNL     1       1.600   2.727  21.453  0.00  0.00    +0.000 A 
ATOM      9  C   UNL     1       0.797   3.105  20.382  0.00  0.00    +0.000 A 
ATOM     10  C   UNL     1       1.371   3.297  19.124  0.00  0.00    +0.000 A 
BRANCH   8  11
ATOM     11  O   UNL     1       0.998   2.556  22.664  0.00  0.00    +0.000 OA
ATOM     12  H   UNL     1       0.413   1.781  22.619  0.00  0.00    +0.000 HD
ENDBRANCH   8  11
ENDBRANCH   2   5
BRANCH   1  15
ATOM     13  C   UNL     1       5.803   4.934  16.067  0.00  0.00    +0.000 C 
ATOM     14  C   UNL     1       6.527   5.022  14.740  0.00  0.00    +0.000 C 
ATOM     15  N   UNL     1       5.287   3.771  16.333  0.00  0.00    +0.000 NA
BRANCH  13  16
ATOM     16  C   UNL     1       5.803   6.130  17.014  0.00  0.00    +0.000 C 
BRANCH  16  17
ATOM     17  C   UNL     1       7.171   6.771  17.238  0.00  0.00    +0.000 C 
BRANCH  17  19
ATOM     18  C   UNL     1       7.154   5.559  19.437  0.00  0.00    +0.000 C 
ATOM     19  C   UNL     1       7.771   6.351  18.551  0.00  0.00    +0.000 C 
ENDBRANCH  17  19
ENDBRANCH  16  17
ENDBRANCH  13  16
ENDBRANCH   1  15
TORSDOF 6
ENDMDL
MODEL 8
REMARK VINA RESULT:      -6.6      2.842      4.611
REMARK  Name = 
REMARK  7 active torsions:
REMARK  status: ('A' for Active; 'I' for Inactive)
REMARK    1  A    between atoms: C_2  and  C_3
REMARK    2  A    between atoms: C_3  and  C_4
REMARK    3  A    between atoms: C_4  and  C_5
REMARK    4  A    between atoms: C_5  and  C_6
REMARK    5  A    between atoms: N_7  and  N_8
REMARK    6  A    between atoms: C_9  and  C_11
REMARK    7  A    between atoms: C_14  and  O_15
REMARK                            x       y       z     vdW  Elec       q    Type
REMARK                         _______ _______ _______ _____ _____    ______ ____
ROOT
ATOM      1  N   UNL     1       4.754   3.413  17.350  0.00  0.00    +0.000 N 
ATOM      2  C   UNL     1       3.367   3.406  17.396  0.00  0.00    +0.000 C 
ATOM      3  O   UNL     1       2.624   3.541  16.427  0.00  0.00    +0.000 OA
ATOM      4  H   UNL     1       5.289   3.124  18.156  0.00  0.00    +0.000 HD
ENDROOT
BRANCH   2   5
ATOM      5  C   UNL     1       2.768   3.191  18.744  0.00  0.00    +0.000 A 
ATOM      6  C   UNL     1       1.384   3.258  18.966  0.00  0.00    +0.000 A 
ATOM      7  C   UNL     1       0.865   3.028  20.246  0.00  0.00    +0.000 A 
ATOM      8  C   UNL     1       1.731   2.724  21.292  0.00  0.00    +0.000 A 
ATOM      9  C   UNL     1       3.103   2.640  21.083  0.00  0.00    +0.000 A 
ATOM     10  C   UNL     1       3.622   2.870  19.807  0.00  0.00    +0.000 A 
BRANCH   8  11
ATOM     11  O   UNL     1       1.267   2.488  22.552  0.00  0.00    +0.000 OA
ATOM     12  H   UNL     1       1.479   3.252  23.115  0.00  0.00    +0.000 HD
ENDBRANCH   8  11
ENDBRANCH   2   5
BRANCH   1  15
ATOM     13  C   UNL     1       5.914   4.771  15.881  0.00  0.00    +0.000 C 
ATOM     14  C   UNL     1       6.667   4.823  14.568  0.00  0.00    +0.000 C 
ATOM     15  N   UNL     1       5.380   3.619  16.161  0.00  0.00    +0.000 NA
BRANCH  13  16
ATOM     16  C   UNL     1       5.905   5.988  16.801  0.00  0.00    +0.000 C 
BRANCH  16  17
ATOM     17  C   UNL     1       7.286   6.536  17.153  0.00  0.00    +0.000 C 
BRANCH  17  19
ATOM     18  C   UNL     1       6.900   5.501  19.407  0.00  0.00    +0.000 C 
ATOM     19  C   UNL     1       7.659   6.224  18.575  0.00  0.00    +0.000 C 
ENDBRANCH  17  19
ENDBRANCH  16  17
ENDBRANCH  13  16
ENDBRANCH   1  15
TORSDOF 6
ENDMDL
MODEL 9
REMARK VINA RESULT:      -6.6      1.463      1.903
REMARK  Name = 
REMARK  7 active torsions:
REMARK  status: ('A' for Active; 'I' for Inactive)
REMARK    1  A    between atoms: C_2  and  C_3
REMARK    2  A    between atoms: C_3  and  C_4
REMARK    3  A    between atoms: C_4  and  C_5
REMARK    4  A    between atoms: C_5  and  C_6
REMARK    5  A    between atoms: N_7  and  N_8
REMARK    6  A    between atoms: C_9  and  C_11
REMARK    7  A    between atoms: C_14  and  O_15
REMARK                            x       y       z     vdW  Elec       q    Type
REMARK                         _______ _______ _______ _____ _____    ______ ____
ROOT
ATOM      1  N   UNL     1       5.451   5.232  15.879  0.00  0.00    +0.000 N 
ATOM      2  C   UNL     1       5.675   4.787  17.175  0.00  0.00    +0.000 C 
ATOM      3  O   UNL     1       6.779   4.648  17.697  0.00  0.00    +0.000 OA
ATOM      4  H   UNL     1       4.519   5.485  15.585  0.00  0.00    +0.000 HD
ENDROOT
BRANCH   2   5
ATOM      5  C   UNL     1       4.453   4.489  17.974  0.00  0.00    +0.000 A 
ATOM      6  C   UNL     1       4.473   3.611  19.070  0.00  0.00    +0.000 A 
ATOM      7  C   UNL     1       3.304   3.377  19.804  0.00  0.00    +0.000 A 
ATOM      8  C   UNL     1       2.127   4.027  19.445  0.00  0.00    +0.000 A 
ATOM      9  C   UNL     1       2.097   4.909  18.370  0.00  0.00    +0.000 A 
ATOM     10  C   UNL     1       3.262   5.144  17.637  0.00  0.00    +0.000 A 
BRANCH   8  11
ATOM     11  O   UNL     1       0.968   3.832  20.135  0.00  0.00    +0.000 OA
ATOM     12  H   UNL     1       0.822   4.589  20.727  0.00  0.00    +0.000 HD
ENDBRANCH   8  11
ENDBRANCH   2   5
BRANCH   1  15
ATOM     13  C   UNL     1       6.758   4.793  14.023  0.00  0.00    +0.000 C 
ATOM     14  C   UNL     1       7.908   5.284  13.169  0.00  0.00    +0.000 C 
ATOM     15  N   UNL     1       6.513   5.512  15.078  0.00  0.00    +0.000 NA
BRANCH  13  16
ATOM     16  C   UNL     1       5.931   3.594  13.568  0.00  0.00    +0.000 C 
BRANCH  16  17
ATOM     17  C   UNL     1       5.780   3.456  12.055  0.00  0.00    +0.000 C 
BRANCH  17  19
ATOM     18  C   UNL     1       3.752   3.651  10.589  0.00  0.00    +0.000 C 
ATOM     19  C   UNL     1       4.363   3.144  11.666  0.00  0.00    +0.000 C 
ENDBRANCH  17  19
ENDBRANCH  16  17
ENDBRANCH  13  16
ENDBRANCH   1  15
TORSDOF 6
ENDMDL
