MODEL 1
REMARK VINA RESULT:      -7.9      0.000      0.000
REMARK  Name = 
REMARK  11 active torsions:
REMARK  status: ('A' for Active; 'I' for Inactive)
REMARK    1  A    between atoms: C_1  and  C_2
REMARK    2  A    between atoms: N_4  and  C_5
REMARK    3  A    between atoms: C_8  and  C_9
REMARK    4  A    between atoms: N_15  and  C_16
REMARK    5  A    between atoms: C_16  and  C_17
REMARK    6  A    between atoms: N_19  and  C_20
REMARK    7  A    between atoms: C_20  and  C_21
REMARK    8  A    between atoms: C_20  and  C_27
REMARK    9  A    between atoms: C_21  and  C_23
REMARK   10  A    between atoms: C_27  and  C_28
REMARK   11  A    between atoms: C_27  and  C_29
REMARK                            x       y       z     vdW  Elec       q    Type
REMARK                         _______ _______ _______ _____ _____    ______ ____
ROOT
ATOM      1  C   UNL     1       1.910   9.029  19.346  0.00  0.00    +0.000 A 
ATOM      2  C   UNL     1       1.556   8.558  20.549  0.00  0.00    +0.000 A 
ATOM      3  C   UNL     1       1.525   7.148  20.824  0.00  0.00    +0.000 A 
ATOM      4  C   UNL     1       1.878   6.255  19.886  0.00  0.00    +0.000 A 
ATOM      5  N   UNL     1       2.291   6.681  18.621  0.00  0.00    +0.000 N 
ATOM      6  C   UNL     1       2.289   8.038  18.268  0.00  0.00    +0.000 A 
ATOM      7  O   UNL     1       2.600   8.471  17.157  0.00  0.00    +0.000 OA
ENDROOT
BRANCH   4   8
ATOM      8  C   UNL     1       1.820   4.832  20.263  0.00  0.00    +0.000 A 
ATOM      9  C   UNL     1       1.043   3.924  19.535  0.00  0.00    +0.000 A 
ATOM     10  C   UNL     1       0.965   2.587  19.934  0.00  0.00    +0.000 A 
ATOM     11  C   UNL     1       1.670   2.145  21.053  0.00  0.00    +0.000 A 
ATOM     12  C   UNL     1       2.439   3.042  21.789  0.00  0.00    +0.000 A 
ATOM     13  C   UNL     1       2.490   4.382  21.408  0.00  0.00    +0.000 A 
ENDBRANCH   4   8
BRANCH   1  17
ATOM     14  C   UNL     1       1.248  12.615  18.474  0.00  0.00    +0.000 C 
ATOM     15  C   UNL     1       0.884  11.237  18.955  0.00  0.00    +0.000 C 
ATOM     16  O   UNL     1      -0.267  10.966  19.285  0.00  0.00    +0.000 OA
ATOM     17  N   UNL     1       1.955  10.367  18.996  0.00  0.00    +0.000 N 
ATOM     18  H   UNL     1       2.895  10.754  18.929  0.00  0.00    +0.000 HD
ENDBRANCH   1  17
BRANCH   5  19
ATOM     19  C   UNL     1       2.677   5.709  17.586  0.00  0.00    +0.000 C 
BRANCH  19  20
ATOM     20  C   UNL     1       4.130   5.224  17.655  0.00  0.00    +0.000 C 
ATOM     21  O   UNL     1       4.480   4.303  18.393  0.00  0.00    +0.000 OA
ATOM     22  N   UNL     1       5.016   5.777  16.749  0.00  0.00    +0.000 N 
ATOM     23  H   UNL     1       4.693   6.544  16.169  0.00  0.00    +0.000 HD
BRANCH  22  24
ATOM     24  C   UNL     1       6.442   5.445  16.828  0.00  0.00    +0.000 C 
BRANCH  24  25
ATOM     25  C   UNL     1       7.289   6.622  17.377  0.00  0.00    +0.000 C 
ATOM     26  C   UNL     1       6.498   7.936  17.429  0.00  0.00    +0.000 C 
ATOM     27  C   UNL     1       7.823   6.335  18.788  0.00  0.00    +0.000 C 
ENDBRANCH  24  25
BRANCH  24  28
ATOM     28  C   UNL     1       6.888   5.088  15.404  0.00  0.00    +0.000 C 
ATOM     29  O   UNL     1       7.819   5.692  14.858  0.00  0.00    +0.000 OA
BRANCH  28  30
ATOM     30  C   UNL     1       6.125   3.961  14.721  0.00  0.00    +0.000 C 
ATOM     31  F   UNL     1       6.765   3.439  13.638  0.00  0.00    +0.000 F 
ATOM     32  F   UNL     1       5.847   2.919  15.552  0.00  0.00    +0.000 F 
ATOM     33  F   UNL     1       4.920   4.395  14.248  0.00  0.00    +0.000 F 
ENDBRANCH  28  30
ENDBRANCH  24  28
ENDBRANCH  22  24
ENDBRANCH  19  20
ENDBRANCH   5  19
TORSDOF 8
ENDMDL
MODEL 2
REMARK VINA RESULT:      -7.8      2.145      2.781
REMARK  Name = 
REMARK  11 active torsions:
REMARK  status: ('A' for Active; 'I' for Inactive)
REMARK    1  A    between atoms: C_1  and  C_2
REMARK    2  A    between atoms: N_4  and  C_5
REMARK    3  A    between atoms: C_8  and  C_9
REMARK    4  A    between atoms: N_15  and  C_16
REMARK    5  A    between atoms: C_16  and  C_17
REMARK    6  A    between atoms: N_19  and  C_20
REMARK    7  A    between atoms: C_20  and  C_21
REMARK    8  A    between atoms: C_20  and  C_27
REMARK    9  A    between atoms: C_21  and  C_23
REMARK   10  A    between atoms: C_27  and  C_28
REMARK   11  A    between atoms: C_27  and  C_29
REMARK                            x       y       z     vdW  Elec       q    Type
REMARK                         _______ _______ _______ _____ _____    ______ ____
ROOT
ATOM      1  C   UNL     1       1.533   9.057  19.491  0.00  0.00    +0.000 A 
ATOM      2  C   UNL     1       1.323   8.486  20.684  0.00  0.00    +0.000 A 
ATOM      3  C   UNL     1       1.590   7.092  20.906  0.00  0.00    +0.000 A 
ATOM      4  C   UNL     1       2.087   6.320  19.927  0.00  0.00    +0.000 A 
ATOM      5  N   UNL     1       2.361   6.862  18.668  0.00  0.00    +0.000 N 
ATOM      6  C   UNL     1       2.070   8.200  18.366  0.00  0.00    +0.000 A 
ATOM      7  O   UNL     1       2.249   8.723  17.265  0.00  0.00    +0.000 OA
ENDROOT
BRANCH   4   8
ATOM      8  C   UNL     1       2.334   4.904  20.251  0.00  0.00    +0.000 A 
ATOM      9  C   UNL     1       3.606   4.341  20.098  0.00  0.00    +0.000 A 
ATOM     10  C   UNL     1       3.811   2.986  20.368  0.00  0.00    +0.000 A 
ATOM     11  C   UNL     1       2.754   2.187  20.805  0.00  0.00    +0.000 A 
ATOM     12  C   UNL     1       1.483   2.737  20.951  0.00  0.00    +0.000 A 
ATOM     13  C   UNL     1       1.273   4.081  20.651  0.00  0.00    +0.000 A 
ENDBRANCH   4   8
BRANCH   1  17
ATOM     14  C   UNL     1       0.143  12.408  18.546  0.00  0.00    +0.000 C 
ATOM     15  C   UNL     1       0.067  10.946  18.888  0.00  0.00    +0.000 C 
ATOM     16  O   UNL     1      -1.009  10.355  18.902  0.00  0.00    +0.000 OA
ATOM     17  N   UNL     1       1.292  10.386  19.191  0.00  0.00    +0.000 N 
ATOM     18  H   UNL     1       2.075  11.010  19.379  0.00  0.00    +0.000 HD
ENDBRANCH   1  17
BRANCH   5  19
ATOM     19  C   UNL     1       2.903   6.024  17.587  0.00  0.00    +0.000 C 
BRANCH  19  20
ATOM     20  C   UNL     1       4.359   6.314  17.203  0.00  0.00    +0.000 C 
ATOM     21  O   UNL     1       4.824   7.453  17.207  0.00  0.00    +0.000 OA
ATOM     22  N   UNL     1       5.175   5.220  16.981  0.00  0.00    +0.000 N 
ATOM     23  H   UNL     1       4.751   4.299  16.972  0.00  0.00    +0.000 HD
BRANCH  22  24
ATOM     24  C   UNL     1       6.547   5.419  16.503  0.00  0.00    +0.000 C 
BRANCH  24  25
ATOM     25  C   UNL     1       6.843   4.605  15.216  0.00  0.00    +0.000 C 
ATOM     26  C   UNL     1       5.579   3.973  14.621  0.00  0.00    +0.000 C 
ATOM     27  C   UNL     1       7.496   5.472  14.129  0.00  0.00    +0.000 C 
ENDBRANCH  24  25
BRANCH  24  28
ATOM     28  C   UNL     1       7.476   4.972  17.640  0.00  0.00    +0.000 C 
ATOM     29  O   UNL     1       8.156   3.943  17.540  0.00  0.00    +0.000 OA
BRANCH  28  30
ATOM     30  C   UNL     1       7.507   5.862  18.874  0.00  0.00    +0.000 C 
ATOM     31  F   UNL     1       6.389   5.775  19.646  0.00  0.00    +0.000 F 
ATOM     32  F   UNL     1       8.567   5.613  19.691  0.00  0.00    +0.000 F 
ATOM     33  F   UNL     1       7.601   7.181  18.531  0.00  0.00    +0.000 F 
ENDBRANCH  28  30
ENDBRANCH  24  28
ENDBRANCH  22  24
ENDBRANCH  19  20
ENDBRANCH   5  19
TORSDOF 8
ENDMDL
MODEL 3
REMARK VINA RESULT:      -7.7      2.367      2.944
REMARK  Name = 
REMARK  11 active torsions:
REMARK  status: ('A' for Active; 'I' for Inactive)
REMARK    1  A    between atoms: C_1  and  C_2
REMARK    2  A    between atoms: N_4  and  C_5
REMARK    3  A    between atoms: C_8  and  C_9
REMARK    4  A    between atoms: N_15  and  C_16
REMARK    5  A    between atoms: C_16  and  C_17
REMARK    6  A    between atoms: N_19  and  C_20
REMARK    7  A    between atoms: C_20  and  C_21
REMARK    8  A    between atoms: C_20  and  C_27
REMARK    9  A    between atoms: C_21  and  C_23
REMARK   10  A    between atoms: C_27  and  C_28
REMARK   11  A    between atoms: C_27  and  C_29
REMARK                            x       y       z     vdW  Elec       q    Type
REMARK                         _______ _______ _______ _____ _____    ______ ____
ROOT
ATOM      1  C   UNL     1       1.702   8.431  19.942  0.00  0.00    +0.000 A 
ATOM      2  C   UNL     1       1.577   7.451  20.845  0.00  0.00    +0.000 A 
ATOM      3  C   UNL     1       1.925   6.092  20.531  0.00  0.00    +0.000 A 
ATOM      4  C   UNL     1       2.415   5.767  19.324  0.00  0.00    +0.000 A 
ATOM      5  N   UNL     1       2.603   6.749  18.347  0.00  0.00    +0.000 N 
ATOM      6  C   UNL     1       2.231   8.083  18.568  0.00  0.00    +0.000 A 
ATOM      7  O   UNL     1       2.332   8.983  17.733  0.00  0.00    +0.000 OA
ENDROOT
BRANCH   4   8
ATOM      8  C   UNL     1       2.749   4.350  19.098  0.00  0.00    +0.000 A 
ATOM      9  C   UNL     1       1.906   3.522  18.348  0.00  0.00    +0.000 A 
ATOM     10  C   UNL     1       2.216   2.169  18.182  0.00  0.00    +0.000 A 
ATOM     11  C   UNL     1       3.373   1.638  18.750  0.00  0.00    +0.000 A 
ATOM     12  C   UNL     1       4.214   2.452  19.505  0.00  0.00    +0.000 A 
ATOM     13  C   UNL     1       3.886   3.793  19.696  0.00  0.00    +0.000 A 
ENDBRANCH   4   8
BRANCH   1  17
ATOM     14  C   UNL     1       0.137  11.828  20.207  0.00  0.00    +0.000 C 
ATOM     15  C   UNL     1       0.152  10.349  19.931  0.00  0.00    +0.000 C 
ATOM     16  O   UNL     1      -0.861   9.764  19.560  0.00  0.00    +0.000 OA
ATOM     17  N   UNL     1       1.380   9.759  20.158  0.00  0.00    +0.000 N 
ATOM     18  H   UNL     1       2.078  10.283  20.685  0.00  0.00    +0.000 HD
ENDBRANCH   1  17
BRANCH   5  19
ATOM     19  C   UNL     1       3.138   6.402  17.022  0.00  0.00    +0.000 C 
BRANCH  19  20
ATOM     20  C   UNL     1       4.653   6.573  16.863  0.00  0.00    +0.000 C 
ATOM     21  O   UNL     1       5.213   7.655  17.040  0.00  0.00    +0.000 OA
ATOM     22  N   UNL     1       5.391   5.425  16.643  0.00  0.00    +0.000 N 
ATOM     23  H   UNL     1       4.891   4.556  16.487  0.00  0.00    +0.000 HD
BRANCH  22  24
ATOM     24  C   UNL     1       6.829   5.523  16.371  0.00  0.00    +0.000 C 
BRANCH  24  25
ATOM     25  C   UNL     1       7.246   4.707  15.120  0.00  0.00    +0.000 C 
ATOM     26  C   UNL     1       6.114   3.809  14.604  0.00  0.00    +0.000 C 
ATOM     27  C   UNL     1       7.691   5.617  13.966  0.00  0.00    +0.000 C 
ENDBRANCH  24  25
BRANCH  24  28
ATOM     28  C   UNL     1       7.547   4.988  17.617  0.00  0.00    +0.000 C 
ATOM     29  O   UNL     1       8.134   3.899  17.597  0.00  0.00    +0.000 OA
BRANCH  28  30
ATOM     30  C   UNL     1       7.493   5.871  18.857  0.00  0.00    +0.000 C 
ATOM     31  F   UNL     1       6.283   5.874  19.480  0.00  0.00    +0.000 F 
ATOM     32  F   UNL     1       8.418   5.535  19.797  0.00  0.00    +0.000 F 
ATOM     33  F   UNL     1       7.736   7.178  18.544  0.00  0.00    +0.000 F 
ENDBRANCH  28  30
ENDBRANCH  24  28
ENDBRANCH  22  24
ENDBRANCH  19  20
ENDBRANCH   5  19
TORSDOF 8
ENDMDL
MODEL 4
REMARK VINA RESULT:      -7.6      2.486      3.192
REMARK  Name = 
REMARK  11 active torsions:
REMARK  status: ('A' for Active; 'I' for Inactive)
REMARK    1  A    between atoms: C_1  and  C_2
REMARK    2  A    between atoms: N_4  and  C_5
REMARK    3  A    between atoms: C_8  and  C_9
REMARK    4  A    between atoms: N_15  and  C_16
REMARK    5  A    between atoms: C_16  and  C_17
REMARK    6  A    between atoms: N_19  and  C_20
REMARK    7  A    between atoms: C_20  and  C_21
REMARK    8  A    between atoms: C_20  and  C_27
REMARK    9  A    between atoms: C_21  and  C_23
REMARK   10  A    between atoms: C_27  and  C_28
REMARK   11  A    between atoms: C_27  and  C_29
REMARK                            x       y       z     vdW  Elec       q    Type
REMARK                         _______ _______ _______ _____ _____    ______ ____
ROOT
ATOM      1  C   UNL     1       1.558   8.216  20.001  0.00  0.00    +0.000 A 
ATOM      2  C   UNL     1       1.493   7.260  20.935  0.00  0.00    +0.000 A 
ATOM      3  C   UNL     1       1.904   5.910  20.658  0.00  0.00    +0.000 A 
ATOM      4  C   UNL     1       2.395   5.573  19.456  0.00  0.00    +0.000 A 
ATOM      5  N   UNL     1       2.523   6.532  18.447  0.00  0.00    +0.000 N 
ATOM      6  C   UNL     1       2.087   7.852  18.631  0.00  0.00    +0.000 A 
ATOM      7  O   UNL     1       2.134   8.730  17.768  0.00  0.00    +0.000 OA
ENDROOT
BRANCH   4   8
ATOM      8  C   UNL     1       2.796   4.167  19.269  0.00  0.00    +0.000 A 
ATOM      9  C   UNL     1       4.036   3.705  19.724  0.00  0.00    +0.000 A 
ATOM     10  C   UNL     1       4.418   2.380  19.497  0.00  0.00    +0.000 A 
ATOM     11  C   UNL     1       3.562   1.505  18.829  0.00  0.00    +0.000 A 
ATOM     12  C   UNL     1       2.330   1.958  18.365  0.00  0.00    +0.000 A 
ATOM     13  C   UNL     1       1.964   3.288  18.564  0.00  0.00    +0.000 A 
ENDBRANCH   4   8
BRANCH   1  17
ATOM     14  C   UNL     1       0.532  11.598  21.255  0.00  0.00    +0.000 C 
ATOM     15  C   UNL     1       1.023  10.182  21.391  0.00  0.00    +0.000 C 
ATOM     16  O   UNL     1       1.269   9.701  22.492  0.00  0.00    +0.000 OA
ATOM     17  N   UNL     1       1.173   9.533  20.181  0.00  0.00    +0.000 N 
ATOM     18  H   UNL     1       1.170  10.092  19.329  0.00  0.00    +0.000 HD
ENDBRANCH   1  17
BRANCH   5  19
ATOM     19  C   UNL     1       3.059   6.171  17.126  0.00  0.00    +0.000 C 
BRANCH  19  20
ATOM     20  C   UNL     1       4.559   6.423  16.937  0.00  0.00    +0.000 C 
ATOM     21  O   UNL     1       5.064   7.532  17.107  0.00  0.00    +0.000 OA
ATOM     22  N   UNL     1       5.352   5.316  16.700  0.00  0.00    +0.000 N 
ATOM     23  H   UNL     1       4.897   4.422  16.551  0.00  0.00    +0.000 HD
BRANCH  22  24
ATOM     24  C   UNL     1       6.777   5.491  16.399  0.00  0.00    +0.000 C 
BRANCH  24  25
ATOM     25  C   UNL     1       7.212   4.702  15.137  0.00  0.00    +0.000 C 
ATOM     26  C   UNL     1       6.092   3.805  14.594  0.00  0.00    +0.000 C 
ATOM     27  C   UNL     1       7.660   5.638  14.004  0.00  0.00    +0.000 C 
ENDBRANCH  24  25
BRANCH  24  28
ATOM     28  C   UNL     1       7.548   4.991  17.629  0.00  0.00    +0.000 C 
ATOM     29  O   UNL     1       8.140   3.905  17.612  0.00  0.00    +0.000 OA
BRANCH  28  30
ATOM     30  C   UNL     1       7.538   5.904  18.847  0.00  0.00    +0.000 C 
ATOM     31  F   UNL     1       7.763   7.215  18.556  0.00  0.00    +0.000 F 
ATOM     32  F   UNL     1       6.373   5.853  19.549  0.00  0.00    +0.000 F 
ATOM     33  F   UNL     1       8.521   5.561  19.731  0.00  0.00    +0.000 F 
ENDBRANCH  28  30
ENDBRANCH  24  28
ENDBRANCH  22  24
ENDBRANCH  19  20
ENDBRANCH   5  19
TORSDOF 8
ENDMDL
MODEL 5
REMARK VINA RESULT:      -7.5      0.956      1.472
REMARK  Name = 
REMARK  11 active torsions:
REMARK  status: ('A' for Active; 'I' for Inactive)
REMARK    1  A    between atoms: C_1  and  C_2
REMARK    2  A    between atoms: N_4  and  C_5
REMARK    3  A    between atoms: C_8  and  C_9
REMARK    4  A    between atoms: N_15  and  C_16
REMARK    5  A    between atoms: C_16  and  C_17
REMARK    6  A    between atoms: N_19  and  C_20
REMARK    7  A    between atoms: C_20  and  C_21
REMARK    8  A    between atoms: C_20  and  C_27
REMARK    9  A    between atoms: C_21  and  C_23
REMARK   10  A    between atoms: C_27  and  C_28
REMARK   11  A    between atoms: C_27  and  C_29
REMARK                            x       y       z     vdW  Elec       q    Type
REMARK                         _______ _______ _______ _____ _____    ______ ____
ROOT
ATOM      1  C   UNL     1       1.478   9.133  19.720  0.00  0.00    +0.000 A 
ATOM      2  C   UNL     1       0.950   8.566  20.812  0.00  0.00    +0.000 A 
ATOM      3  C   UNL     1       1.014   7.146  21.025  0.00  0.00    +0.000 A 
ATOM      4  C   UNL     1       1.632   6.343  20.145  0.00  0.00    +0.000 A 
ATOM      5  N   UNL     1       2.235   6.876  19.002  0.00  0.00    +0.000 N 
ATOM      6  C   UNL     1       2.160   8.244  18.703  0.00  0.00    +0.000 A 
ATOM      7  O   UNL     1       2.633   8.765  17.692  0.00  0.00    +0.000 OA
ENDROOT
BRANCH   4   8
ATOM      8  C   UNL     1       1.652   4.903  20.453  0.00  0.00    +0.000 A 
ATOM      9  C   UNL     1       2.375   4.409  21.544  0.00  0.00    +0.000 A 
ATOM     10  C   UNL     1       2.418   3.035  21.794  0.00  0.00    +0.000 A 
ATOM     11  C   UNL     1       1.731   2.147  20.967  0.00  0.00    +0.000 A 
ATOM     12  C   UNL     1       1.015   2.628  19.874  0.00  0.00    +0.000 A 
ATOM     13  C   UNL     1       0.999   3.996  19.608  0.00  0.00    +0.000 A 
ENDBRANCH   4   8
BRANCH   1  17
ATOM     14  C   UNL     1       0.682  12.641  18.662  0.00  0.00    +0.000 C 
ATOM     15  C   UNL     1       0.377  11.192  18.924  0.00  0.00    +0.000 C 
ATOM     16  O   UNL     1      -0.739  10.731  18.707  0.00  0.00    +0.000 OA
ATOM     17  N   UNL     1       1.450  10.487  19.433  0.00  0.00    +0.000 N 
ATOM     18  H   UNL     1       2.246  11.011  19.793  0.00  0.00    +0.000 HD
ENDBRANCH   1  17
BRANCH   5  19
ATOM     19  C   UNL     1       2.914   6.004  18.030  0.00  0.00    +0.000 C 
BRANCH  19  20
ATOM     20  C   UNL     1       4.386   5.706  18.337  0.00  0.00    +0.000 C 
ATOM     21  O   UNL     1       4.727   4.971  19.263  0.00  0.00    +0.000 OA
ATOM     22  N   UNL     1       5.320   6.190  17.440  0.00  0.00    +0.000 N 
ATOM     23  H   UNL     1       5.001   6.804  16.699  0.00  0.00    +0.000 HD
BRANCH  22  24
ATOM     24  C   UNL     1       6.751   6.039  17.726  0.00  0.00    +0.000 C 
BRANCH  24  25
ATOM     25  C   UNL     1       7.536   7.357  17.496  0.00  0.00    +0.000 C 
ATOM     26  C   UNL     1       6.610   8.551  17.235  0.00  0.00    +0.000 C 
ATOM     27  C   UNL     1       8.432   7.705  18.694  0.00  0.00    +0.000 C 
ENDBRANCH  24  25
BRANCH  24  28
ATOM     28  C   UNL     1       7.271   4.941  16.789  0.00  0.00    +0.000 C 
ATOM     29  O   UNL     1       8.125   4.130  17.170  0.00  0.00    +0.000 OA
BRANCH  28  30
ATOM     30  C   UNL     1       6.677   4.913  15.388  0.00  0.00    +0.000 C 
ATOM     31  F   UNL     1       5.728   5.866  15.171  0.00  0.00    +0.000 F 
ATOM     32  F   UNL     1       7.608   5.057  14.405  0.00  0.00    +0.000 F 
ATOM     33  F   UNL     1       6.051   3.725  15.139  0.00  0.00    +0.000 F 
ENDBRANCH  28  30
ENDBRANCH  24  28
ENDBRANCH  22  24
ENDBRANCH  19  20
ENDBRANCH   5  19
TORSDOF 8
ENDMDL
MODEL 6
REMARK VINA RESULT:      -7.3      0.855      1.429
REMARK  Name = 
REMARK  11 active torsions:
REMARK  status: ('A' for Active; 'I' for Inactive)
REMARK    1  A    between atoms: C_1  and  C_2
REMARK    2  A    between atoms: N_4  and  C_5
REMARK    3  A    between atoms: C_8  and  C_9
REMARK    4  A    between atoms: N_15  and  C_16
REMARK    5  A    between atoms: C_16  and  C_17
REMARK    6  A    between atoms: N_19  and  C_20
REMARK    7  A    between atoms: C_20  and  C_21
REMARK    8  A    between atoms: C_20  and  C_27
REMARK    9  A    between atoms: C_21  and  C_23
REMARK   10  A    between atoms: C_27  and  C_28
REMARK   11  A    between atoms: C_27  and  C_29
REMARK                            x       y       z     vdW  Elec       q    Type
REMARK                         _______ _______ _______ _____ _____    ______ ____
ROOT
ATOM      1  C   UNL     1       1.575   9.157  19.542  0.00  0.00    +0.000 A 
ATOM      2  C   UNL     1       1.253   8.685  20.753  0.00  0.00    +0.000 A 
ATOM      3  C   UNL     1       1.261   7.276  21.036  0.00  0.00    +0.000 A 
ATOM      4  C   UNL     1       1.622   6.386  20.098  0.00  0.00    +0.000 A 
ATOM      5  N   UNL     1       2.004   6.815  18.823  0.00  0.00    +0.000 N 
ATOM      6  C   UNL     1       1.963   8.169  18.463  0.00  0.00    +0.000 A 
ATOM      7  O   UNL     1       2.246   8.604  17.345  0.00  0.00    +0.000 OA
ENDROOT
BRANCH   4   8
ATOM      8  C   UNL     1       1.606   4.964  20.484  0.00  0.00    +0.000 A 
ATOM      9  C   UNL     1       2.473   4.475  21.468  0.00  0.00    +0.000 A 
ATOM     10  C   UNL     1       2.474   3.115  21.789  0.00  0.00    +0.000 A 
ATOM     11  C   UNL     1       1.605   2.238  21.142  0.00  0.00    +0.000 A 
ATOM     12  C   UNL     1       0.745   2.714  20.155  0.00  0.00    +0.000 A 
ATOM     13  C   UNL     1       0.767   4.065  19.814  0.00  0.00    +0.000 A 
ENDBRANCH   4   8
BRANCH   1  17
ATOM     14  C   UNL     1       0.809  12.684  18.528  0.00  0.00    +0.000 C 
ATOM     15  C   UNL     1       0.471  11.285  18.966  0.00  0.00    +0.000 C 
ATOM     16  O   UNL     1      -0.695  10.935  19.120  0.00  0.00    +0.000 OA
ATOM     17  N   UNL     1       1.581  10.493  19.183  0.00  0.00    +0.000 N 
ATOM     18  H   UNL     1       2.491  10.946  19.256  0.00  0.00    +0.000 HD
ENDBRANCH   1  17
BRANCH   5  19
ATOM     19  C   UNL     1       2.399   5.848  17.788  0.00  0.00    +0.000 C 
BRANCH  19  20
ATOM     20  C   UNL     1       3.768   5.188  17.998  0.00  0.00    +0.000 C 
ATOM     21  O   UNL     1       3.883   4.034  18.409  0.00  0.00    +0.000 OA
ATOM     22  N   UNL     1       4.874   5.900  17.574  0.00  0.00    +0.000 N 
ATOM     23  H   UNL     1       4.739   6.853  17.256  0.00  0.00    +0.000 HD
BRANCH  22  24
ATOM     24  C   UNL     1       6.220   5.383  17.842  0.00  0.00    +0.000 C 
BRANCH  24  25
ATOM     25  C   UNL     1       7.128   6.438  18.526  0.00  0.00    +0.000 C 
ATOM     26  C   UNL     1       8.271   5.796  19.324  0.00  0.00    +0.000 C 
ATOM     27  C   UNL     1       7.748   7.406  17.508  0.00  0.00    +0.000 C 
ENDBRANCH  24  25
BRANCH  24  28
ATOM     28  C   UNL     1       6.810   4.974  16.486  0.00  0.00    +0.000 C 
ATOM     29  O   UNL     1       7.922   4.436  16.411  0.00  0.00    +0.000 OA
BRANCH  28  30
ATOM     30  C   UNL     1       5.953   5.268  15.262  0.00  0.00    +0.000 C 
ATOM     31  F   UNL     1       6.652   5.300  14.094  0.00  0.00    +0.000 F 
ATOM     32  F   UNL     1       4.940   4.375  15.088  0.00  0.00    +0.000 F 
ATOM     33  F   UNL     1       5.359   6.493  15.357  0.00  0.00    +0.000 F 
ENDBRANCH  28  30
ENDBRANCH  24  28
ENDBRANCH  22  24
ENDBRANCH  19  20
ENDBRANCH   5  19
TORSDOF 8
ENDMDL
MODEL 7
REMARK VINA RESULT:      -7.3      3.931      7.278
REMARK  Name = 
REMARK  11 active torsions:
REMARK  status: ('A' for Active; 'I' for Inactive)
REMARK    1  A    between atoms: C_1  and  C_2
REMARK    2  A    between atoms: N_4  and  C_5
REMARK    3  A    between atoms: C_8  and  C_9
REMARK    4  A    between atoms: N_15  and  C_16
REMARK    5  A    between atoms: C_16  and  C_17
REMARK    6  A    between atoms: N_19  and  C_20
REMARK    7  A    between atoms: C_20  and  C_21
REMARK    8  A    between atoms: C_20  and  C_27
REMARK    9  A    between atoms: C_21  and  C_23
REMARK   10  A    between atoms: C_27  and  C_28
REMARK   11  A    between atoms: C_27  and  C_29
REMARK                            x       y       z     vdW  Elec       q    Type
REMARK                         _______ _______ _______ _____ _____    ______ ____
ROOT
ATOM      1  C   UNL     1       5.701   4.889  16.033  0.00  0.00    +0.000 A 
ATOM      2  C   UNL     1       5.094   3.696  16.050  0.00  0.00    +0.000 A 
ATOM      3  C   UNL     1       4.203   3.322  17.114  0.00  0.00    +0.000 A 
ATOM      4  C   UNL     1       3.928   4.174  18.114  0.00  0.00    +0.000 A 
ATOM      5  N   UNL     1       4.502   5.449  18.138  0.00  0.00    +0.000 N 
ATOM      6  C   UNL     1       5.424   5.856  17.163  0.00  0.00    +0.000 A 
ATOM      7  O   UNL     1       5.994   6.948  17.154  0.00  0.00    +0.000 OA
ENDROOT
BRANCH   4   8
ATOM      8  C   UNL     1       2.998   3.704  19.155  0.00  0.00    +0.000 A 
ATOM      9  C   UNL     1       3.473   3.180  20.363  0.00  0.00    +0.000 A 
ATOM     10  C   UNL     1       2.577   2.698  21.320  0.00  0.00    +0.000 A 
ATOM     11  C   UNL     1       1.203   2.747  21.086  0.00  0.00    +0.000 A 
ATOM     12  C   UNL     1       0.721   3.259  19.884  0.00  0.00    +0.000 A 
ATOM     13  C   UNL     1       1.618   3.710  18.918  0.00  0.00    +0.000 A 
ENDBRANCH   4   8
BRANCH   1  17
ATOM     14  C   UNL     1       7.885   5.388  13.026  0.00  0.00    +0.000 C 
ATOM     15  C   UNL     1       6.827   4.702  13.846  0.00  0.00    +0.000 C 
ATOM     16  O   UNL     1       6.255   3.699  13.430  0.00  0.00    +0.000 OA
ATOM     17  N   UNL     1       6.580   5.322  15.055  0.00  0.00    +0.000 N 
ATOM     18  H   UNL     1       6.934   6.267  15.195  0.00  0.00    +0.000 HD
ENDBRANCH   1  17
BRANCH   5  19
ATOM     19  C   UNL     1       4.208   6.388  19.231  0.00  0.00    +0.000 C 
BRANCH  19  20
ATOM     20  C   UNL     1       2.866   7.122  19.120  0.00  0.00    +0.000 C 
ATOM     21  O   UNL     1       2.156   7.042  18.118  0.00  0.00    +0.000 OA
ATOM     22  N   UNL     1       2.417   7.773  20.253  0.00  0.00    +0.000 N 
ATOM     23  H   UNL     1       3.038   7.829  21.053  0.00  0.00    +0.000 HD
BRANCH  22  24
ATOM     24  C   UNL     1       1.198   8.587  20.191  0.00  0.00    +0.000 C 
BRANCH  24  25
ATOM     25  C   UNL     1       1.310   9.731  19.150  0.00  0.00    +0.000 C 
ATOM     26  C   UNL     1       0.104   9.778  18.202  0.00  0.00    +0.000 C 
ATOM     27  C   UNL     1       1.437  11.106  19.822  0.00  0.00    +0.000 C 
ENDBRANCH  24  25
BRANCH  24  28
ATOM     28  C   UNL     1       0.988   9.168  21.596  0.00  0.00    +0.000 C 
ATOM     29  O   UNL     1       1.949   9.521  22.290  0.00  0.00    +0.000 OA
BRANCH  28  30
ATOM     30  C   UNL     1      -0.455   9.279  22.070  0.00  0.00    +0.000 C 
ATOM     31  F   UNL     1      -0.581   9.531  23.402  0.00  0.00    +0.000 F 
ATOM     32  F   UNL     1      -1.162  10.244  21.420  0.00  0.00    +0.000 F 
ATOM     33  F   UNL     1      -1.136   8.114  21.862  0.00  0.00    +0.000 F 
ENDBRANCH  28  30
ENDBRANCH  24  28
ENDBRANCH  22  24
ENDBRANCH  19  20
ENDBRANCH   5  19
TORSDOF 8
ENDMDL
MODEL 8
REMARK VINA RESULT:      -7.2      3.978      7.168
REMARK  Name = 
REMARK  11 active torsions:
REMARK  status: ('A' for Active; 'I' for Inactive)
REMARK    1  A    between atoms: C_1  and  C_2
REMARK    2  A    between atoms: N_4  and  C_5
REMARK    3  A    between atoms: C_8  and  C_9
REMARK    4  A    between atoms: N_15  and  C_16
REMARK    5  A    between atoms: C_16  and  C_17
REMARK    6  A    between atoms: N_19  and  C_20
REMARK    7  A    between atoms: C_20  and  C_21
REMARK    8  A    between atoms: C_20  and  C_27
REMARK    9  A    between atoms: C_21  and  C_23
REMARK   10  A    between atoms: C_27  and  C_28
REMARK   11  A    between atoms: C_27  and  C_29
REMARK                            x       y       z     vdW  Elec       q    Type
REMARK                         _______ _______ _______ _____ _____    ______ ____
ROOT
ATOM      1  C   UNL     1       5.016   4.599  15.889  0.00  0.00    +0.000 A 
ATOM      2  C   UNL     1       4.421   3.407  16.020  0.00  0.00    +0.000 A 
ATOM      3  C   UNL     1       3.674   3.066  17.199  0.00  0.00    +0.000 A 
ATOM      4  C   UNL     1       3.525   3.949  18.200  0.00  0.00    +0.000 A 
ATOM      5  N   UNL     1       4.092   5.223  18.111  0.00  0.00    +0.000 N 
ATOM      6  C   UNL     1       4.881   5.600  17.015  0.00  0.00    +0.000 A 
ATOM      7  O   UNL     1       5.441   6.691  16.900  0.00  0.00    +0.000 OA
ENDROOT
BRANCH   4   8
ATOM      8  C   UNL     1       2.737   3.511  19.365  0.00  0.00    +0.000 A 
ATOM      9  C   UNL     1       1.350   3.694  19.407  0.00  0.00    +0.000 A 
ATOM     10  C   UNL     1       0.625   3.314  20.539  0.00  0.00    +0.000 A 
ATOM     11  C   UNL     1       1.274   2.737  21.630  0.00  0.00    +0.000 A 
ATOM     12  C   UNL     1       2.655   2.558  21.601  0.00  0.00    +0.000 A 
ATOM     13  C   UNL     1       3.381   2.967  20.484  0.00  0.00    +0.000 A 
ENDBRANCH   4   8
BRANCH   1  17
ATOM     14  C   UNL     1       7.652   5.536  13.393  0.00  0.00    +0.000 C 
ATOM     15  C   UNL     1       7.138   4.972  14.689  0.00  0.00    +0.000 C 
ATOM     16  O   UNL     1       7.908   4.523  15.533  0.00  0.00    +0.000 OA
ATOM     17  N   UNL     1       5.762   5.001  14.795  0.00  0.00    +0.000 N 
ATOM     18  H   UNL     1       5.216   5.172  13.952  0.00  0.00    +0.000 HD
ENDBRANCH   1  17
BRANCH   5  19
ATOM     19  C   UNL     1       3.936   6.196  19.203  0.00  0.00    +0.000 C 
BRANCH  19  20
ATOM     20  C   UNL     1       2.645   7.022  19.164  0.00  0.00    +0.000 C 
ATOM     21  O   UNL     1       1.876   6.993  18.203  0.00  0.00    +0.000 OA
ATOM     22  N   UNL     1       2.306   7.705  20.317  0.00  0.00    +0.000 N 
ATOM     23  H   UNL     1       2.972   7.717  21.081  0.00  0.00    +0.000 HD
BRANCH  22  24
ATOM     24  C   UNL     1       1.146   8.603  20.318  0.00  0.00    +0.000 C 
BRANCH  24  25
ATOM     25  C   UNL     1       1.277   9.731  19.262  0.00  0.00    +0.000 C 
ATOM     26  C   UNL     1       0.095   9.757  18.285  0.00  0.00    +0.000 C 
ATOM     27  C   UNL     1       1.380  11.117  19.916  0.00  0.00    +0.000 C 
ENDBRANCH  24  25
BRANCH  24  28
ATOM     28  C   UNL     1       1.059   9.203  21.728  0.00  0.00    +0.000 C 
ATOM     29  O   UNL     1       2.071   9.617  22.308  0.00  0.00    +0.000 OA
BRANCH  28  30
ATOM     30  C   UNL     1      -0.328   9.256  22.354  0.00  0.00    +0.000 C 
ATOM     31  F   UNL     1      -1.125   8.205  22.017  0.00  0.00    +0.000 F 
ATOM     32  F   UNL     1      -0.304   9.309  23.714  0.00  0.00    +0.000 F 
ATOM     33  F   UNL     1      -1.011  10.366  21.948  0.00  0.00    +0.000 F 
ENDBRANCH  28  30
ENDBRANCH  24  28
ENDBRANCH  22  24
ENDBRANCH  19  20
ENDBRANCH   5  19
TORSDOF 8
ENDMDL
MODEL 9
REMARK VINA RESULT:      -7.0      1.143      1.152
REMARK  Name = 
REMARK  11 active torsions:
REMARK  status: ('A' for Active; 'I' for Inactive)
REMARK    1  A    between atoms: C_1  and  C_2
REMARK    2  A    between atoms: N_4  and  C_5
REMARK    3  A    between atoms: C_8  and  C_9
REMARK    4  A    between atoms: N_15  and  C_16
REMARK    5  A    between atoms: C_16  and  C_17
REMARK    6  A    between atoms: N_19  and  C_20
REMARK    7  A    between atoms: C_20  and  C_21
REMARK    8  A    between atoms: C_20  and  C_27
REMARK    9  A    between atoms: C_21  and  C_23
REMARK   10  A    between atoms: C_27  and  C_28
REMARK   11  A    between atoms: C_27  and  C_29
REMARK                            x       y       z     vdW  Elec       q    Type
REMARK                         _______ _______ _______ _____ _____    ______ ____
ROOT
ATOM      1  C   UNL     1       1.314   9.215  20.078  0.00  0.00    +0.000 A 
ATOM      2  C   UNL     1       0.819   8.526  21.114  0.00  0.00    +0.000 A 
ATOM      3  C   UNL     1       0.929   7.095  21.186  0.00  0.00    +0.000 A 
ATOM      4  C   UNL     1       1.559   6.403  20.224  0.00  0.00    +0.000 A 
ATOM      5  N   UNL     1       2.129   7.064  19.132  0.00  0.00    +0.000 N 
ATOM      6  C   UNL     1       2.008   8.452  18.971  0.00  0.00    +0.000 A 
ATOM      7  O   UNL     1       2.450   9.085  18.011  0.00  0.00    +0.000 OA
ENDROOT
BRANCH   4   8
ATOM      8  C   UNL     1       1.627   4.940  20.388  0.00  0.00    +0.000 A 
ATOM      9  C   UNL     1       1.006   4.083  19.473  0.00  0.00    +0.000 A 
ATOM     10  C   UNL     1       1.043   2.700  19.669  0.00  0.00    +0.000 A 
ATOM     11  C   UNL     1       1.709   2.163  20.770  0.00  0.00    +0.000 A 
ATOM     12  C   UNL     1       2.323   3.009  21.690  0.00  0.00    +0.000 A 
ATOM     13  C   UNL     1       2.258   4.389  21.510  0.00  0.00    +0.000 A 
ENDBRANCH   4   8
BRANCH   1  17
ATOM     14  C   UNL     1       0.781  12.913  20.381  0.00  0.00    +0.000 C 
ATOM     15  C   UNL     1       0.798  11.492  20.872  0.00  0.00    +0.000 C 
ATOM     16  O   UNL     1       0.460  11.215  22.019  0.00  0.00    +0.000 OA
ATOM     17  N   UNL     1       1.240  10.588  19.926  0.00  0.00    +0.000 N 
ATOM     18  H   UNL     1       1.715  10.947  19.099  0.00  0.00    +0.000 HD
ENDBRANCH   1  17
BRANCH   5  19
ATOM     19  C   UNL     1       2.820   6.315  18.072  0.00  0.00    +0.000 C 
BRANCH  19  20
ATOM     20  C   UNL     1       4.278   5.947  18.375  0.00  0.00    +0.000 C 
ATOM     21  O   UNL     1       4.645   5.589  19.493  0.00  0.00    +0.000 OA
ATOM     22  N   UNL     1       5.146   5.903  17.300  0.00  0.00    +0.000 N 
ATOM     23  H   UNL     1       4.809   6.221  16.398  0.00  0.00    +0.000 HD
BRANCH  22  24
ATOM     24  C   UNL     1       6.576   5.669  17.527  0.00  0.00    +0.000 C 
BRANCH  24  25
ATOM     25  C   UNL     1       7.404   6.978  17.449  0.00  0.00    +0.000 C 
ATOM     26  C   UNL     1       6.525   8.213  17.213  0.00  0.00    +0.000 C 
ATOM     27  C   UNL     1       8.220   7.215  18.728  0.00  0.00    +0.000 C 
ENDBRANCH  24  25
BRANCH  24  28
ATOM     28  C   UNL     1       7.035   4.685  16.443  0.00  0.00    +0.000 C 
ATOM     29  O   UNL     1       8.137   4.127  16.514  0.00  0.00    +0.000 OA
BRANCH  28  30
ATOM     30  C   UNL     1       6.063   4.443  15.296  0.00  0.00    +0.000 C 
ATOM     31  F   UNL     1       6.535   3.594  14.342  0.00  0.00    +0.000 F 
ATOM     32  F   UNL     1       4.863   3.947  15.703  0.00  0.00    +0.000 F 
ATOM     33  F   UNL     1       5.783   5.604  14.633  0.00  0.00    +0.000 F 
ENDBRANCH  28  30
ENDBRANCH  24  28
ENDBRANCH  22  24
ENDBRANCH  19  20
ENDBRANCH   5  19
TORSDOF 8
ENDMDL
