MODEL 1
REMARK VINA RESULT:      -9.3      0.000      0.000
REMARK  Name = 
REMARK  6 active torsions:
REMARK  status: ('A' for Active; 'I' for Inactive)
REMARK    1  A    between atoms: C_1  and  O_2
REMARK    2  A    between atoms: O_2  and  C_3
REMARK    3  A    between atoms: C_6  and  N_7
REMARK    4  A    between atoms: N_7  and  C_8
REMARK    5  A    between atoms: C_14  and  C_15
REMARK    6  A    between atoms: N_23  and  C_24
REMARK                            x       y       z     vdW  Elec       q    Type
REMARK                         _______ _______ _______ _____ _____    ______ ____
ROOT
ATOM      1  C   UNL     1       3.309   3.706  18.383  0.00  0.00    +0.000 A 
ATOM      2  C   UNL     1       3.454   2.680  19.320  0.00  0.00    +0.000 A 
ATOM      3  C   UNL     1       3.065   2.911  20.619  0.00  0.00    +0.000 A 
ATOM      4  N   UNL     1       2.571   4.087  21.048  0.00  0.00    +0.000 NA
ATOM      5  C   UNL     1       2.439   5.085  20.158  0.00  0.00    +0.000 A 
ATOM      6  C   UNL     1       1.959   6.306  20.612  0.00  0.00    +0.000 A 
ATOM      7  C   UNL     1       1.778   7.422  19.773  0.00  0.00    +0.000 A 
ATOM      8  C   UNL     1       2.100   7.266  18.422  0.00  0.00    +0.000 A 
ATOM      9  C   UNL     1       2.601   6.054  17.941  0.00  0.00    +0.000 A 
ATOM     10  C   UNL     1       2.777   4.947  18.798  0.00  0.00    +0.000 A 
ENDROOT
BRANCH   7  11
ATOM     11  C   UNL     1       1.259   8.697  20.298  0.00  0.00    +0.000 A 
ATOM     12  C   UNL     1       0.950   9.787  19.507  0.00  0.00    +0.000 A 
ATOM     13  N   UNL     1       0.450  10.958  19.962  0.00  0.00    +0.000 NA
ATOM     14  C   UNL     1       0.230  11.073  21.280  0.00  0.00    +0.000 A 
ATOM     15  N   UNL     1      -0.268  12.257  21.781  0.00  0.00    +0.000 N 
ATOM     16  C   UNL     1      -0.976  12.239  23.052  0.00  0.00    +0.000 C 
ATOM     17  C   UNL     1      -2.477  12.502  22.906  0.00  0.00    +0.000 C 
ATOM     18  C   UNL     1      -2.784  13.944  22.492  0.00  0.00    +0.000 C 
ATOM     19  N   UNL     1      -2.823  14.202  21.046  0.00  0.00    +0.000 NA
ATOM     20  C   UNL     1      -2.789  15.642  20.788  0.00  0.00    +0.000 C 
ATOM     21  C   UNL     1      -1.798  13.490  20.258  0.00  0.00    +0.000 C 
ATOM     22  C   UNL     1      -0.393  13.401  20.884  0.00  0.00    +0.000 C 
ATOM     23  N   UNL     1       0.511  10.080  22.136  0.00  0.00    +0.000 NA
ATOM     24  C   UNL     1       1.020   8.934  21.634  0.00  0.00    +0.000 A 
ENDBRANCH   7  11
BRANCH   1  25
ATOM     25  N   UNL     1       3.728   3.500  17.052  0.00  0.00    +0.000 N 
ATOM     26  H   UNL     1       3.219   2.774  16.561  0.00  0.00    +0.000 HD
BRANCH  25  30
ATOM     27  C   UNL     1       7.028   5.108  14.962  0.00  0.00    +0.000 A 
ATOM     28  C   UNL     1       6.270   4.066  14.422  0.00  0.00    +0.000 A 
ATOM     29  C   UNL     1       5.174   3.552  15.119  0.00  0.00    +0.000 A 
ATOM     30  C   UNL     1       4.825   4.052  16.375  0.00  0.00    +0.000 A 
ATOM     31  C   UNL     1       5.620   5.060  16.938  0.00  0.00    +0.000 A 
ATOM     32  C   UNL     1       6.709   5.586  16.240  0.00  0.00    +0.000 A 
ATOM     33 CL   UNL     1       7.619   6.855  16.983  0.00  0.00    +0.000 Cl
BRANCH  27  35
ATOM     34  C   UNL     1       8.108   5.472  12.903  0.00  0.00    +0.000 C 
ATOM     35  O   UNL     1       8.095   5.667  14.313  0.00  0.00    +0.000 OA
ENDBRANCH  27  35
ENDBRANCH  25  30
ENDBRANCH   1  25
TORSDOF 4
ENDMDL
MODEL 2
REMARK VINA RESULT:      -8.9      1.450      1.707
REMARK  Name = 
REMARK  6 active torsions:
REMARK  status: ('A' for Active; 'I' for Inactive)
REMARK    1  A    between atoms: C_1  and  O_2
REMARK    2  A    between atoms: O_2  and  C_3
REMARK    3  A    between atoms: C_6  and  N_7
REMARK    4  A    between atoms: N_7  and  C_8
REMARK    5  A    between atoms: C_14  and  C_15
REMARK    6  A    between atoms: N_23  and  C_24
REMARK                            x       y       z     vdW  Elec       q    Type
REMARK                         _______ _______ _______ _____ _____    ______ ____
ROOT
ATOM      1  C   UNL     1       3.064   3.607  19.035  0.00  0.00    +0.000 A 
ATOM      2  C   UNL     1       2.582   2.427  19.605  0.00  0.00    +0.000 A 
ATOM      3  C   UNL     1       1.597   2.509  20.562  0.00  0.00    +0.000 A 
ATOM      4  N   UNL     1       1.085   3.672  21.002  0.00  0.00    +0.000 NA
ATOM      5  C   UNL     1       1.551   4.814  20.470  0.00  0.00    +0.000 A 
ATOM      6  C   UNL     1       1.042   6.014  20.950  0.00  0.00    +0.000 A 
ATOM      7  C   UNL     1       1.452   7.272  20.469  0.00  0.00    +0.000 A 
ATOM      8  C   UNL     1       2.416   7.286  19.456  0.00  0.00    +0.000 A 
ATOM      9  C   UNL     1       2.957   6.096  18.966  0.00  0.00    +0.000 A 
ATOM     10  C   UNL     1       2.534   4.844  19.463  0.00  0.00    +0.000 A 
ENDROOT
BRANCH   7  11
ATOM     11  C   UNL     1       0.880   8.519  21.004  0.00  0.00    +0.000 A 
ATOM     12  C   UNL     1       1.028   9.755  20.403  0.00  0.00    +0.000 A 
ATOM     13  N   UNL     1       0.493  10.909  20.861  0.00  0.00    +0.000 NA
ATOM     14  C   UNL     1      -0.245  10.854  21.981  0.00  0.00    +0.000 A 
ATOM     15  N   UNL     1      -0.797  12.013  22.482  0.00  0.00    +0.000 N 
ATOM     16  C   UNL     1      -1.968  11.919  23.341  0.00  0.00    +0.000 C 
ATOM     17  C   UNL     1      -3.242  12.450  22.678  0.00  0.00    +0.000 C 
ATOM     18  C   UNL     1      -3.217  13.969  22.490  0.00  0.00    +0.000 C 
ATOM     19  N   UNL     1      -2.627  14.451  21.233  0.00  0.00    +0.000 NA
ATOM     20  C   UNL     1      -2.358  15.886  21.317  0.00  0.00    +0.000 C 
ATOM     21  C   UNL     1      -1.435  13.706  20.778  0.00  0.00    +0.000 C 
ATOM     22  C   UNL     1      -0.433  13.287  21.870  0.00  0.00    +0.000 C 
ATOM     23  N   UNL     1      -0.437   9.708  22.648  0.00  0.00    +0.000 NA
ATOM     24  C   UNL     1       0.128   8.584  22.157  0.00  0.00    +0.000 A 
ENDBRANCH   7  11
BRANCH   1  25
ATOM     25  N   UNL     1       4.093   3.547  18.072  0.00  0.00    +0.000 N 
ATOM     26  H   UNL     1       4.185   2.648  17.614  0.00  0.00    +0.000 HD
BRANCH  25  30
ATOM     27  C   UNL     1       7.033   6.417  17.094  0.00  0.00    +0.000 A 
ATOM     28  C   UNL     1       6.006   6.104  16.201  0.00  0.00    +0.000 A 
ATOM     29  C   UNL     1       5.033   5.161  16.542  0.00  0.00    +0.000 A 
ATOM     30  C   UNL     1       5.078   4.498  17.771  0.00  0.00    +0.000 A 
ATOM     31  C   UNL     1       6.141   4.775  18.642  0.00  0.00    +0.000 A 
ATOM     32  C   UNL     1       7.108   5.726  18.310  0.00  0.00    +0.000 A 
ATOM     33 CL   UNL     1       8.367   6.042  19.453  0.00  0.00    +0.000 Cl
BRANCH  27  35
ATOM     34  C   UNL     1       7.862   8.576  17.534  0.00  0.00    +0.000 C 
ATOM     35  O   UNL     1       7.997   7.350  16.823  0.00  0.00    +0.000 OA
ENDBRANCH  27  35
ENDBRANCH  25  30
ENDBRANCH   1  25
TORSDOF 4
ENDMDL
MODEL 3
REMARK VINA RESULT:      -8.8      1.134      1.745
REMARK  Name = 
REMARK  6 active torsions:
REMARK  status: ('A' for Active; 'I' for Inactive)
REMARK    1  A    between atoms: C_1  and  O_2
REMARK    2  A    between atoms: O_2  and  C_3
REMARK    3  A    between atoms: C_6  and  N_7
REMARK    4  A    between atoms: N_7  and  C_8
REMARK    5  A    between atoms: C_14  and  C_15
REMARK    6  A    between atoms: N_23  and  C_24
REMARK                            x       y       z     vdW  Elec       q    Type
REMARK                         _______ _______ _______ _____ _____    ______ ____
ROOT
ATOM      1  C   UNL     1       3.128   3.954  18.727  0.00  0.00    +0.000 A 
ATOM      2  C   UNL     1       3.188   3.053  19.792  0.00  0.00    +0.000 A 
ATOM      3  C   UNL     1       2.722   3.452  21.023  0.00  0.00    +0.000 A 
ATOM      4  N   UNL     1       2.229   4.680  21.268  0.00  0.00    +0.000 NA
ATOM      5  C   UNL     1       2.179   5.559  20.253  0.00  0.00    +0.000 A 
ATOM      6  C   UNL     1       1.699   6.835  20.518  0.00  0.00    +0.000 A 
ATOM      7  C   UNL     1       1.599   7.839  19.536  0.00  0.00    +0.000 A 
ATOM      8  C   UNL     1       2.003   7.508  18.240  0.00  0.00    +0.000 A 
ATOM      9  C   UNL     1       2.505   6.238  17.948  0.00  0.00    +0.000 A 
ATOM     10  C   UNL     1       2.600   5.245  18.947  0.00  0.00    +0.000 A 
ENDROOT
BRANCH   7  11
ATOM     11  C   UNL     1       1.078   9.178  19.862  0.00  0.00    +0.000 A 
ATOM     12  C   UNL     1       0.117   9.419  20.825  0.00  0.00    +0.000 A 
ATOM     13  N   UNL     1      -0.359  10.640  21.158  0.00  0.00    +0.000 NA
ATOM     14  C   UNL     1       0.142  11.703  20.510  0.00  0.00    +0.000 A 
ATOM     15  N   UNL     1      -0.328  12.962  20.816  0.00  0.00    +0.000 N 
ATOM     16  C   UNL     1       0.515  14.114  20.533  0.00  0.00    +0.000 C 
ATOM     17  C   UNL     1       1.052  14.790  21.798  0.00  0.00    +0.000 C 
ATOM     18  C   UNL     1      -0.046  15.499  22.596  0.00  0.00    +0.000 C 
ATOM     19  N   UNL     1      -0.744  14.680  23.596  0.00  0.00    +0.000 NA
ATOM     20  C   UNL     1      -1.963  15.354  24.042  0.00  0.00    +0.000 C 
ATOM     21  C   UNL     1      -1.018  13.289  23.182  0.00  0.00    +0.000 C 
ATOM     22  C   UNL     1      -1.466  13.086  21.722  0.00  0.00    +0.000 C 
ATOM     23  N   UNL     1       1.066  11.577  19.548  0.00  0.00    +0.000 NA
ATOM     24  C   UNL     1       1.501  10.335  19.243  0.00  0.00    +0.000 A 
ENDBRANCH   7  11
BRANCH   1  25
ATOM     25  N   UNL     1       3.626   3.575  17.463  0.00  0.00    +0.000 N 
ATOM     26  H   UNL     1       3.199   2.741  17.078  0.00  0.00    +0.000 HD
BRANCH  25  30
ATOM     27  C   UNL     1       6.882   5.109  15.252  0.00  0.00    +0.000 A 
ATOM     28  C   UNL     1       6.064   4.106  14.728  0.00  0.00    +0.000 A 
ATOM     29  C   UNL     1       4.983   3.616  15.466  0.00  0.00    +0.000 A 
ATOM     30  C   UNL     1       4.710   4.102  16.746  0.00  0.00    +0.000 A 
ATOM     31  C   UNL     1       5.567   5.070  17.290  0.00  0.00    +0.000 A 
ATOM     32  C   UNL     1       6.641   5.571  16.552  0.00  0.00    +0.000 A 
ATOM     33 CL   UNL     1       7.629   6.792  17.276  0.00  0.00    +0.000 Cl
BRANCH  27  35
ATOM     34  C   UNL     1       7.958   5.346  13.172  0.00  0.00    +0.000 C 
ATOM     35  O   UNL     1       7.938   5.643  14.564  0.00  0.00    +0.000 OA
ENDBRANCH  27  35
ENDBRANCH  25  30
ENDBRANCH   1  25
TORSDOF 4
ENDMDL
MODEL 4
REMARK VINA RESULT:      -8.7      4.910     11.590
REMARK  Name = 
REMARK  6 active torsions:
REMARK  status: ('A' for Active; 'I' for Inactive)
REMARK    1  A    between atoms: C_1  and  O_2
REMARK    2  A    between atoms: O_2  and  C_3
REMARK    3  A    between atoms: C_6  and  N_7
REMARK    4  A    between atoms: N_7  and  C_8
REMARK    5  A    between atoms: C_14  and  C_15
REMARK    6  A    between atoms: N_23  and  C_24
REMARK                            x       y       z     vdW  Elec       q    Type
REMARK                         _______ _______ _______ _____ _____    ______ ____
ROOT
ATOM      1  C   UNL     1      -1.422  13.985  20.566  0.00  0.00    +0.000 A 
ATOM      2  C   UNL     1      -1.058  15.166  19.917  0.00  0.00    +0.000 A 
ATOM      3  C   UNL     1      -0.063  15.121  18.969  0.00  0.00    +0.000 A 
ATOM      4  N   UNL     1       0.603  13.997  18.644  0.00  0.00    +0.000 NA
ATOM      5  C   UNL     1       0.270  12.857  19.272  0.00  0.00    +0.000 A 
ATOM      6  C   UNL     1       0.982  11.707  18.958  0.00  0.00    +0.000 A 
ATOM      7  C   UNL     1       0.723  10.456  19.549  0.00  0.00    +0.000 A 
ATOM      8  C   UNL     1      -0.308  10.395  20.491  0.00  0.00    +0.000 A 
ATOM      9  C   UNL     1      -1.029  11.539  20.838  0.00  0.00    +0.000 A 
ATOM     10  C   UNL     1      -0.754  12.785  20.236  0.00  0.00    +0.000 A 
ENDROOT
BRANCH   7  11
ATOM     11  C   UNL     1       1.500   9.260  19.180  0.00  0.00    +0.000 A 
ATOM     12  C   UNL     1       2.112   9.086  17.954  0.00  0.00    +0.000 A 
ATOM     13  N   UNL     1       2.850   8.009  17.601  0.00  0.00    +0.000 NA
ATOM     14  C   UNL     1       3.008   7.035  18.510  0.00  0.00    +0.000 A 
ATOM     15  N   UNL     1       3.745   5.918  18.181  0.00  0.00    +0.000 N 
ATOM     16  C   UNL     1       4.346   5.134  19.249  0.00  0.00    +0.000 C 
ATOM     17  C   UNL     1       5.872   5.246  19.290  0.00  0.00    +0.000 C 
ATOM     18  C   UNL     1       6.543   4.561  18.096  0.00  0.00    +0.000 C 
ATOM     19  N   UNL     1       6.734   5.395  16.902  0.00  0.00    +0.000 NA
ATOM     20  C   UNL     1       7.065   4.558  15.748  0.00  0.00    +0.000 C 
ATOM     21  C   UNL     1       5.619   6.314  16.598  0.00  0.00    +0.000 C 
ATOM     22  C   UNL     1       4.198   5.756  16.804  0.00  0.00    +0.000 C 
ATOM     23  N   UNL     1       2.442   7.099  19.724  0.00  0.00    +0.000 NA
ATOM     24  C   UNL     1       1.705   8.190  20.025  0.00  0.00    +0.000 A 
ENDBRANCH   7  11
BRANCH   1  25
ATOM     25  N   UNL     1      -2.420  14.014  21.562  0.00  0.00    +0.000 N 
ATOM     26  H   UNL     1      -2.102  14.351  22.463  0.00  0.00    +0.000 HD
BRANCH  25  30
ATOM     27  C   UNL     1      -6.368  12.527  21.342  0.00  0.00    +0.000 A 
ATOM     28  C   UNL     1      -5.626  12.777  20.186  0.00  0.00    +0.000 A 
ATOM     29  C   UNL     1      -4.317  13.258  20.273  0.00  0.00    +0.000 A 
ATOM     30  C   UNL     1      -3.731  13.517  21.514  0.00  0.00    +0.000 A 
ATOM     31  C   UNL     1      -4.497  13.317  22.671  0.00  0.00    +0.000 A 
ATOM     32  C   UNL     1      -5.801  12.825  22.588  0.00  0.00    +0.000 A 
ATOM     33 CL   UNL     1      -6.670  12.567  24.061  0.00  0.00    +0.000 Cl
BRANCH  27  35
ATOM     34  C   UNL     1      -7.774  10.744  20.726  0.00  0.00    +0.000 C 
ATOM     35  O   UNL     1      -7.643  12.033  21.316  0.00  0.00    +0.000 OA
ENDBRANCH  27  35
ENDBRANCH  25  30
ENDBRANCH   1  25
TORSDOF 4
ENDMDL
MODEL 5
REMARK VINA RESULT:      -8.7      1.352      2.069
REMARK  Name = 
REMARK  6 active torsions:
REMARK  status: ('A' for Active; 'I' for Inactive)
REMARK    1  A    between atoms: C_1  and  O_2
REMARK    2  A    between atoms: O_2  and  C_3
REMARK    3  A    between atoms: C_6  and  N_7
REMARK    4  A    between atoms: N_7  and  C_8
REMARK    5  A    between atoms: C_14  and  C_15
REMARK    6  A    between atoms: N_23  and  C_24
REMARK                            x       y       z     vdW  Elec       q    Type
REMARK                         _______ _______ _______ _____ _____    ______ ____
ROOT
ATOM      1  C   UNL     1       3.422   3.532  19.150  0.00  0.00    +0.000 A 
ATOM      2  C   UNL     1       3.261   2.721  20.275  0.00  0.00    +0.000 A 
ATOM      3  C   UNL     1       2.586   3.225  21.363  0.00  0.00    +0.000 A 
ATOM      4  N   UNL     1       2.088   4.474  21.414  0.00  0.00    +0.000 NA
ATOM      5  C   UNL     1       2.248   5.267  20.342  0.00  0.00    +0.000 A 
ATOM      6  C   UNL     1       1.760   6.565  20.411  0.00  0.00    +0.000 A 
ATOM      7  C   UNL     1       1.869   7.486  19.352  0.00  0.00    +0.000 A 
ATOM      8  C   UNL     1       2.497   7.046  18.183  0.00  0.00    +0.000 A 
ATOM      9  C   UNL     1       3.012   5.751  18.092  0.00  0.00    +0.000 A 
ATOM     10  C   UNL     1       2.895   4.842  19.166  0.00  0.00    +0.000 A 
ENDROOT
BRANCH   7  11
ATOM     11  C   UNL     1       1.331   8.853  19.468  0.00  0.00    +0.000 A 
ATOM     12  C   UNL     1       0.884   9.408  20.651  0.00  0.00    +0.000 A 
ATOM     13  N   UNL     1       0.410  10.666  20.787  0.00  0.00    +0.000 NA
ATOM     14  C   UNL     1       0.374  11.442  19.693  0.00  0.00    +0.000 A 
ATOM     15  N   UNL     1      -0.114  12.727  19.792  0.00  0.00    +0.000 N 
ATOM     16  C   UNL     1       0.299  13.713  18.806  0.00  0.00    +0.000 C 
ATOM     17  C   UNL     1       1.226  14.788  19.382  0.00  0.00    +0.000 C 
ATOM     18  C   UNL     1       0.504  15.725  20.355  0.00  0.00    +0.000 C 
ATOM     19  N   UNL     1       0.485  15.299  21.762  0.00  0.00    +0.000 NA
ATOM     20  C   UNL     1      -0.496  16.080  22.514  0.00  0.00    +0.000 C 
ATOM     21  C   UNL     1       0.295  13.850  21.972  0.00  0.00    +0.000 C 
ATOM     22  C   UNL     1      -0.722  13.152  21.049  0.00  0.00    +0.000 C 
ATOM     23  N   UNL     1       0.770  10.994  18.493  0.00  0.00    +0.000 NA
ATOM     24  C   UNL     1       1.225   9.726  18.406  0.00  0.00    +0.000 A 
ENDBRANCH   7  11
BRANCH   1  25
ATOM     25  N   UNL     1       4.135   3.045  18.035  0.00  0.00    +0.000 N 
ATOM     26  H   UNL     1       4.034   2.050  17.876  0.00  0.00    +0.000 HD
BRANCH  25  30
ATOM     27  C   UNL     1       6.907   5.002  15.519  0.00  0.00    +0.000 A 
ATOM     28  C   UNL     1       6.088   3.980  15.033  0.00  0.00    +0.000 A 
ATOM     29  C   UNL     1       5.168   3.349  15.873  0.00  0.00    +0.000 A 
ATOM     30  C   UNL     1       5.060   3.712  17.218  0.00  0.00    +0.000 A 
ATOM     31  C   UNL     1       5.921   4.699  17.715  0.00  0.00    +0.000 A 
ATOM     32  C   UNL     1       6.834   5.341  16.876  0.00  0.00    +0.000 A 
ATOM     33 CL   UNL     1       7.836   6.577  17.554  0.00  0.00    +0.000 Cl
BRANCH  27  35
ATOM     34  C   UNL     1       7.812   5.285  13.365  0.00  0.00    +0.000 C 
ATOM     35  O   UNL     1       7.808   5.670  14.735  0.00  0.00    +0.000 OA
ENDBRANCH  27  35
ENDBRANCH  25  30
ENDBRANCH   1  25
TORSDOF 4
ENDMDL
MODEL 6
REMARK VINA RESULT:      -8.6      2.082      2.780
REMARK  Name = 
REMARK  6 active torsions:
REMARK  status: ('A' for Active; 'I' for Inactive)
REMARK    1  A    between atoms: C_1  and  O_2
REMARK    2  A    between atoms: O_2  and  C_3
REMARK    3  A    between atoms: C_6  and  N_7
REMARK    4  A    between atoms: N_7  and  C_8
REMARK    5  A    between atoms: C_14  and  C_15
REMARK    6  A    between atoms: N_23  and  C_24
REMARK                            x       y       z     vdW  Elec       q    Type
REMARK                         _______ _______ _______ _____ _____    ______ ____
ROOT
ATOM      1  C   UNL     1       4.289   3.718  17.383  0.00  0.00    +0.000 A 
ATOM      2  C   UNL     1       3.549   2.570  17.675  0.00  0.00    +0.000 A 
ATOM      3  C   UNL     1       2.292   2.712  18.214  0.00  0.00    +0.000 A 
ATOM      4  N   UNL     1       1.737   3.905  18.499  0.00  0.00    +0.000 NA
ATOM      5  C   UNL     1       2.445   5.015  18.235  0.00  0.00    +0.000 A 
ATOM      6  C   UNL     1       1.882   6.242  18.561  0.00  0.00    +0.000 A 
ATOM      7  C   UNL     1       2.527   7.471  18.330  0.00  0.00    +0.000 A 
ATOM      8  C   UNL     1       3.793   7.428  17.738  0.00  0.00    +0.000 A 
ATOM      9  C   UNL     1       4.390   6.208  17.414  0.00  0.00    +0.000 A 
ATOM     10  C   UNL     1       3.728   4.985  17.656  0.00  0.00    +0.000 A 
ENDROOT
BRANCH   7  11
ATOM     11  C   UNL     1       1.889   8.750  18.687  0.00  0.00    +0.000 A 
ATOM     12  C   UNL     1       1.033   8.911  19.760  0.00  0.00    +0.000 A 
ATOM     13  N   UNL     1       0.455  10.079  20.122  0.00  0.00    +0.000 NA
ATOM     14  C   UNL     1       0.735  11.168  19.390  0.00  0.00    +0.000 A 
ATOM     15  N   UNL     1       0.155  12.373  19.724  0.00  0.00    +0.000 N 
ATOM     16  C   UNL     1       0.806  13.605  19.307  0.00  0.00    +0.000 C 
ATOM     17  C   UNL     1       1.409  14.390  20.476  0.00  0.00    +0.000 C 
ATOM     18  C   UNL     1       0.340  14.994  21.391  0.00  0.00    +0.000 C 
ATOM     19  N   UNL     1      -0.120  14.136  22.493  0.00  0.00    +0.000 NA
ATOM     20  C   UNL     1      -1.349  14.676  23.075  0.00  0.00    +0.000 C 
ATOM     21  C   UNL     1      -0.270  12.708  22.150  0.00  0.00    +0.000 C 
ATOM     22  C   UNL     1      -0.867  12.395  20.765  0.00  0.00    +0.000 C 
ATOM     23  N   UNL     1       1.541  11.115  18.320  0.00  0.00    +0.000 NA
ATOM     24  C   UNL     1       2.085   9.924  17.992  0.00  0.00    +0.000 A 
ENDBRANCH   7  11
BRANCH   1  25
ATOM     25  N   UNL     1       5.592   3.594  16.857  0.00  0.00    +0.000 N 
ATOM     26  H   UNL     1       6.297   3.349  17.541  0.00  0.00    +0.000 HD
BRANCH  25  30
ATOM     27  C   UNL     1       7.040   4.562  13.009  0.00  0.00    +0.000 A 
ATOM     28  C   UNL     1       7.631   5.094  14.157  0.00  0.00    +0.000 A 
ATOM     29  C   UNL     1       7.150   4.756  15.424  0.00  0.00    +0.000 A 
ATOM     30  C   UNL     1       6.057   3.898  15.569  0.00  0.00    +0.000 A 
ATOM     31  C   UNL     1       5.432   3.409  14.414  0.00  0.00    +0.000 A 
ATOM     32  C   UNL     1       5.918   3.735  13.146  0.00  0.00    +0.000 A 
ATOM     33 CL   UNL     1       5.117   3.062  11.768  0.00  0.00    +0.000 Cl
BRANCH  27  35
ATOM     34  C   UNL     1       7.986   6.158  11.562  0.00  0.00    +0.000 C 
ATOM     35  O   UNL     1       7.486   4.838  11.745  0.00  0.00    +0.000 OA
ENDBRANCH  27  35
ENDBRANCH  25  30
ENDBRANCH   1  25
TORSDOF 4
ENDMDL
MODEL 7
REMARK VINA RESULT:      -8.6      1.715      2.357
REMARK  Name = 
REMARK  6 active torsions:
REMARK  status: ('A' for Active; 'I' for Inactive)
REMARK    1  A    between atoms: C_1  and  O_2
REMARK    2  A    between atoms: O_2  and  C_3
REMARK    3  A    between atoms: C_6  and  N_7
REMARK    4  A    between atoms: N_7  and  C_8
REMARK    5  A    between atoms: C_14  and  C_15
REMARK    6  A    between atoms: N_23  and  C_24
REMARK                            x       y       z     vdW  Elec       q    Type
REMARK                         _______ _______ _______ _____ _____    ______ ____
ROOT
ATOM      1  C   UNL     1       5.041   4.388  18.471  0.00  0.00    +0.000 A 
ATOM      2  C   UNL     1       4.832   3.263  19.272  0.00  0.00    +0.000 A 
ATOM      3  C   UNL     1       3.768   3.261  20.145  0.00  0.00    +0.000 A 
ATOM      4  N   UNL     1       2.925   4.299  20.290  0.00  0.00    +0.000 NA
ATOM      5  C   UNL     1       3.125   5.392  19.534  0.00  0.00    +0.000 A 
ATOM      6  C   UNL     1       2.272   6.473  19.710  0.00  0.00    +0.000 A 
ATOM      7  C   UNL     1       2.383   7.669  18.976  0.00  0.00    +0.000 A 
ATOM      8  C   UNL     1       3.407   7.744  18.027  0.00  0.00    +0.000 A 
ATOM      9  C   UNL     1       4.290   6.679  17.840  0.00  0.00    +0.000 A 
ATOM     10  C   UNL     1       4.164   5.488  18.588  0.00  0.00    +0.000 A 
ENDROOT
BRANCH   7  11
ATOM     11  C   UNL     1       1.451   8.789  19.192  0.00  0.00    +0.000 A 
ATOM     12  C   UNL     1       0.926   9.128  20.424  0.00  0.00    +0.000 A 
ATOM     13  N   UNL     1       0.089  10.165  20.651  0.00  0.00    +0.000 NA
ATOM     14  C   UNL     1      -0.257  10.930  19.604  0.00  0.00    +0.000 A 
ATOM     15  N   UNL     1      -1.117  11.990  19.797  0.00  0.00    +0.000 N 
ATOM     16  C   UNL     1      -1.096  13.092  18.849  0.00  0.00    +0.000 C 
ATOM     17  C   UNL     1      -0.522  14.383  19.440  0.00  0.00    +0.000 C 
ATOM     18  C   UNL     1      -1.440  15.005  20.496  0.00  0.00    +0.000 C 
ATOM     19  N   UNL     1      -1.237  14.542  21.876  0.00  0.00    +0.000 NA
ATOM     20  C   UNL     1      -2.367  14.943  22.715  0.00  0.00    +0.000 C 
ATOM     21  C   UNL     1      -0.949  13.100  22.014  0.00  0.00    +0.000 C 
ATOM     22  C   UNL     1      -1.750  12.152  21.102  0.00  0.00    +0.000 C 
ATOM     23  N   UNL     1       0.185  10.677  18.364  0.00  0.00    +0.000 NA
ATOM     24  C   UNL     1       1.010   9.623  18.187  0.00  0.00    +0.000 A 
ENDBRANCH   7  11
BRANCH   1  25
ATOM     25  N   UNL     1       6.143   4.422  17.590  0.00  0.00    +0.000 N 
ATOM     26  H   UNL     1       7.017   4.693  18.025  0.00  0.00    +0.000 HD
BRANCH  25  30
ATOM     27  C   UNL     1       6.154   3.919  13.397  0.00  0.00    +0.000 A 
ATOM     28  C   UNL     1       5.232   3.246  14.201  0.00  0.00    +0.000 A 
ATOM     29  C   UNL     1       5.232   3.431  15.586  0.00  0.00    +0.000 A 
ATOM     30  C   UNL     1       6.163   4.274  16.196  0.00  0.00    +0.000 A 
ATOM     31  C   UNL     1       7.122   4.906  15.391  0.00  0.00    +0.000 A 
ATOM     32  C   UNL     1       7.118   4.734  14.006  0.00  0.00    +0.000 A 
ATOM     33 CL   UNL     1       8.307   5.576  13.076  0.00  0.00    +0.000 Cl
BRANCH  27  35
ATOM     34  C   UNL     1       5.085   3.085  11.474  0.00  0.00    +0.000 C 
ATOM     35  O   UNL     1       6.184   3.795  12.034  0.00  0.00    +0.000 OA
ENDBRANCH  27  35
ENDBRANCH  25  30
ENDBRANCH   1  25
TORSDOF 4
ENDMDL
MODEL 8
REMARK VINA RESULT:      -8.6      1.080      1.184
REMARK  Name = 
REMARK  6 active torsions:
REMARK  status: ('A' for Active; 'I' for Inactive)
REMARK    1  A    between atoms: C_1  and  O_2
REMARK    2  A    between atoms: O_2  and  C_3
REMARK    3  A    between atoms: C_6  and  N_7
REMARK    4  A    between atoms: N_7  and  C_8
REMARK    5  A    between atoms: C_14  and  C_15
REMARK    6  A    between atoms: N_23  and  C_24
REMARK                            x       y       z     vdW  Elec       q    Type
REMARK                         _______ _______ _______ _____ _____    ______ ____
ROOT
ATOM      1  C   UNL     1       3.482   3.493  19.668  0.00  0.00    +0.000 A 
ATOM      2  C   UNL     1       2.808   2.346  20.090  0.00  0.00    +0.000 A 
ATOM      3  C   UNL     1       1.590   2.486  20.714  0.00  0.00    +0.000 A 
ATOM      4  N   UNL     1       1.016   3.677  20.962  0.00  0.00    +0.000 NA
ATOM      5  C   UNL     1       1.661   4.788  20.571  0.00  0.00    +0.000 A 
ATOM      6  C   UNL     1       1.081   6.017  20.858  0.00  0.00    +0.000 A 
ATOM      7  C   UNL     1       1.663   7.246  20.498  0.00  0.00    +0.000 A 
ATOM      8  C   UNL     1       2.882   7.202  19.814  0.00  0.00    +0.000 A 
ATOM      9  C   UNL     1       3.497   5.981  19.527  0.00  0.00    +0.000 A 
ATOM     10  C   UNL     1       2.898   4.758  19.899  0.00  0.00    +0.000 A 
ENDROOT
BRANCH   7  11
ATOM     11  C   UNL     1       1.008   8.526  20.818  0.00  0.00    +0.000 A 
ATOM     12  C   UNL     1       0.325   9.295  19.895  0.00  0.00    +0.000 A 
ATOM     13  N   UNL     1      -0.304  10.460  20.170  0.00  0.00    +0.000 NA
ATOM     14  C   UNL     1      -0.272  10.904  21.436  0.00  0.00    +0.000 A 
ATOM     15  N   UNL     1      -0.895  12.093  21.750  0.00  0.00    +0.000 N 
ATOM     16  C   UNL     1      -1.311  12.326  23.125  0.00  0.00    +0.000 C 
ATOM     17  C   UNL     1      -2.832  12.313  23.301  0.00  0.00    +0.000 C 
ATOM     18  C   UNL     1      -3.509  13.521  22.648  0.00  0.00    +0.000 C 
ATOM     19  N   UNL     1      -3.892  13.358  21.239  0.00  0.00    +0.000 NA
ATOM     20  C   UNL     1      -4.211  14.658  20.647  0.00  0.00    +0.000 C 
ATOM     21  C   UNL     1      -2.922  12.614  20.411  0.00  0.00    +0.000 C 
ATOM     22  C   UNL     1      -1.433  12.911  20.668  0.00  0.00    +0.000 C 
ATOM     23  N   UNL     1       0.376  10.240  22.404  0.00  0.00    +0.000 NA
ATOM     24  C   UNL     1       0.999   9.088  22.077  0.00  0.00    +0.000 A 
ENDBRANCH   7  11
BRANCH   1  25
ATOM     25  N   UNL     1       4.746   3.374  19.052  0.00  0.00    +0.000 N 
ATOM     26  H   UNL     1       5.422   2.842  19.587  0.00  0.00    +0.000 HD
BRANCH  25  30
ATOM     27  C   UNL     1       6.163   5.196  15.516  0.00  0.00    +0.000 A 
ATOM     28  C   UNL     1       5.304   4.096  15.466  0.00  0.00    +0.000 A 
ATOM     29  C   UNL     1       4.834   3.510  16.643  0.00  0.00    +0.000 A 
ATOM     30  C   UNL     1       5.226   3.998  17.892  0.00  0.00    +0.000 A 
ATOM     31  C   UNL     1       6.131   5.067  17.938  0.00  0.00    +0.000 A 
ATOM     32  C   UNL     1       6.594   5.664  16.764  0.00  0.00    +0.000 A 
ATOM     33 CL   UNL     1       7.678   7.004  16.902  0.00  0.00    +0.000 Cl
BRANCH  27  35
ATOM     34  C   UNL     1       7.493   5.033  13.581  0.00  0.00    +0.000 C 
ATOM     35  O   UNL     1       6.634   5.825  14.395  0.00  0.00    +0.000 OA
ENDBRANCH  27  35
ENDBRANCH  25  30
ENDBRANCH   1  25
TORSDOF 4
ENDMDL
MODEL 9
REMARK VINA RESULT:      -8.6      1.562      1.949
REMARK  Name = 
REMARK  6 active torsions:
REMARK  status: ('A' for Active; 'I' for Inactive)
REMARK    1  A    between atoms: C_1  and  O_2
REMARK    2  A    between atoms: O_2  and  C_3
REMARK    3  A    between atoms: C_6  and  N_7
REMARK    4  A    between atoms: N_7  and  C_8
REMARK    5  A    between atoms: C_14  and  C_15
REMARK    6  A    between atoms: N_23  and  C_24
REMARK                            x       y       z     vdW  Elec       q    Type
REMARK                         _______ _______ _______ _____ _____    ______ ____
ROOT
ATOM      1  C   UNL     1       3.483   3.516  19.576  0.00  0.00    +0.000 A 
ATOM      2  C   UNL     1       3.001   2.379  20.228  0.00  0.00    +0.000 A 
ATOM      3  C   UNL     1       1.940   2.513  21.094  0.00  0.00    +0.000 A 
ATOM      4  N   UNL     1       1.350   3.691  21.369  0.00  0.00    +0.000 NA
ATOM      5  C   UNL     1       1.815   4.793  20.757  0.00  0.00    +0.000 A 
ATOM      6  C   UNL     1       1.224   6.010  21.069  0.00  0.00    +0.000 A 
ATOM      7  C   UNL     1       1.625   7.230  20.491  0.00  0.00    +0.000 A 
ATOM      8  C   UNL     1       2.665   7.186  19.559  0.00  0.00    +0.000 A 
ATOM      9  C   UNL     1       3.289   5.978  19.239  0.00  0.00    +0.000 A 
ATOM     10  C   UNL     1       2.874   4.765  19.830  0.00  0.00    +0.000 A 
ENDROOT
BRANCH   7  11
ATOM     11  C   UNL     1       0.965   8.498  20.847  0.00  0.00    +0.000 A 
ATOM     12  C   UNL     1       0.321   9.315  19.937  0.00  0.00    +0.000 A 
ATOM     13  N   UNL     1      -0.312  10.470  20.244  0.00  0.00    +0.000 NA
ATOM     14  C   UNL     1      -0.323  10.853  21.529  0.00  0.00    +0.000 A 
ATOM     15  N   UNL     1      -0.950  12.031  21.876  0.00  0.00    +0.000 N 
ATOM     16  C   UNL     1      -1.416  12.202  23.244  0.00  0.00    +0.000 C 
ATOM     17  C   UNL     1      -2.942  12.192  23.364  0.00  0.00    +0.000 C 
ATOM     18  C   UNL     1      -3.588  13.435  22.744  0.00  0.00    +0.000 C 
ATOM     19  N   UNL     1      -3.920  13.340  21.316  0.00  0.00    +0.000 NA
ATOM     20  C   UNL     1      -4.210  14.669  20.775  0.00  0.00    +0.000 C 
ATOM     21  C   UNL     1      -2.925  12.629  20.490  0.00  0.00    +0.000 C 
ATOM     22  C   UNL     1      -1.444  12.903  20.815  0.00  0.00    +0.000 C 
ATOM     23  N   UNL     1       0.285  10.141  22.488  0.00  0.00    +0.000 NA
ATOM     24  C   UNL     1       0.914   9.001  22.130  0.00  0.00    +0.000 A 
ENDBRANCH   7  11
BRANCH   1  25
ATOM     25  N   UNL     1       4.588   3.406  18.706  0.00  0.00    +0.000 N 
ATOM     26  H   UNL     1       4.874   2.454  18.514  0.00  0.00    +0.000 HD
BRANCH  25  30
ATOM     27  C   UNL     1       7.114   6.454  17.235  0.00  0.00    +0.000 A 
ATOM     28  C   UNL     1       7.356   5.851  18.471  0.00  0.00    +0.000 A 
ATOM     29  C   UNL     1       6.519   4.835  18.940  0.00  0.00    +0.000 A 
ATOM     30  C   UNL     1       5.414   4.417  18.195  0.00  0.00    +0.000 A 
ATOM     31  C   UNL     1       5.143   5.063  16.981  0.00  0.00    +0.000 A 
ATOM     32  C   UNL     1       5.984   6.070  16.503  0.00  0.00    +0.000 A 
ATOM     33 CL   UNL     1       5.605   6.793  14.978  0.00  0.00    +0.000 Cl
BRANCH  27  35
ATOM     34  C   UNL     1       8.038   8.599  17.526  0.00  0.00    +0.000 C 
ATOM     35  O   UNL     1       7.915   7.435  16.716  0.00  0.00    +0.000 OA
ENDBRANCH  27  35
ENDBRANCH  25  30
ENDBRANCH   1  25
TORSDOF 4
ENDMDL
