MODEL 1
REMARK VINA RESULT:      -5.5      0.000      0.000
REMARK  Name = 
REMARK  5 active torsions:
REMARK  status: ('A' for Active; 'I' for Inactive)
REMARK    1  A    between atoms: C_1  and  S_2
REMARK    2  A    between atoms: S_2  and  C_4
REMARK    3  A    between atoms: C_4  and  C_5
REMARK    4  A    between atoms: C_7  and  C_8
REMARK    5  A    between atoms: C_8  and  O_10
REMARK                            x       y       z     vdW  Elec       q    Type
REMARK                         _______ _______ _______ _____ _____    ______ ____
ROOT
ATOM      1  C   UNL     1       3.789   3.895  18.172  0.00  0.00    +0.000 A 
ATOM      2  C   UNL     1       4.776   4.556  17.396  0.00  0.00    +0.000 A 
ATOM      3  C   UNL     1       5.979   4.300  18.026  0.00  0.00    +0.000 A 
ATOM      4  N   UNL     1       5.649   3.541  19.118  0.00  0.00    +0.000 N 
ATOM      5  N   UNL     1       4.338   3.268  19.218  0.00  0.00    +0.000 NA
ATOM      6  H   UNL     1       6.284   3.174  19.822  0.00  0.00    +0.000 HD
ENDROOT
BRANCH   3   7
ATOM      7  C   UNL     1       7.348   4.647  17.770  0.00  0.00    +0.000 C 
ATOM      8  O   UNL     1       7.899   4.505  16.689  0.00  0.00    +0.000 OA
BRANCH   7   9
ATOM      9  O   UNL     1       7.983   5.159  18.847  0.00  0.00    +0.000 OA
ATOM     10  H   UNL     1       8.785   4.680  19.111  0.00  0.00    +0.000 HD
ENDBRANCH   7   9
ENDBRANCH   3   7
BRANCH   1  11
ATOM     11  C   UNL     1       2.317   3.825  17.938  0.00  0.00    +0.000 C 
BRANCH  11  13
ATOM     12  C   UNL     1       0.994   4.016  20.303  0.00  0.00    +0.000 C 
ATOM     13  S   UNL     1       1.501   2.726  19.141  0.00  0.00    +0.000 S 
ATOM     14  O   UNL     1       0.205   2.150  18.467  0.00  0.00    +0.000 OA
ENDBRANCH  11  13
ENDBRANCH   1  11
TORSDOF 4
ENDMDL
MODEL 2
REMARK VINA RESULT:      -5.4      1.267      1.424
REMARK  Name = 
REMARK  5 active torsions:
REMARK  status: ('A' for Active; 'I' for Inactive)
REMARK    1  A    between atoms: C_1  and  S_2
REMARK    2  A    between atoms: S_2  and  C_4
REMARK    3  A    between atoms: C_4  and  C_5
REMARK    4  A    between atoms: C_7  and  C_8
REMARK    5  A    between atoms: C_8  and  O_10
REMARK                            x       y       z     vdW  Elec       q    Type
REMARK                         _______ _______ _______ _____ _____    ______ ____
ROOT
ATOM      1  C   UNL     1       4.233   4.507  18.888  0.00  0.00    +0.000 A 
ATOM      2  C   UNL     1       4.746   5.344  17.863  0.00  0.00    +0.000 A 
ATOM      3  C   UNL     1       6.078   5.001  17.734  0.00  0.00    +0.000 A 
ATOM      4  N   UNL     1       6.282   4.023  18.672  0.00  0.00    +0.000 N 
ATOM      5  N   UNL     1       5.181   3.695  19.367  0.00  0.00    +0.000 NA
ATOM      6  H   UNL     1       7.153   3.538  18.871  0.00  0.00    +0.000 HD
ENDROOT
BRANCH   3   7
ATOM      7  C   UNL     1       7.157   5.436  16.892  0.00  0.00    +0.000 C 
ATOM      8  O   UNL     1       7.423   6.606  16.669  0.00  0.00    +0.000 OA
BRANCH   7   9
ATOM      9  O   UNL     1       7.868   4.416  16.362  0.00  0.00    +0.000 OA
ATOM     10  H   UNL     1       7.359   3.824  15.785  0.00  0.00    +0.000 HD
ENDBRANCH   7   9
ENDBRANCH   3   7
BRANCH   1  11
ATOM     11  C   UNL     1       2.842   4.441  19.423  0.00  0.00    +0.000 C 
BRANCH  11  13
ATOM     12  C   UNL     1       1.588   2.944  21.312  0.00  0.00    +0.000 C 
ATOM     13  S   UNL     1       2.300   2.718  19.665  0.00  0.00    +0.000 S 
ATOM     14  O   UNL     1       1.120   2.438  18.666  0.00  0.00    +0.000 OA
ENDBRANCH  11  13
ENDBRANCH   1  11
TORSDOF 4
ENDMDL
MODEL 3
REMARK VINA RESULT:      -5.4      1.917      2.220
REMARK  Name = 
REMARK  5 active torsions:
REMARK  status: ('A' for Active; 'I' for Inactive)
REMARK    1  A    between atoms: C_1  and  S_2
REMARK    2  A    between atoms: S_2  and  C_4
REMARK    3  A    between atoms: C_4  and  C_5
REMARK    4  A    between atoms: C_7  and  C_8
REMARK    5  A    between atoms: C_8  and  O_10
REMARK                            x       y       z     vdW  Elec       q    Type
REMARK                         _______ _______ _______ _____ _____    ______ ____
ROOT
ATOM      1  C   UNL     1       4.505   4.158  18.415  0.00  0.00    +0.000 A 
ATOM      2  C   UNL     1       4.594   4.384  17.017  0.00  0.00    +0.000 A 
ATOM      3  C   UNL     1       5.944   4.378  16.723  0.00  0.00    +0.000 A 
ATOM      4  N   UNL     1       6.565   4.174  17.928  0.00  0.00    +0.000 N 
ATOM      5  N   UNL     1       5.719   4.020  18.959  0.00  0.00    +0.000 NA
ATOM      6  H   UNL     1       7.566   4.120  18.099  0.00  0.00    +0.000 HD
ENDROOT
BRANCH   3   7
ATOM      7  C   UNL     1       6.719   4.529  15.524  0.00  0.00    +0.000 C 
ATOM      8  O   UNL     1       7.532   5.422  15.342  0.00  0.00    +0.000 OA
BRANCH   7   9
ATOM      9  O   UNL     1       6.467   3.576  14.600  0.00  0.00    +0.000 OA
ATOM     10  H   UNL     1       5.588   3.628  14.192  0.00  0.00    +0.000 HD
ENDBRANCH   7   9
ENDBRANCH   3   7
BRANCH   1  11
ATOM     11  C   UNL     1       3.282   4.049  19.262  0.00  0.00    +0.000 C 
BRANCH  11  13
ATOM     12  C   UNL     1       1.048   2.597  18.736  0.00  0.00    +0.000 C 
ATOM     13  S   UNL     1       2.710   2.324  19.393  0.00  0.00    +0.000 S 
ATOM     14  O   UNL     1       3.508   1.470  18.343  0.00  0.00    +0.000 OA
ENDBRANCH  11  13
ENDBRANCH   1  11
TORSDOF 4
ENDMDL
MODEL 4
REMARK VINA RESULT:      -5.4      1.558      1.698
REMARK  Name = 
REMARK  5 active torsions:
REMARK  status: ('A' for Active; 'I' for Inactive)
REMARK    1  A    between atoms: C_1  and  S_2
REMARK    2  A    between atoms: S_2  and  C_4
REMARK    3  A    between atoms: C_4  and  C_5
REMARK    4  A    between atoms: C_7  and  C_8
REMARK    5  A    between atoms: C_8  and  O_10
REMARK                            x       y       z     vdW  Elec       q    Type
REMARK                         _______ _______ _______ _____ _____    ______ ____
ROOT
ATOM      1  C   UNL     1       4.099   3.491  18.684  0.00  0.00    +0.000 A 
ATOM      2  C   UNL     1       4.391   4.106  17.438  0.00  0.00    +0.000 A 
ATOM      3  C   UNL     1       5.732   4.436  17.491  0.00  0.00    +0.000 A 
ATOM      4  N   UNL     1       6.146   4.029  18.733  0.00  0.00    +0.000 N 
ATOM      5  N   UNL     1       5.184   3.440  19.463  0.00  0.00    +0.000 NA
ATOM      6  H   UNL     1       7.078   4.119  19.127  0.00  0.00    +0.000 HD
ENDROOT
BRANCH   3   7
ATOM      7  C   UNL     1       6.657   5.055  16.584  0.00  0.00    +0.000 C 
ATOM      8  O   UNL     1       6.399   6.039  15.909  0.00  0.00    +0.000 OA
BRANCH   7   9
ATOM      9  O   UNL     1       7.862   4.444  16.548  0.00  0.00    +0.000 OA
ATOM     10  H   UNL     1       7.838   3.489  16.723  0.00  0.00    +0.000 HD
ENDBRANCH   7   9
ENDBRANCH   3   7
BRANCH   1  11
ATOM     11  C   UNL     1       2.803   2.926  19.158  0.00  0.00    +0.000 C 
BRANCH  11  13
ATOM     12  C   UNL     1       2.083   5.103  20.616  0.00  0.00    +0.000 C 
ATOM     13  S   UNL     1       2.481   3.361  20.898  0.00  0.00    +0.000 S 
ATOM     14  O   UNL     1       1.161   2.632  21.342  0.00  0.00    +0.000 OA
ENDBRANCH  11  13
ENDBRANCH   1  11
TORSDOF 4
ENDMDL
MODEL 5
REMARK VINA RESULT:      -5.4      4.909      6.014
REMARK  Name = 
REMARK  5 active torsions:
REMARK  status: ('A' for Active; 'I' for Inactive)
REMARK    1  A    between atoms: C_1  and  S_2
REMARK    2  A    between atoms: S_2  and  C_4
REMARK    3  A    between atoms: C_4  and  C_5
REMARK    4  A    between atoms: C_7  and  C_8
REMARK    5  A    between atoms: C_8  and  O_10
REMARK                            x       y       z     vdW  Elec       q    Type
REMARK                         _______ _______ _______ _____ _____    ______ ____
ROOT
ATOM      1  C   UNL     1       6.956   4.777  15.487  0.00  0.00    +0.000 A 
ATOM      2  C   UNL     1       6.122   3.808  14.871  0.00  0.00    +0.000 A 
ATOM      3  C   UNL     1       6.348   3.931  13.514  0.00  0.00    +0.000 A 
ATOM      4  N   UNL     1       7.260   4.946  13.400  0.00  0.00    +0.000 N 
ATOM      5  N   UNL     1       7.656   5.460  14.576  0.00  0.00    +0.000 NA
ATOM      6  H   UNL     1       7.655   5.320  12.540  0.00  0.00    +0.000 HD
ENDROOT
BRANCH   3   7
ATOM      7  C   UNL     1       5.855   3.261  12.343  0.00  0.00    +0.000 C 
ATOM      8  O   UNL     1       4.751   3.455  11.858  0.00  0.00    +0.000 OA
BRANCH   7   9
ATOM      9  O   UNL     1       6.738   2.388  11.813  0.00  0.00    +0.000 OA
ATOM     10  H   UNL     1       7.066   1.716  12.433  0.00  0.00    +0.000 HD
ENDBRANCH   7   9
ENDBRANCH   3   7
BRANCH   1  11
ATOM     11  C   UNL     1       7.124   5.069  16.941  0.00  0.00    +0.000 C 
BRANCH  11  13
ATOM     12  C   UNL     1       7.625   7.662  17.576  0.00  0.00    +0.000 C 
ATOM     13  S   UNL     1       6.199   6.559  17.435  0.00  0.00    +0.000 S 
ATOM     14  O   UNL     1       5.347   7.029  16.202  0.00  0.00    +0.000 OA
ENDBRANCH  11  13
ENDBRANCH   1  11
TORSDOF 4
ENDMDL
MODEL 6
REMARK VINA RESULT:      -5.4      2.604      3.027
REMARK  Name = 
REMARK  5 active torsions:
REMARK  status: ('A' for Active; 'I' for Inactive)
REMARK    1  A    between atoms: C_1  and  S_2
REMARK    2  A    between atoms: S_2  and  C_4
REMARK    3  A    between atoms: C_4  and  C_5
REMARK    4  A    between atoms: C_7  and  C_8
REMARK    5  A    between atoms: C_8  and  O_10
REMARK                            x       y       z     vdW  Elec       q    Type
REMARK                         _______ _______ _______ _____ _____    ______ ____
ROOT
ATOM      1  C   UNL     1       5.740   4.329  18.049  0.00  0.00    +0.000 A 
ATOM      2  C   UNL     1       5.415   4.336  16.668  0.00  0.00    +0.000 A 
ATOM      3  C   UNL     1       6.615   4.506  16.004  0.00  0.00    +0.000 A 
ATOM      4  N   UNL     1       7.555   4.605  16.996  0.00  0.00    +0.000 N 
ATOM      5  N   UNL     1       7.055   4.483  18.236  0.00  0.00    +0.000 NA
ATOM      6  H   UNL     1       8.555   4.746  16.879  0.00  0.00    +0.000 HD
ENDROOT
BRANCH   3   7
ATOM      7  C   UNL     1       7.004   4.586  14.624  0.00  0.00    +0.000 C 
ATOM      8  O   UNL     1       7.730   5.454  14.167  0.00  0.00    +0.000 OA
BRANCH   7   9
ATOM      9  O   UNL     1       6.490   3.594  13.864  0.00  0.00    +0.000 OA
ATOM     10  H   UNL     1       6.507   3.765  12.908  0.00  0.00    +0.000 HD
ENDBRANCH   7   9
ENDBRANCH   3   7
BRANCH   1  11
ATOM     11  C   UNL     1       4.827   4.159  19.217  0.00  0.00    +0.000 C 
BRANCH  11  13
ATOM     12  C   UNL     1       3.533   1.829  18.690  0.00  0.00    +0.000 C 
ATOM     13  S   UNL     1       3.173   3.601  18.697  0.00  0.00    +0.000 S 
ATOM     14  O   UNL     1       2.174   3.885  19.876  0.00  0.00    +0.000 OA
ENDBRANCH  11  13
ENDBRANCH   1  11
TORSDOF 4
ENDMDL
MODEL 7
REMARK VINA RESULT:      -5.4      2.712      5.087
REMARK  Name = 
REMARK  5 active torsions:
REMARK  status: ('A' for Active; 'I' for Inactive)
REMARK    1  A    between atoms: C_1  and  S_2
REMARK    2  A    between atoms: S_2  and  C_4
REMARK    3  A    between atoms: C_4  and  C_5
REMARK    4  A    between atoms: C_7  and  C_8
REMARK    5  A    between atoms: C_8  and  O_10
REMARK                            x       y       z     vdW  Elec       q    Type
REMARK                         _______ _______ _______ _____ _____    ______ ____
ROOT
ATOM      1  C   UNL     1       5.068   4.902  18.176  0.00  0.00    +0.000 A 
ATOM      2  C   UNL     1       4.042   4.042  17.706  0.00  0.00    +0.000 A 
ATOM      3  C   UNL     1       4.075   2.935  18.531  0.00  0.00    +0.000 A 
ATOM      4  N   UNL     1       5.099   3.181  19.408  0.00  0.00    +0.000 N 
ATOM      5  N   UNL     1       5.701   4.368  19.226  0.00  0.00    +0.000 NA
ATOM      6  H   UNL     1       5.421   2.575  20.158  0.00  0.00    +0.000 HD
ENDROOT
BRANCH   3   7
ATOM      7  C   UNL     1       3.317   1.719  18.623  0.00  0.00    +0.000 C 
ATOM      8  O   UNL     1       2.130   1.673  18.907  0.00  0.00    +0.000 OA
BRANCH   7   9
ATOM      9  O   UNL     1       4.044   0.613  18.355  0.00  0.00    +0.000 OA
ATOM     10  H   UNL     1       3.552  -0.222  18.421  0.00  0.00    +0.000 HD
ENDBRANCH   7   9
ENDBRANCH   3   7
BRANCH   1  11
ATOM     11  C   UNL     1       5.463   6.246  17.662  0.00  0.00    +0.000 C 
BRANCH  11  13
ATOM     12  C   UNL     1       7.984   6.908  18.428  0.00  0.00    +0.000 C 
ATOM     13  S   UNL     1       7.150   6.229  16.974  0.00  0.00    +0.000 S 
ATOM     14  O   UNL     1       7.594   4.730  16.820  0.00  0.00    +0.000 OA
ENDBRANCH  11  13
ENDBRANCH   1  11
TORSDOF 4
ENDMDL
MODEL 8
REMARK VINA RESULT:      -5.3      1.474      1.599
REMARK  Name = 
REMARK  5 active torsions:
REMARK  status: ('A' for Active; 'I' for Inactive)
REMARK    1  A    between atoms: C_1  and  S_2
REMARK    2  A    between atoms: S_2  and  C_4
REMARK    3  A    between atoms: C_4  and  C_5
REMARK    4  A    between atoms: C_7  and  C_8
REMARK    5  A    between atoms: C_8  and  O_10
REMARK                            x       y       z     vdW  Elec       q    Type
REMARK                         _______ _______ _______ _____ _____    ______ ____
ROOT
ATOM      1  C   UNL     1       4.063   3.214  18.368  0.00  0.00    +0.000 A 
ATOM      2  C   UNL     1       4.533   3.832  17.180  0.00  0.00    +0.000 A 
ATOM      3  C   UNL     1       5.774   4.350  17.495  0.00  0.00    +0.000 A 
ATOM      4  N   UNL     1       5.960   4.038  18.817  0.00  0.00    +0.000 N 
ATOM      5  N   UNL     1       4.951   3.337  19.360  0.00  0.00    +0.000 NA
ATOM      6  H   UNL     1       6.765   4.270  19.393  0.00  0.00    +0.000 HD
ENDROOT
BRANCH   3   7
ATOM      7  C   UNL     1       6.783   5.070  16.770  0.00  0.00    +0.000 C 
ATOM      8  O   UNL     1       6.598   6.150  16.231  0.00  0.00    +0.000 OA
BRANCH   7   9
ATOM      9  O   UNL     1       7.977   4.439  16.743  0.00  0.00    +0.000 OA
ATOM     10  H   UNL     1       8.077   3.730  17.399  0.00  0.00    +0.000 HD
ENDBRANCH   7   9
ENDBRANCH   3   7
BRANCH   1  11
ATOM     11  C   UNL     1       2.782   2.482  18.590  0.00  0.00    +0.000 C 
BRANCH  11  13
ATOM     12  C   UNL     1       1.280   2.929  20.809  0.00  0.00    +0.000 C 
ATOM     13  S   UNL     1       1.457   3.605  19.141  0.00  0.00    +0.000 S 
ATOM     14  O   UNL     1       2.069   5.047  19.268  0.00  0.00    +0.000 OA
ENDBRANCH  11  13
ENDBRANCH   1  11
TORSDOF 4
ENDMDL
MODEL 9
REMARK VINA RESULT:      -5.3      1.875      1.951
REMARK  Name = 
REMARK  5 active torsions:
REMARK  status: ('A' for Active; 'I' for Inactive)
REMARK    1  A    between atoms: C_1  and  S_2
REMARK    2  A    between atoms: S_2  and  C_4
REMARK    3  A    between atoms: C_4  and  C_5
REMARK    4  A    between atoms: C_7  and  C_8
REMARK    5  A    between atoms: C_8  and  O_10
REMARK                            x       y       z     vdW  Elec       q    Type
REMARK                         _______ _______ _______ _____ _____    ______ ____
ROOT
ATOM      1  C   UNL     1       4.380   3.472  18.533  0.00  0.00    +0.000 A 
ATOM      2  C   UNL     1       4.608   3.808  17.173  0.00  0.00    +0.000 A 
ATOM      3  C   UNL     1       5.890   4.318  17.126  0.00  0.00    +0.000 A 
ATOM      4  N   UNL     1       6.334   4.277  18.422  0.00  0.00    +0.000 N 
ATOM      5  N   UNL     1       5.449   3.754  19.285  0.00  0.00    +0.000 NA
ATOM      6  H   UNL     1       7.239   4.583  18.769  0.00  0.00    +0.000 HD
ENDROOT
BRANCH   3   7
ATOM      7  C   UNL     1       6.740   4.824  16.083  0.00  0.00    +0.000 C 
ATOM      8  O   UNL     1       6.870   4.295  14.991  0.00  0.00    +0.000 OA
BRANCH   7   9
ATOM      9  O   UNL     1       7.388   5.959  16.423  0.00  0.00    +0.000 OA
ATOM     10  H   UNL     1       6.849   6.766  16.368  0.00  0.00    +0.000 HD
ENDBRANCH   7   9
ENDBRANCH   3   7
BRANCH   1  11
ATOM     11  C   UNL     1       3.164   2.865  19.148  0.00  0.00    +0.000 C 
BRANCH  11  13
ATOM     12  C   UNL     1       0.990   3.969  20.346  0.00  0.00    +0.000 C 
ATOM     13  S   UNL     1       2.734   3.677  20.722  0.00  0.00    +0.000 S 
ATOM     14  O   UNL     1       2.807   2.595  21.859  0.00  0.00    +0.000 OA
ENDBRANCH  11  13
ENDBRANCH   1  11
TORSDOF 4
ENDMDL
