MODEL 1
REMARK VINA RESULT:      -7.2      0.000      0.000
REMARK  Name = 
REMARK  8 active torsions:
REMARK  status: ('A' for Active; 'I' for Inactive)
REMARK    1  A    between atoms: C_1  and  C_2
REMARK    2  A    between atoms: C_2  and  C_3
REMARK    3  A    between atoms: C_2  and  C_4
REMARK    4  A    between atoms: C_2  and  O_5
REMARK    5  A    between atoms: O_5  and  C_6
REMARK    6  A    between atoms: N_8  and  C_9
REMARK    7  A    between atoms: C_12  and  C_13
REMARK    8  A    between atoms: N_15  and  C_16
REMARK                            x       y       z     vdW  Elec       q    Type
REMARK                         _______ _______ _______ _____ _____    ______ ____
ROOT
ATOM      1  C   UNL     1       0.559   9.683  19.693  0.00  0.00    +0.000 A 
ATOM      2  C   UNL     1       1.053   9.570  18.390  0.00  0.00    +0.000 A 
ATOM      3  C   UNL     1       1.919   8.543  18.026  0.00  0.00    +0.000 A 
ATOM      4  C   UNL     1       2.327   7.601  18.968  0.00  0.00    +0.000 A 
ATOM      5  C   UNL     1       1.845   7.690  20.279  0.00  0.00    +0.000 A 
ATOM      6  C   UNL     1       0.972   8.738  20.641  0.00  0.00    +0.000 A 
ENDROOT
BRANCH   1   9
ATOM      7  C   UNL     1       0.050  11.786  20.872  0.00  0.00    +0.000 C 
ATOM      8  O   UNL     1       1.185  11.997  21.284  0.00  0.00    +0.000 OA
ATOM      9  N   UNL     1      -0.316  10.729  20.071  0.00  0.00    +0.000 N 
ATOM     10  H   UNL     1      -1.242  10.776  19.669  0.00  0.00    +0.000 HD
BRANCH   7  11
ATOM     11  O   UNL     1      -0.998  12.624  21.121  0.00  0.00    +0.000 OA
BRANCH  11  13
ATOM     12  C   UNL     1      -1.204  13.677  23.336  0.00  0.00    +0.000 C 
ATOM     13  C   UNL     1      -1.626  12.505  22.433  0.00  0.00    +0.000 C 
ATOM     14  C   UNL     1      -1.346  11.135  23.082  0.00  0.00    +0.000 C 
ATOM     15  C   UNL     1      -3.147  12.613  22.226  0.00  0.00    +0.000 C 
ENDBRANCH  11  13
ENDBRANCH   7  11
ENDBRANCH   1   9
BRANCH   4  16
ATOM     16  C   UNL     1       3.346   6.620  18.514  0.00  0.00    +0.000 C 
ATOM     17  O   UNL     1       3.572   5.668  19.253  0.00  0.00    +0.000 OA
ATOM     18  N   UNL     1       3.997   6.898  17.328  0.00  0.00    +0.000 N 
ATOM     19  H   UNL     1       3.867   7.817  16.924  0.00  0.00    +0.000 HD
BRANCH  18  20
ATOM     20  C   UNL     1       5.006   6.083  16.758  0.00  0.00    +0.000 A 
ATOM     21  C   UNL     1       4.771   4.820  16.211  0.00  0.00    +0.000 A 
ATOM     22  C   UNL     1       5.829   4.066  15.703  0.00  0.00    +0.000 A 
ATOM     23  C   UNL     1       7.101   4.605  15.751  0.00  0.00    +0.000 A 
ATOM     24  N   UNL     1       7.374   5.833  16.240  0.00  0.00    +0.000 NA
ATOM     25  C   UNL     1       6.322   6.540  16.727  0.00  0.00    +0.000 A 
ENDBRANCH  18  20
ENDBRANCH   4  16
TORSDOF 5
ENDMDL
MODEL 2
REMARK VINA RESULT:      -7.0      0.532      1.132
REMARK  Name = 
REMARK  8 active torsions:
REMARK  status: ('A' for Active; 'I' for Inactive)
REMARK    1  A    between atoms: C_1  and  C_2
REMARK    2  A    between atoms: C_2  and  C_3
REMARK    3  A    between atoms: C_2  and  C_4
REMARK    4  A    between atoms: C_2  and  O_5
REMARK    5  A    between atoms: O_5  and  C_6
REMARK    6  A    between atoms: N_8  and  C_9
REMARK    7  A    between atoms: C_12  and  C_13
REMARK    8  A    between atoms: N_15  and  C_16
REMARK                            x       y       z     vdW  Elec       q    Type
REMARK                         _______ _______ _______ _____ _____    ______ ____
ROOT
ATOM      1  C   UNL     1       0.478   9.647  19.586  0.00  0.00    +0.000 A 
ATOM      2  C   UNL     1       1.023   8.662  20.415  0.00  0.00    +0.000 A 
ATOM      3  C   UNL     1       1.976   7.763  19.947  0.00  0.00    +0.000 A 
ATOM      4  C   UNL     1       2.406   7.820  18.622  0.00  0.00    +0.000 A 
ATOM      5  C   UNL     1       1.878   8.799  17.772  0.00  0.00    +0.000 A 
ATOM      6  C   UNL     1       0.907   9.702  18.254  0.00  0.00    +0.000 A 
ENDROOT
BRANCH   1   9
ATOM      7  C   UNL     1      -0.198  11.745  20.688  0.00  0.00    +0.000 C 
ATOM      8  O   UNL     1       0.932  12.193  20.848  0.00  0.00    +0.000 OA
ATOM      9  N   UNL     1      -0.497  10.560  20.055  0.00  0.00    +0.000 N 
ATOM     10  H   UNL     1      -1.472  10.403  19.845  0.00  0.00    +0.000 HD
BRANCH   7  11
ATOM     11  O   UNL     1      -1.323  12.411  21.081  0.00  0.00    +0.000 OA
BRANCH  11  13
ATOM     12  C   UNL     1      -1.102  13.521  23.266  0.00  0.00    +0.000 C 
ATOM     13  C   UNL     1      -1.672  12.318  22.495  0.00  0.00    +0.000 C 
ATOM     14  C   UNL     1      -1.239  10.971  23.106  0.00  0.00    +0.000 C 
ATOM     15  C   UNL     1      -3.205  12.396  22.596  0.00  0.00    +0.000 C 
ENDBRANCH  11  13
ENDBRANCH   7  11
ENDBRANCH   1   9
BRANCH   4  16
ATOM     16  C   UNL     1       3.331   6.743  18.187  0.00  0.00    +0.000 C 
ATOM     17  O   UNL     1       3.182   5.638  18.699  0.00  0.00    +0.000 OA
ATOM     18  N   UNL     1       4.322   7.093  17.290  0.00  0.00    +0.000 N 
ATOM     19  H   UNL     1       4.464   8.078  17.107  0.00  0.00    +0.000 HD
BRANCH  18  20
ATOM     20  C   UNL     1       5.298   6.198  16.785  0.00  0.00    +0.000 A 
ATOM     21  C   UNL     1       5.174   5.512  15.576  0.00  0.00    +0.000 A 
ATOM     22  C   UNL     1       6.167   4.620  15.170  0.00  0.00    +0.000 A 
ATOM     23  C   UNL     1       7.267   4.444  15.988  0.00  0.00    +0.000 A 
ATOM     24  N   UNL     1       7.446   5.108  17.149  0.00  0.00    +0.000 NA
ATOM     25  C   UNL     1       6.462   5.968  17.516  0.00  0.00    +0.000 A 
ENDBRANCH  18  20
ENDBRANCH   4  16
TORSDOF 5
ENDMDL
MODEL 3
REMARK VINA RESULT:      -6.8      0.730      1.635
REMARK  Name = 
REMARK  8 active torsions:
REMARK  status: ('A' for Active; 'I' for Inactive)
REMARK    1  A    between atoms: C_1  and  C_2
REMARK    2  A    between atoms: C_2  and  C_3
REMARK    3  A    between atoms: C_2  and  C_4
REMARK    4  A    between atoms: C_2  and  O_5
REMARK    5  A    between atoms: O_5  and  C_6
REMARK    6  A    between atoms: N_8  and  C_9
REMARK    7  A    between atoms: C_12  and  C_13
REMARK    8  A    between atoms: N_15  and  C_16
REMARK                            x       y       z     vdW  Elec       q    Type
REMARK                         _______ _______ _______ _____ _____    ______ ____
ROOT
ATOM      1  C   UNL     1       0.493   9.818  19.559  0.00  0.00    +0.000 A 
ATOM      2  C   UNL     1       1.000   8.823  20.400  0.00  0.00    +0.000 A 
ATOM      3  C   UNL     1       1.911   7.876  19.941  0.00  0.00    +0.000 A 
ATOM      4  C   UNL     1       2.333   7.892  18.613  0.00  0.00    +0.000 A 
ATOM      5  C   UNL     1       1.843   8.880  17.751  0.00  0.00    +0.000 A 
ATOM      6  C   UNL     1       0.915   9.833  18.223  0.00  0.00    +0.000 A 
ENDROOT
BRANCH   1   9
ATOM      7  C   UNL     1      -0.111  11.829  20.847  0.00  0.00    +0.000 C 
ATOM      8  O   UNL     1       1.023  12.108  21.218  0.00  0.00    +0.000 OA
ATOM      9  N   UNL     1      -0.437  10.780  20.018  0.00  0.00    +0.000 N 
ATOM     10  H   UNL     1      -1.382  10.774  19.660  0.00  0.00    +0.000 HD
BRANCH   7  11
ATOM     11  O   UNL     1      -1.205  12.576  21.177  0.00  0.00    +0.000 OA
BRANCH  11  13
ATOM     12  C   UNL     1      -1.238  11.046  23.105  0.00  0.00    +0.000 C 
ATOM     13  C   UNL     1      -1.751  12.372  22.515  0.00  0.00    +0.000 C 
ATOM     14  C   UNL     1      -3.290  12.462  22.527  0.00  0.00    +0.000 C 
ATOM     15  C   UNL     1      -1.217  13.505  23.407  0.00  0.00    +0.000 C 
ENDBRANCH  11  13
ENDBRANCH   7  11
ENDBRANCH   1   9
BRANCH   4  16
ATOM     16  C   UNL     1       3.208   6.769  18.190  0.00  0.00    +0.000 C 
ATOM     17  O   UNL     1       2.866   5.640  18.524  0.00  0.00    +0.000 OA
ATOM     18  N   UNL     1       4.365   7.098  17.511  0.00  0.00    +0.000 N 
ATOM     19  H   UNL     1       4.633   8.074  17.483  0.00  0.00    +0.000 HD
BRANCH  18  20
ATOM     20  C   UNL     1       5.320   6.157  17.052  0.00  0.00    +0.000 A 
ATOM     21  C   UNL     1       6.327   5.616  17.852  0.00  0.00    +0.000 A 
ATOM     22  C   UNL     1       7.251   4.721  17.310  0.00  0.00    +0.000 A 
ATOM     23  C   UNL     1       7.134   4.387  15.974  0.00  0.00    +0.000 A 
ATOM     24  N   UNL     1       6.159   4.858  15.169  0.00  0.00    +0.000 NA
ATOM     25  C   UNL     1       5.277   5.726  15.727  0.00  0.00    +0.000 A 
ENDBRANCH  18  20
ENDBRANCH   4  16
TORSDOF 5
ENDMDL
MODEL 4
REMARK VINA RESULT:      -6.7      2.386      2.853
REMARK  Name = 
REMARK  8 active torsions:
REMARK  status: ('A' for Active; 'I' for Inactive)
REMARK    1  A    between atoms: C_1  and  C_2
REMARK    2  A    between atoms: C_2  and  C_3
REMARK    3  A    between atoms: C_2  and  C_4
REMARK    4  A    between atoms: C_2  and  O_5
REMARK    5  A    between atoms: O_5  and  C_6
REMARK    6  A    between atoms: N_8  and  C_9
REMARK    7  A    between atoms: C_12  and  C_13
REMARK    8  A    between atoms: N_15  and  C_16
REMARK                            x       y       z     vdW  Elec       q    Type
REMARK                         _______ _______ _______ _____ _____    ______ ____
ROOT
ATOM      1  C   UNL     1       0.789  10.161  19.623  0.00  0.00    +0.000 A 
ATOM      2  C   UNL     1       0.986   9.092  20.500  0.00  0.00    +0.000 A 
ATOM      3  C   UNL     1       1.677   7.948  20.111  0.00  0.00    +0.000 A 
ATOM      4  C   UNL     1       2.184   7.840  18.817  0.00  0.00    +0.000 A 
ATOM      5  C   UNL     1       2.002   8.898  17.919  0.00  0.00    +0.000 A 
ATOM      6  C   UNL     1       1.295  10.051  18.321  0.00  0.00    +0.000 A 
ENDROOT
BRANCH   1   9
ATOM      7  C   UNL     1       0.584  12.280  20.864  0.00  0.00    +0.000 C 
ATOM      8  O   UNL     1       1.721  12.289  21.320  0.00  0.00    +0.000 OA
ATOM      9  N   UNL     1       0.081  11.324  20.011  0.00  0.00    +0.000 N 
ATOM     10  H   UNL     1      -0.809  11.536  19.581  0.00  0.00    +0.000 HD
BRANCH   7  11
ATOM     11  O   UNL     1      -0.323  13.270  21.110  0.00  0.00    +0.000 OA
BRANCH  11  13
ATOM     12  C   UNL     1      -1.026  11.661  22.835  0.00  0.00    +0.000 C 
ATOM     13  C   UNL     1      -1.350  12.977  22.105  0.00  0.00    +0.000 C 
ATOM     14  C   UNL     1      -2.763  12.974  21.488  0.00  0.00    +0.000 C 
ATOM     15  C   UNL     1      -1.309  14.102  23.153  0.00  0.00    +0.000 C 
ENDBRANCH  11  13
ENDBRANCH   7  11
ENDBRANCH   1   9
BRANCH   4  16
ATOM     16  C   UNL     1       2.797   6.535  18.462  0.00  0.00    +0.000 C 
ATOM     17  O   UNL     1       3.691   6.548  17.623  0.00  0.00    +0.000 OA
ATOM     18  N   UNL     1       2.264   5.409  19.060  0.00  0.00    +0.000 N 
ATOM     19  H   UNL     1       1.396   5.514  19.571  0.00  0.00    +0.000 HD
BRANCH  18  20
ATOM     20  C   UNL     1       2.714   4.086  18.823  0.00  0.00    +0.000 A 
ATOM     21  C   UNL     1       2.184   3.248  17.841  0.00  0.00    +0.000 A 
ATOM     22  C   UNL     1       2.660   1.945  17.697  0.00  0.00    +0.000 A 
ATOM     23  C   UNL     1       3.664   1.516  18.545  0.00  0.00    +0.000 A 
ATOM     24  N   UNL     1       4.230   2.299  19.487  0.00  0.00    +0.000 NA
ATOM     25  C   UNL     1       3.744   3.561  19.601  0.00  0.00    +0.000 A 
ENDBRANCH  18  20
ENDBRANCH   4  16
TORSDOF 5
ENDMDL
MODEL 5
REMARK VINA RESULT:      -6.6      2.412      2.986
REMARK  Name = 
REMARK  8 active torsions:
REMARK  status: ('A' for Active; 'I' for Inactive)
REMARK    1  A    between atoms: C_1  and  C_2
REMARK    2  A    between atoms: C_2  and  C_3
REMARK    3  A    between atoms: C_2  and  C_4
REMARK    4  A    between atoms: C_2  and  O_5
REMARK    5  A    between atoms: O_5  and  C_6
REMARK    6  A    between atoms: N_8  and  C_9
REMARK    7  A    between atoms: C_12  and  C_13
REMARK    8  A    between atoms: N_15  and  C_16
REMARK                            x       y       z     vdW  Elec       q    Type
REMARK                         _______ _______ _______ _____ _____    ______ ____
ROOT
ATOM      1  C   UNL     1       0.648  10.043  19.691  0.00  0.00    +0.000 A 
ATOM      2  C   UNL     1       0.954   9.059  20.635  0.00  0.00    +0.000 A 
ATOM      3  C   UNL     1       1.701   7.933  20.298  0.00  0.00    +0.000 A 
ATOM      4  C   UNL     1       2.155   7.756  18.993  0.00  0.00    +0.000 A 
ATOM      5  C   UNL     1       1.865   8.729  18.028  0.00  0.00    +0.000 A 
ATOM      6  C   UNL     1       1.102   9.863  18.378  0.00  0.00    +0.000 A 
ENDROOT
BRANCH   1   9
ATOM      7  C   UNL     1       0.326  12.187  20.862  0.00  0.00    +0.000 C 
ATOM      8  O   UNL     1       1.450  12.256  21.345  0.00  0.00    +0.000 OA
ATOM      9  N   UNL     1      -0.116  11.186  20.026  0.00  0.00    +0.000 N 
ATOM     10  H   UNL     1      -1.001  11.348  19.569  0.00  0.00    +0.000 HD
BRANCH   7  11
ATOM     11  O   UNL     1      -0.626  13.146  21.056  0.00  0.00    +0.000 OA
BRANCH  11  13
ATOM     12  C   UNL     1      -1.225  11.627  22.898  0.00  0.00    +0.000 C 
ATOM     13  C   UNL     1      -1.463  12.999  22.243  0.00  0.00    +0.000 C 
ATOM     14  C   UNL     1      -2.951  13.250  21.931  0.00  0.00    +0.000 C 
ATOM     15  C   UNL     1      -1.017  14.070  23.253  0.00  0.00    +0.000 C 
ENDBRANCH  11  13
ENDBRANCH   7  11
ENDBRANCH   1   9
BRANCH   4  16
ATOM     16  C   UNL     1       2.835   6.468  18.706  0.00  0.00    +0.000 C 
ATOM     17  O   UNL     1       3.848   6.513  18.016  0.00  0.00    +0.000 OA
ATOM     18  N   UNL     1       2.234   5.321  19.188  0.00  0.00    +0.000 N 
ATOM     19  H   UNL     1       1.296   5.403  19.560  0.00  0.00    +0.000 HD
BRANCH  18  20
ATOM     20  C   UNL     1       2.735   4.010  18.991  0.00  0.00    +0.000 A 
ATOM     21  C   UNL     1       3.702   3.417  19.804  0.00  0.00    +0.000 A 
ATOM     22  C   UNL     1       4.168   2.133  19.519  0.00  0.00    +0.000 A 
ATOM     23  C   UNL     1       3.644   1.473  18.423  0.00  0.00    +0.000 A 
ATOM     24  N   UNL     1       2.686   1.992  17.628  0.00  0.00    +0.000 NA
ATOM     25  C   UNL     1       2.255   3.243  17.932  0.00  0.00    +0.000 A 
ENDBRANCH  18  20
ENDBRANCH   4  16
TORSDOF 5
ENDMDL
MODEL 6
REMARK VINA RESULT:      -6.6      1.108      1.524
REMARK  Name = 
REMARK  8 active torsions:
REMARK  status: ('A' for Active; 'I' for Inactive)
REMARK    1  A    between atoms: C_1  and  C_2
REMARK    2  A    between atoms: C_2  and  C_3
REMARK    3  A    between atoms: C_2  and  C_4
REMARK    4  A    between atoms: C_2  and  O_5
REMARK    5  A    between atoms: O_5  and  C_6
REMARK    6  A    between atoms: N_8  and  C_9
REMARK    7  A    between atoms: C_12  and  C_13
REMARK    8  A    between atoms: N_15  and  C_16
REMARK                            x       y       z     vdW  Elec       q    Type
REMARK                         _______ _______ _______ _____ _____    ______ ____
ROOT
ATOM      1  C   UNL     1       0.713   9.570  19.840  0.00  0.00    +0.000 A 
ATOM      2  C   UNL     1       1.176   9.563  18.521  0.00  0.00    +0.000 A 
ATOM      3  C   UNL     1       2.002   8.550  18.045  0.00  0.00    +0.000 A 
ATOM      4  C   UNL     1       2.400   7.513  18.886  0.00  0.00    +0.000 A 
ATOM      5  C   UNL     1       1.949   7.495  20.211  0.00  0.00    +0.000 A 
ATOM      6  C   UNL     1       1.116   8.529  20.688  0.00  0.00    +0.000 A 
ENDROOT
BRANCH   1   9
ATOM      7  C   UNL     1       0.346  11.751  20.926  0.00  0.00    +0.000 C 
ATOM      8  O   UNL     1       1.527  12.062  21.025  0.00  0.00    +0.000 OA
ATOM      9  N   UNL     1      -0.123  10.600  20.333  0.00  0.00    +0.000 N 
ATOM     10  H   UNL     1      -1.118  10.558  20.170  0.00  0.00    +0.000 HD
BRANCH   7  11
ATOM     11  O   UNL     1      -0.672  12.553  21.355  0.00  0.00    +0.000 OA
BRANCH  11  13
ATOM     12  C   UNL     1      -2.765  12.740  20.074  0.00  0.00    +0.000 C 
ATOM     13  C   UNL     1      -1.365  13.326  20.329  0.00  0.00    +0.000 C 
ATOM     14  C   UNL     1      -0.533  13.441  19.037  0.00  0.00    +0.000 C 
ATOM     15  C   UNL     1      -1.560  14.749  20.879  0.00  0.00    +0.000 C 
ENDBRANCH  11  13
ENDBRANCH   7  11
ENDBRANCH   1   9
BRANCH   4  16
ATOM     16  C   UNL     1       3.379   6.550  18.320  0.00  0.00    +0.000 C 
ATOM     17  O   UNL     1       3.431   5.439  18.837  0.00  0.00    +0.000 OA
ATOM     18  N   UNL     1       4.190   7.008  17.300  0.00  0.00    +0.000 N 
ATOM     19  H   UNL     1       4.189   8.002  17.109  0.00  0.00    +0.000 HD
BRANCH  18  20
ATOM     20  C   UNL     1       5.188   6.232  16.659  0.00  0.00    +0.000 A 
ATOM     21  C   UNL     1       4.933   5.354  15.605  0.00  0.00    +0.000 A 
ATOM     22  C   UNL     1       5.968   4.598  15.054  0.00  0.00    +0.000 A 
ATOM     23  C   UNL     1       7.240   4.749  15.575  0.00  0.00    +0.000 A 
ATOM     24  N   UNL     1       7.541   5.608  16.571  0.00  0.00    +0.000 NA
ATOM     25  C   UNL     1       6.511   6.328  17.085  0.00  0.00    +0.000 A 
ENDBRANCH  18  20
ENDBRANCH   4  16
TORSDOF 5
ENDMDL
MODEL 7
REMARK VINA RESULT:      -6.5      1.576      9.297
REMARK  Name = 
REMARK  8 active torsions:
REMARK  status: ('A' for Active; 'I' for Inactive)
REMARK    1  A    between atoms: C_1  and  C_2
REMARK    2  A    between atoms: C_2  and  C_3
REMARK    3  A    between atoms: C_2  and  C_4
REMARK    4  A    between atoms: C_2  and  O_5
REMARK    5  A    between atoms: O_5  and  C_6
REMARK    6  A    between atoms: N_8  and  C_9
REMARK    7  A    between atoms: C_12  and  C_13
REMARK    8  A    between atoms: N_15  and  C_16
REMARK                            x       y       z     vdW  Elec       q    Type
REMARK                         _______ _______ _______ _____ _____    ______ ____
ROOT
ATOM      1  C   UNL     1       2.676   6.888  18.509  0.00  0.00    +0.000 A 
ATOM      2  C   UNL     1       2.353   8.025  17.762  0.00  0.00    +0.000 A 
ATOM      3  C   UNL     1       1.627   9.076  18.315  0.00  0.00    +0.000 A 
ATOM      4  C   UNL     1       1.191   9.011  19.637  0.00  0.00    +0.000 A 
ATOM      5  C   UNL     1       1.503   7.884  20.406  0.00  0.00    +0.000 A 
ATOM      6  C   UNL     1       2.235   6.821  19.837  0.00  0.00    +0.000 A 
ENDROOT
BRANCH   1   9
ATOM      7  C   UNL     1       4.597   5.345  18.465  0.00  0.00    +0.000 C 
ATOM      8  O   UNL     1       5.119   5.738  19.502  0.00  0.00    +0.000 OA
ATOM      9  N   UNL     1       3.409   5.813  17.951  0.00  0.00    +0.000 N 
ATOM     10  H   UNL     1       3.015   5.281  17.188  0.00  0.00    +0.000 HD
BRANCH   7  11
ATOM     11  O   UNL     1       5.117   4.336  17.707  0.00  0.00    +0.000 OA
BRANCH  11  13
ATOM     12  C   UNL     1       7.542   4.539  17.341  0.00  0.00    +0.000 C 
ATOM     13  C   UNL     1       6.138   4.714  16.736  0.00  0.00    +0.000 C 
ATOM     14  C   UNL     1       5.909   6.135  16.185  0.00  0.00    +0.000 C 
ATOM     15  C   UNL     1       6.028   3.739  15.550  0.00  0.00    +0.000 C 
ENDBRANCH  11  13
ENDBRANCH   7  11
ENDBRANCH   1   9
BRANCH   4  16
ATOM     16  C   UNL     1       0.321  10.124  20.094  0.00  0.00    +0.000 C 
ATOM     17  O   UNL     1      -0.432  10.622  19.263  0.00  0.00    +0.000 OA
ATOM     18  N   UNL     1       0.478  10.546  21.400  0.00  0.00    +0.000 N 
ATOM     19  H   UNL     1       1.274  10.194  21.915  0.00  0.00    +0.000 HD
BRANCH  18  20
ATOM     20  C   UNL     1      -0.255  11.604  21.994  0.00  0.00    +0.000 A 
ATOM     21  C   UNL     1      -1.362  11.414  22.822  0.00  0.00    +0.000 A 
ATOM     22  C   UNL     1      -2.050  12.513  23.338  0.00  0.00    +0.000 A 
ATOM     23  C   UNL     1      -1.603  13.779  23.011  0.00  0.00    +0.000 A 
ATOM     24  N   UNL     1      -0.520  14.013  22.242  0.00  0.00    +0.000 NA
ATOM     25  C   UNL     1       0.127  12.922  21.756  0.00  0.00    +0.000 A 
ENDBRANCH  18  20
ENDBRANCH   4  16
TORSDOF 5
ENDMDL
MODEL 8
REMARK VINA RESULT:      -6.5      1.717      9.352
REMARK  Name = 
REMARK  8 active torsions:
REMARK  status: ('A' for Active; 'I' for Inactive)
REMARK    1  A    between atoms: C_1  and  C_2
REMARK    2  A    between atoms: C_2  and  C_3
REMARK    3  A    between atoms: C_2  and  C_4
REMARK    4  A    between atoms: C_2  and  O_5
REMARK    5  A    between atoms: O_5  and  C_6
REMARK    6  A    between atoms: N_8  and  C_9
REMARK    7  A    between atoms: C_12  and  C_13
REMARK    8  A    between atoms: N_15  and  C_16
REMARK                            x       y       z     vdW  Elec       q    Type
REMARK                         _______ _______ _______ _____ _____    ______ ____
ROOT
ATOM      1  C   UNL     1       2.484   6.766  18.857  0.00  0.00    +0.000 A 
ATOM      2  C   UNL     1       2.099   6.481  20.170  0.00  0.00    +0.000 A 
ATOM      3  C   UNL     1       1.512   7.447  20.982  0.00  0.00    +0.000 A 
ATOM      4  C   UNL     1       1.305   8.738  20.502  0.00  0.00    +0.000 A 
ATOM      5  C   UNL     1       1.680   9.050  19.190  0.00  0.00    +0.000 A 
ATOM      6  C   UNL     1       2.280   8.066  18.375  0.00  0.00    +0.000 A 
ENDROOT
BRANCH   1   9
ATOM      7  C   UNL     1       4.344   5.271  18.242  0.00  0.00    +0.000 C 
ATOM      8  O   UNL     1       5.054   5.520  19.209  0.00  0.00    +0.000 OA
ATOM      9  N   UNL     1       3.087   5.791  18.028  0.00  0.00    +0.000 N 
ATOM     10  H   UNL     1       2.552   5.367  17.283  0.00  0.00    +0.000 HD
BRANCH   7  11
ATOM     11  O   UNL     1       4.701   4.385  17.266  0.00  0.00    +0.000 OA
BRANCH  11  13
ATOM     12  C   UNL     1       7.123   4.626  16.898  0.00  0.00    +0.000 C 
ATOM     13  C   UNL     1       5.713   4.838  16.318  0.00  0.00    +0.000 C 
ATOM     14  C   UNL     1       5.474   6.295  15.875  0.00  0.00    +0.000 C 
ATOM     15  C   UNL     1       5.598   3.952  15.065  0.00  0.00    +0.000 C 
ENDBRANCH  11  13
ENDBRANCH   7  11
ENDBRANCH   1   9
BRANCH   4  16
ATOM     16  C   UNL     1       0.788   9.726  21.483  0.00  0.00    +0.000 C 
ATOM     17  O   UNL     1       0.989   9.491  22.670  0.00  0.00    +0.000 OA
ATOM     18  N   UNL     1       0.072  10.794  20.978  0.00  0.00    +0.000 N 
ATOM     19  H   UNL     1      -0.199  10.760  20.004  0.00  0.00    +0.000 HD
BRANCH  18  20
ATOM     20  C   UNL     1      -0.507  11.817  21.770  0.00  0.00    +0.000 A 
ATOM     21  C   UNL     1      -1.609  11.626  22.605  0.00  0.00    +0.000 A 
ATOM     22  C   UNL     1      -2.140  12.697  23.324  0.00  0.00    +0.000 A 
ATOM     23  C   UNL     1      -1.545  13.937  23.189  0.00  0.00    +0.000 A 
ATOM     24  N   UNL     1      -0.460  14.164  22.421  0.00  0.00    +0.000 NA
ATOM     25  C   UNL     1       0.032  13.101  21.734  0.00  0.00    +0.000 A 
ENDBRANCH  18  20
ENDBRANCH   4  16
TORSDOF 5
ENDMDL
MODEL 9
REMARK VINA RESULT:      -6.5      2.561      3.063
REMARK  Name = 
REMARK  8 active torsions:
REMARK  status: ('A' for Active; 'I' for Inactive)
REMARK    1  A    between atoms: C_1  and  C_2
REMARK    2  A    between atoms: C_2  and  C_3
REMARK    3  A    between atoms: C_2  and  C_4
REMARK    4  A    between atoms: C_2  and  O_5
REMARK    5  A    between atoms: O_5  and  C_6
REMARK    6  A    between atoms: N_8  and  C_9
REMARK    7  A    between atoms: C_12  and  C_13
REMARK    8  A    between atoms: N_15  and  C_16
REMARK                            x       y       z     vdW  Elec       q    Type
REMARK                         _______ _______ _______ _____ _____    ______ ____
ROOT
ATOM      1  C   UNL     1       0.950  10.272  19.445  0.00  0.00    +0.000 A 
ATOM      2  C   UNL     1       1.042   9.191  20.327  0.00  0.00    +0.000 A 
ATOM      3  C   UNL     1       1.705   8.019  19.975  0.00  0.00    +0.000 A 
ATOM      4  C   UNL     1       2.289   7.893  18.716  0.00  0.00    +0.000 A 
ATOM      5  C   UNL     1       2.214   8.962  17.816  0.00  0.00    +0.000 A 
ATOM      6  C   UNL     1       1.534  10.144  18.178  0.00  0.00    +0.000 A 
ENDROOT
BRANCH   1   9
ATOM      7  C   UNL     1      -1.051  11.709  19.501  0.00  0.00    +0.000 C 
ATOM      8  O   UNL     1      -1.818  10.905  18.984  0.00  0.00    +0.000 OA
ATOM      9  N   UNL     1       0.271  11.464  19.795  0.00  0.00    +0.000 N 
ATOM     10  H   UNL     1       0.732  12.151  20.373  0.00  0.00    +0.000 HD
BRANCH   7  11
ATOM     11  O   UNL     1      -1.440  12.953  19.906  0.00  0.00    +0.000 OA
BRANCH  11  13
ATOM     12  C   UNL     1      -1.764  11.994  22.150  0.00  0.00    +0.000 C 
ATOM     13  C   UNL     1      -2.261  13.015  21.112  0.00  0.00    +0.000 C 
ATOM     14  C   UNL     1      -3.760  12.849  20.795  0.00  0.00    +0.000 C 
ATOM     15  C   UNL     1      -2.073  14.415  21.723  0.00  0.00    +0.000 C 
ENDBRANCH  11  13
ENDBRANCH   7  11
ENDBRANCH   1   9
BRANCH   4  16
ATOM     16  C   UNL     1       2.865   6.562  18.392  0.00  0.00    +0.000 C 
ATOM     17  O   UNL     1       3.763   6.531  17.558  0.00  0.00    +0.000 OA
ATOM     18  N   UNL     1       2.296   5.467  19.012  0.00  0.00    +0.000 N 
ATOM     19  H   UNL     1       1.429   5.608  19.515  0.00  0.00    +0.000 HD
BRANCH  18  20
ATOM     20  C   UNL     1       2.707   4.126  18.806  0.00  0.00    +0.000 A 
ATOM     21  C   UNL     1       2.228   3.314  17.776  0.00  0.00    +0.000 A 
ATOM     22  C   UNL     1       2.658   1.992  17.666  0.00  0.00    +0.000 A 
ATOM     23  C   UNL     1       3.567   1.518  18.594  0.00  0.00    +0.000 A 
ATOM     24  N   UNL     1       4.083   2.273  19.586  0.00  0.00    +0.000 NA
ATOM     25  C   UNL     1       3.643   3.555  19.666  0.00  0.00    +0.000 A 
ENDBRANCH  18  20
ENDBRANCH   4  16
TORSDOF 5
ENDMDL
