MODEL 1
REMARK VINA RESULT:      -7.0      0.000      0.000
REMARK  Name = 
REMARK  10 active torsions:
REMARK  status: ('A' for Active; 'I' for Inactive)
REMARK    1  A    between atoms: C_1  and  C_2
REMARK    2  A    between atoms: C_2  and  C_3
REMARK    3  A    between atoms: C_3  and  C_4
REMARK    4  A    between atoms: C_3  and  N_12
REMARK    5  A    between atoms: C_13  and  C_14
REMARK    6  A    between atoms: C_14  and  O_16
REMARK    7  A    between atoms: O_16  and  C_17
REMARK    8  A    between atoms: C_17  and  C_18
REMARK    9  A    between atoms: C_17  and  C_19
REMARK   10  A    between atoms: C_22  and  S_23
REMARK                            x       y       z     vdW  Elec       q    Type
REMARK                         _______ _______ _______ _____ _____    ______ ____
ROOT
ATOM      1  N   UNL     1       4.457   4.758  17.892  0.00  0.00    +0.000 N 
ATOM      2  C   UNL     1       5.457   5.150  17.005  0.00  0.00    +0.000 A 
ATOM      3  C   UNL     1       6.636   4.885  17.682  0.00  0.00    +0.000 A 
ATOM      4  N   UNL     1       6.409   4.255  18.869  0.00  0.00    +0.000 NA
ATOM      5  C   UNL     1       5.108   4.145  18.946  0.00  0.00    +0.000 A 
ENDROOT
BRANCH   2   6
ATOM      6  C   UNL     1       5.323   5.694  15.678  0.00  0.00    +0.000 C 
ATOM      7  O   UNL     1       5.381   6.879  15.379  0.00  0.00    +0.000 OA
BRANCH   6   8
ATOM      8  O   UNL     1       5.108   4.688  14.778  0.00  0.00    +0.000 OA
BRANCH   8   9
ATOM      9  C   UNL     1       6.283   4.072  14.221  0.00  0.00    +0.000 C 
ATOM     10  C   UNL     1       5.948   3.459  12.865  0.00  0.00    +0.000 C 
ATOM     11  C   UNL     1       7.349   5.150  14.047  0.00  0.00    +0.000 C 
ENDBRANCH   8   9
ENDBRANCH   6   8
ENDBRANCH   2   6
BRANCH   5  12
ATOM     12  S   UNL     1       4.379   3.224  20.216  0.00  0.00    +0.000 S 
ATOM     13  H   UNL     1       5.471   2.483  20.478  0.00  0.00    +0.000 HD
ENDBRANCH   5  12
BRANCH   1  14
ATOM     14  C   UNL     1       2.994   4.952  17.745  0.00  0.00    +0.000 C 
BRANCH  14  15
ATOM     15  C   UNL     1       2.490   6.172  18.541  0.00  0.00    +0.000 A 
ATOM     16  C   UNL     1       2.145   6.038  19.896  0.00  0.00    +0.000 A 
ATOM     17  C   UNL     1       1.654   7.121  20.634  0.00  0.00    +0.000 A 
ATOM     18  C   UNL     1       1.555   8.386  20.057  0.00  0.00    +0.000 A 
ATOM     19 CL   UNL     1       0.966   9.678  21.041  0.00  0.00    +0.000 Cl
ATOM     20  C   UNL     1       1.948   8.566  18.732  0.00  0.00    +0.000 A 
ATOM     21 CL   UNL     1       1.948  10.119  17.971  0.00  0.00    +0.000 Cl
ATOM     22  C   UNL     1       2.393   7.466  17.981  0.00  0.00    +0.000 A 
ENDBRANCH  14  15
BRANCH  14  24
ATOM     23  C   UNL     1       2.605   2.415  17.220  0.00  0.00    +0.000 C 
ATOM     24  C   UNL     1       2.161   3.658  17.974  0.00  0.00    +0.000 C 
ENDBRANCH  14  24
ENDBRANCH   1  14
TORSDOF 7
ENDMDL
MODEL 2
REMARK VINA RESULT:      -6.8      0.727      1.050
REMARK  Name = 
REMARK  10 active torsions:
REMARK  status: ('A' for Active; 'I' for Inactive)
REMARK    1  A    between atoms: C_1  and  C_2
REMARK    2  A    between atoms: C_2  and  C_3
REMARK    3  A    between atoms: C_3  and  C_4
REMARK    4  A    between atoms: C_3  and  N_12
REMARK    5  A    between atoms: C_13  and  C_14
REMARK    6  A    between atoms: C_14  and  O_16
REMARK    7  A    between atoms: O_16  and  C_17
REMARK    8  A    between atoms: C_17  and  C_18
REMARK    9  A    between atoms: C_17  and  C_19
REMARK   10  A    between atoms: C_22  and  S_23
REMARK                            x       y       z     vdW  Elec       q    Type
REMARK                         _______ _______ _______ _____ _____    ______ ____
ROOT
ATOM      1  N   UNL     1       4.888   4.882  17.876  0.00  0.00    +0.000 N 
ATOM      2  C   UNL     1       6.016   5.363  17.216  0.00  0.00    +0.000 A 
ATOM      3  C   UNL     1       7.070   5.017  18.046  0.00  0.00    +0.000 A 
ATOM      4  N   UNL     1       6.657   4.260  19.102  0.00  0.00    +0.000 NA
ATOM      5  C   UNL     1       5.362   4.152  18.949  0.00  0.00    +0.000 A 
ENDROOT
BRANCH   2   6
ATOM      6  C   UNL     1       6.098   6.051  15.953  0.00  0.00    +0.000 C 
ATOM      7  O   UNL     1       5.368   6.962  15.584  0.00  0.00    +0.000 OA
BRANCH   6   8
ATOM      8  O   UNL     1       7.115   5.534  15.201  0.00  0.00    +0.000 OA
BRANCH   8   9
ATOM      9  C   UNL     1       6.779   5.151  13.856  0.00  0.00    +0.000 C 
ATOM     10  C   UNL     1       8.023   5.226  12.976  0.00  0.00    +0.000 C 
ATOM     11  C   UNL     1       6.258   3.718  13.885  0.00  0.00    +0.000 C 
ENDBRANCH   8   9
ENDBRANCH   6   8
ENDBRANCH   2   6
BRANCH   5  12
ATOM     12  S   UNL     1       4.443   3.101  19.971  0.00  0.00    +0.000 S 
ATOM     13  H   UNL     1       4.510   2.036  19.150  0.00  0.00    +0.000 HD
ENDBRANCH   5  12
BRANCH   1  14
ATOM     14  C   UNL     1       3.467   5.101  17.510  0.00  0.00    +0.000 C 
BRANCH  14  15
ATOM     15  C   UNL     1       2.827   6.238  18.334  0.00  0.00    +0.000 A 
ATOM     16  C   UNL     1       2.469   6.022  19.674  0.00  0.00    +0.000 A 
ATOM     17  C   UNL     1       1.857   7.026  20.435  0.00  0.00    +0.000 A 
ATOM     18  C   UNL     1       1.645   8.294  19.897  0.00  0.00    +0.000 A 
ATOM     19 CL   UNL     1       0.909   9.487  20.908  0.00  0.00    +0.000 Cl
ATOM     20  C   UNL     1       2.047   8.558  18.589  0.00  0.00    +0.000 A 
ATOM     21 CL   UNL     1       1.908  10.130  17.880  0.00  0.00    +0.000 Cl
ATOM     22  C   UNL     1       2.614   7.534  17.814  0.00  0.00    +0.000 A 
ENDBRANCH  14  15
BRANCH  14  24
ATOM     23  C   UNL     1       1.113   3.954  17.592  0.00  0.00    +0.000 C 
ATOM     24  C   UNL     1       2.620   3.797  17.466  0.00  0.00    +0.000 C 
ENDBRANCH  14  24
ENDBRANCH   1  14
TORSDOF 7
ENDMDL
MODEL 3
REMARK VINA RESULT:      -6.7      1.242      1.866
REMARK  Name = 
REMARK  10 active torsions:
REMARK  status: ('A' for Active; 'I' for Inactive)
REMARK    1  A    between atoms: C_1  and  C_2
REMARK    2  A    between atoms: C_2  and  C_3
REMARK    3  A    between atoms: C_3  and  C_4
REMARK    4  A    between atoms: C_3  and  N_12
REMARK    5  A    between atoms: C_13  and  C_14
REMARK    6  A    between atoms: C_14  and  O_16
REMARK    7  A    between atoms: O_16  and  C_17
REMARK    8  A    between atoms: C_17  and  C_18
REMARK    9  A    between atoms: C_17  and  C_19
REMARK   10  A    between atoms: C_22  and  S_23
REMARK                            x       y       z     vdW  Elec       q    Type
REMARK                         _______ _______ _______ _____ _____    ______ ____
ROOT
ATOM      1  N   UNL     1       4.397   5.434  18.358  0.00  0.00    +0.000 N 
ATOM      2  C   UNL     1       5.632   5.803  17.830  0.00  0.00    +0.000 A 
ATOM      3  C   UNL     1       6.544   5.423  18.800  0.00  0.00    +0.000 A 
ATOM      4  N   UNL     1       5.947   4.748  19.823  0.00  0.00    +0.000 NA
ATOM      5  C   UNL     1       4.677   4.723  19.509  0.00  0.00    +0.000 A 
ENDROOT
BRANCH   2   6
ATOM      6  C   UNL     1       5.922   6.424  16.563  0.00  0.00    +0.000 C 
ATOM      7  O   UNL     1       5.433   7.466  16.146  0.00  0.00    +0.000 OA
BRANCH   6   8
ATOM      8  O   UNL     1       6.829   5.673  15.869  0.00  0.00    +0.000 OA
BRANCH   8   9
ATOM      9  C   UNL     1       6.341   5.023  14.682  0.00  0.00    +0.000 C 
ATOM     10  C   UNL     1       7.444   4.982  13.630  0.00  0.00    +0.000 C 
ATOM     11  C   UNL     1       5.931   3.601  15.052  0.00  0.00    +0.000 C 
ENDBRANCH   8   9
ENDBRANCH   6   8
ENDBRANCH   2   6
BRANCH   5  12
ATOM     12  S   UNL     1       3.562   3.788  20.444  0.00  0.00    +0.000 S 
ATOM     13  H   UNL     1       3.926   4.306  21.631  0.00  0.00    +0.000 HD
ENDBRANCH   5  12
BRANCH   1  14
ATOM     14  C   UNL     1       3.054   5.734  17.805  0.00  0.00    +0.000 C 
BRANCH  14  15
ATOM     15  C   UNL     1       2.474   7.044  18.375  0.00  0.00    +0.000 A 
ATOM     16  C   UNL     1       2.235   8.138  17.527  0.00  0.00    +0.000 A 
ATOM     17  C   UNL     1       1.739   9.349  18.024  0.00  0.00    +0.000 A 
ATOM     18  C   UNL     1       1.408   9.482  19.371  0.00  0.00    +0.000 A 
ATOM     19 CL   UNL     1       0.777  11.000  19.902  0.00  0.00    +0.000 Cl
ATOM     20  C   UNL     1       1.576   8.394  20.226  0.00  0.00    +0.000 A 
ATOM     21 CL   UNL     1       1.099   8.445  21.888  0.00  0.00    +0.000 Cl
ATOM     22  C   UNL     1       2.119   7.197  19.734  0.00  0.00    +0.000 A 
ENDBRANCH  14  15
BRANCH  14  24
ATOM     23  C   UNL     1       2.455   3.294  17.060  0.00  0.00    +0.000 C 
ATOM     24  C   UNL     1       2.068   4.530  17.856  0.00  0.00    +0.000 C 
ENDBRANCH  14  24
ENDBRANCH   1  14
TORSDOF 7
ENDMDL
MODEL 4
REMARK VINA RESULT:      -6.6      2.847      4.907
REMARK  Name = 
REMARK  10 active torsions:
REMARK  status: ('A' for Active; 'I' for Inactive)
REMARK    1  A    between atoms: C_1  and  C_2
REMARK    2  A    between atoms: C_2  and  C_3
REMARK    3  A    between atoms: C_3  and  C_4
REMARK    4  A    between atoms: C_3  and  N_12
REMARK    5  A    between atoms: C_13  and  C_14
REMARK    6  A    between atoms: C_14  and  O_16
REMARK    7  A    between atoms: O_16  and  C_17
REMARK    8  A    between atoms: C_17  and  C_18
REMARK    9  A    between atoms: C_17  and  C_19
REMARK   10  A    between atoms: C_22  and  S_23
REMARK                            x       y       z     vdW  Elec       q    Type
REMARK                         _______ _______ _______ _____ _____    ______ ____
ROOT
ATOM      1  N   UNL     1       4.650   4.304  17.929  0.00  0.00    +0.000 N 
ATOM      2  C   UNL     1       4.189   3.125  18.511  0.00  0.00    +0.000 A 
ATOM      3  C   UNL     1       3.799   2.344  17.436  0.00  0.00    +0.000 A 
ATOM      4  N   UNL     1       4.102   2.933  16.244  0.00  0.00    +0.000 NA
ATOM      5  C   UNL     1       4.654   4.074  16.566  0.00  0.00    +0.000 A 
ENDROOT
BRANCH   2   6
ATOM      6  C   UNL     1       4.135   2.770  19.906  0.00  0.00    +0.000 C 
ATOM      7  O   UNL     1       4.882   1.984  20.476  0.00  0.00    +0.000 OA
BRANCH   6   8
ATOM      8  O   UNL     1       3.111   3.434  20.521  0.00  0.00    +0.000 OA
BRANCH   8   9
ATOM      9  C   UNL     1       1.831   2.777  20.510  0.00  0.00    +0.000 C 
ATOM     10  C   UNL     1       1.337   2.594  21.942  0.00  0.00    +0.000 C 
ATOM     11  C   UNL     1       0.852   3.655  19.738  0.00  0.00    +0.000 C 
ENDBRANCH   8   9
ENDBRANCH   6   8
ENDBRANCH   2   6
BRANCH   5  12
ATOM     12  S   UNL     1       5.374   5.073  15.352  0.00  0.00    +0.000 S 
ATOM     13  H   UNL     1       5.007   4.297  14.315  0.00  0.00    +0.000 HD
ENDBRANCH   5  12
BRANCH   1  14
ATOM     14  C   UNL     1       5.056   5.552  18.620  0.00  0.00    +0.000 C 
BRANCH  14  15
ATOM     15  C   UNL     1       3.908   6.580  18.678  0.00  0.00    +0.000 A 
ATOM     16  C   UNL     1       3.661   7.425  17.584  0.00  0.00    +0.000 A 
ATOM     17  C   UNL     1       2.646   8.389  17.623  0.00  0.00    +0.000 A 
ATOM     18  C   UNL     1       1.807   8.492  18.731  0.00  0.00    +0.000 A 
ATOM     19 CL   UNL     1       0.561   9.688  18.692  0.00  0.00    +0.000 Cl
ATOM     20  C   UNL     1       1.987   7.625  19.808  0.00  0.00    +0.000 A 
ATOM     21 CL   UNL     1       0.931   7.623  21.178  0.00  0.00    +0.000 Cl
ATOM     22  C   UNL     1       3.038   6.694  19.785  0.00  0.00    +0.000 A 
ENDBRANCH  14  15
BRANCH  14  24
ATOM     23  C   UNL     1       7.644   5.809  18.935  0.00  0.00    +0.000 C 
ATOM     24  C   UNL     1       6.407   6.139  18.117  0.00  0.00    +0.000 C 
ENDBRANCH  14  24
ENDBRANCH   1  14
TORSDOF 7
ENDMDL
MODEL 5
REMARK VINA RESULT:      -6.5      1.137      1.769
REMARK  Name = 
REMARK  10 active torsions:
REMARK  status: ('A' for Active; 'I' for Inactive)
REMARK    1  A    between atoms: C_1  and  C_2
REMARK    2  A    between atoms: C_2  and  C_3
REMARK    3  A    between atoms: C_3  and  C_4
REMARK    4  A    between atoms: C_3  and  N_12
REMARK    5  A    between atoms: C_13  and  C_14
REMARK    6  A    between atoms: C_14  and  O_16
REMARK    7  A    between atoms: O_16  and  C_17
REMARK    8  A    between atoms: C_17  and  C_18
REMARK    9  A    between atoms: C_17  and  C_19
REMARK   10  A    between atoms: C_22  and  S_23
REMARK                            x       y       z     vdW  Elec       q    Type
REMARK                         _______ _______ _______ _____ _____    ______ ____
ROOT
ATOM      1  N   UNL     1       4.930   5.216  18.026  0.00  0.00    +0.000 N 
ATOM      2  C   UNL     1       6.097   5.638  17.392  0.00  0.00    +0.000 A 
ATOM      3  C   UNL     1       7.095   5.397  18.322  0.00  0.00    +0.000 A 
ATOM      4  N   UNL     1       6.618   4.754  19.425  0.00  0.00    +0.000 NA
ATOM      5  C   UNL     1       5.336   4.612  19.201  0.00  0.00    +0.000 A 
ENDROOT
BRANCH   2   6
ATOM      6  C   UNL     1       6.258   6.186  16.070  0.00  0.00    +0.000 C 
ATOM      7  O   UNL     1       5.528   7.018  15.545  0.00  0.00    +0.000 OA
BRANCH   6   8
ATOM      8  O   UNL     1       7.351   5.636  15.464  0.00  0.00    +0.000 OA
BRANCH   8   9
ATOM      9  C   UNL     1       7.091   4.593  14.507  0.00  0.00    +0.000 C 
ATOM     10  C   UNL     1       5.593   4.312  14.451  0.00  0.00    +0.000 C 
ATOM     11  C   UNL     1       7.575   5.068  13.141  0.00  0.00    +0.000 C 
ENDBRANCH   8   9
ENDBRANCH   6   8
ENDBRANCH   2   6
BRANCH   5  12
ATOM     12  S   UNL     1       4.358   3.666  20.269  0.00  0.00    +0.000 S 
ATOM     13  H   UNL     1       4.710   4.331  21.385  0.00  0.00    +0.000 HD
ENDBRANCH   5  12
BRANCH   1  14
ATOM     14  C   UNL     1       3.535   5.376  17.547  0.00  0.00    +0.000 C 
BRANCH  14  15
ATOM     15  C   UNL     1       2.869   6.642  18.122  0.00  0.00    +0.000 A 
ATOM     16  C   UNL     1       2.645   7.758  17.298  0.00  0.00    +0.000 A 
ATOM     17  C   UNL     1       2.071   8.931  17.802  0.00  0.00    +0.000 A 
ATOM     18  C   UNL     1       1.644   9.001  19.127  0.00  0.00    +0.000 A 
ATOM     19 CL   UNL     1       0.922  10.474  19.666  0.00  0.00    +0.000 Cl
ATOM     20  C   UNL     1       1.796   7.888  19.953  0.00  0.00    +0.000 A 
ATOM     21 CL   UNL     1       1.206   7.859  21.579  0.00  0.00    +0.000 Cl
ATOM     22  C   UNL     1       2.417   6.731  19.457  0.00  0.00    +0.000 A 
ENDBRANCH  14  15
BRANCH  14  24
ATOM     23  C   UNL     1       1.169   4.252  17.522  0.00  0.00    +0.000 C 
ATOM     24  C   UNL     1       2.672   4.088  17.681  0.00  0.00    +0.000 C 
ENDBRANCH  14  24
ENDBRANCH   1  14
TORSDOF 7
ENDMDL
MODEL 6
REMARK VINA RESULT:      -6.4      2.204      4.304
REMARK  Name = 
REMARK  10 active torsions:
REMARK  status: ('A' for Active; 'I' for Inactive)
REMARK    1  A    between atoms: C_1  and  C_2
REMARK    2  A    between atoms: C_2  and  C_3
REMARK    3  A    between atoms: C_3  and  C_4
REMARK    4  A    between atoms: C_3  and  N_12
REMARK    5  A    between atoms: C_13  and  C_14
REMARK    6  A    between atoms: C_14  and  O_16
REMARK    7  A    between atoms: O_16  and  C_17
REMARK    8  A    between atoms: C_17  and  C_18
REMARK    9  A    between atoms: C_17  and  C_19
REMARK   10  A    between atoms: C_22  and  S_23
REMARK                            x       y       z     vdW  Elec       q    Type
REMARK                         _______ _______ _______ _____ _____    ______ ____
ROOT
ATOM      1  N   UNL     1       4.552   5.197  18.369  0.00  0.00    +0.000 N 
ATOM      2  C   UNL     1       3.573   4.221  18.542  0.00  0.00    +0.000 A 
ATOM      3  C   UNL     1       4.244   3.169  19.145  0.00  0.00    +0.000 A 
ATOM      4  N   UNL     1       5.532   3.496  19.448  0.00  0.00    +0.000 NA
ATOM      5  C   UNL     1       5.674   4.725  19.023  0.00  0.00    +0.000 A 
ENDROOT
BRANCH   2   6
ATOM      6  C   UNL     1       2.176   4.273  18.197  0.00  0.00    +0.000 C 
ATOM      7  O   UNL     1       1.709   4.136  17.073  0.00  0.00    +0.000 OA
BRANCH   6   8
ATOM      8  O   UNL     1       1.425   4.510  19.313  0.00  0.00    +0.000 OA
BRANCH   8   9
ATOM      9  C   UNL     1       0.685   3.390  19.831  0.00  0.00    +0.000 C 
ATOM     10  C   UNL     1       0.766   2.224  18.851  0.00  0.00    +0.000 C 
ATOM     11  C   UNL     1       1.306   2.984  21.164  0.00  0.00    +0.000 C 
ENDBRANCH   8   9
ENDBRANCH   6   8
ENDBRANCH   2   6
BRANCH   5  12
ATOM     12  S   UNL     1       7.114   5.615  19.379  0.00  0.00    +0.000 S 
ATOM     13  H   UNL     1       7.378   5.946  18.101  0.00  0.00    +0.000 HD
ENDBRANCH   5  12
BRANCH   1  14
ATOM     14  C   UNL     1       4.425   6.482  17.639  0.00  0.00    +0.000 C 
BRANCH  14  15
ATOM     15  C   UNL     1       3.281   7.352  18.197  0.00  0.00    +0.000 A 
ATOM     16  C   UNL     1       2.617   8.265  17.362  0.00  0.00    +0.000 A 
ATOM     17  C   UNL     1       1.597   9.091  17.850  0.00  0.00    +0.000 A 
ATOM     18  C   UNL     1       1.167   8.982  19.171  0.00  0.00    +0.000 A 
ATOM     19 CL   UNL     1      -0.115  10.017  19.691  0.00  0.00    +0.000 Cl
ATOM     20  C   UNL     1       1.764   8.041  20.009  0.00  0.00    +0.000 A 
ATOM     21 CL   UNL     1       1.225   7.776  21.631  0.00  0.00    +0.000 Cl
ATOM     22  C   UNL     1       2.820   7.250  19.529  0.00  0.00    +0.000 A 
ENDBRANCH  14  15
BRANCH  14  24
ATOM     23  C   UNL     1       5.596   5.624  15.458  0.00  0.00    +0.000 C 
ATOM     24  C   UNL     1       4.406   6.327  16.091  0.00  0.00    +0.000 C 
ENDBRANCH  14  24
ENDBRANCH   1  14
TORSDOF 7
ENDMDL
MODEL 7
REMARK VINA RESULT:      -6.3      3.982      6.361
REMARK  Name = 
REMARK  10 active torsions:
REMARK  status: ('A' for Active; 'I' for Inactive)
REMARK    1  A    between atoms: C_1  and  C_2
REMARK    2  A    between atoms: C_2  and  C_3
REMARK    3  A    between atoms: C_3  and  C_4
REMARK    4  A    between atoms: C_3  and  N_12
REMARK    5  A    between atoms: C_13  and  C_14
REMARK    6  A    between atoms: C_14  and  O_16
REMARK    7  A    between atoms: O_16  and  C_17
REMARK    8  A    between atoms: C_17  and  C_18
REMARK    9  A    between atoms: C_17  and  C_19
REMARK   10  A    between atoms: C_22  and  S_23
REMARK                            x       y       z     vdW  Elec       q    Type
REMARK                         _______ _______ _______ _____ _____    ______ ____
ROOT
ATOM      1  N   UNL     1       5.999   5.735  18.033  0.00  0.00    +0.000 N 
ATOM      2  C   UNL     1       5.943   4.850  19.108  0.00  0.00    +0.000 A 
ATOM      3  C   UNL     1       7.150   5.032  19.762  0.00  0.00    +0.000 A 
ATOM      4  N   UNL     1       7.876   6.048  19.215  0.00  0.00    +0.000 NA
ATOM      5  C   UNL     1       7.146   6.483  18.221  0.00  0.00    +0.000 A 
ENDROOT
BRANCH   2   6
ATOM      6  C   UNL     1       4.880   3.954  19.483  0.00  0.00    +0.000 C 
ATOM      7  O   UNL     1       4.974   2.739  19.605  0.00  0.00    +0.000 OA
BRANCH   6   8
ATOM      8  O   UNL     1       3.723   4.655  19.681  0.00  0.00    +0.000 OA
BRANCH   8   9
ATOM      9  C   UNL     1       2.498   3.930  19.474  0.00  0.00    +0.000 C 
ATOM     10  C   UNL     1       1.405   4.504  20.370  0.00  0.00    +0.000 C 
ATOM     11  C   UNL     1       2.095   4.085  18.011  0.00  0.00    +0.000 C 
ENDBRANCH   8   9
ENDBRANCH   6   8
ENDBRANCH   2   6
BRANCH   5  12
ATOM     12  S   UNL     1       7.601   7.911  17.358  0.00  0.00    +0.000 S 
ATOM     13  H   UNL     1       7.554   7.343  16.139  0.00  0.00    +0.000 HD
ENDBRANCH   5  12
BRANCH   1  14
ATOM     14  C   UNL     1       5.033   5.858  16.915  0.00  0.00    +0.000 C 
BRANCH  14  15
ATOM     15  C   UNL     1       5.559   5.202  15.622  0.00  0.00    +0.000 A 
ATOM     16  C   UNL     1       4.855   4.139  15.033  0.00  0.00    +0.000 A 
ATOM     17  C   UNL     1       5.327   3.504  13.878  0.00  0.00    +0.000 A 
ATOM     18  C   UNL     1       6.482   3.957  13.241  0.00  0.00    +0.000 A 
ATOM     19 CL   UNL     1       6.985   3.138  11.805  0.00  0.00    +0.000 Cl
ATOM     20  C   UNL     1       7.168   5.050  13.766  0.00  0.00    +0.000 A 
ATOM     21 CL   UNL     1       8.552   5.733  12.984  0.00  0.00    +0.000 Cl
ATOM     22  C   UNL     1       6.719   5.651  14.952  0.00  0.00    +0.000 A 
ENDBRANCH  14  15
BRANCH  14  24
ATOM     23  C   UNL     1       3.350   7.733  17.632  0.00  0.00    +0.000 C 
ATOM     24  C   UNL     1       4.481   7.299  16.715  0.00  0.00    +0.000 C 
ENDBRANCH  14  24
ENDBRANCH   1  14
TORSDOF 7
ENDMDL
MODEL 8
REMARK VINA RESULT:      -6.3      3.209      4.410
REMARK  Name = 
REMARK  10 active torsions:
REMARK  status: ('A' for Active; 'I' for Inactive)
REMARK    1  A    between atoms: C_1  and  C_2
REMARK    2  A    between atoms: C_2  and  C_3
REMARK    3  A    between atoms: C_3  and  C_4
REMARK    4  A    between atoms: C_3  and  N_12
REMARK    5  A    between atoms: C_13  and  C_14
REMARK    6  A    between atoms: C_14  and  O_16
REMARK    7  A    between atoms: O_16  and  C_17
REMARK    8  A    between atoms: C_17  and  C_18
REMARK    9  A    between atoms: C_17  and  C_19
REMARK   10  A    between atoms: C_22  and  S_23
REMARK                            x       y       z     vdW  Elec       q    Type
REMARK                         _______ _______ _______ _____ _____    ______ ____
ROOT
ATOM      1  N   UNL     1       5.266   5.719  17.057  0.00  0.00    +0.000 N 
ATOM      2  C   UNL     1       5.906   5.830  15.825  0.00  0.00    +0.000 A 
ATOM      3  C   UNL     1       5.216   6.839  15.173  0.00  0.00    +0.000 A 
ATOM      4  N   UNL     1       4.280   7.417  15.978  0.00  0.00    +0.000 NA
ATOM      5  C   UNL     1       4.366   6.766  17.110  0.00  0.00    +0.000 A 
ENDROOT
BRANCH   2   6
ATOM      6  C   UNL     1       7.035   5.089  15.325  0.00  0.00    +0.000 C 
ATOM      7  O   UNL     1       7.873   4.512  16.006  0.00  0.00    +0.000 OA
BRANCH   6   8
ATOM      8  O   UNL     1       7.052   5.123  13.959  0.00  0.00    +0.000 OA
BRANCH   8   9
ATOM      9  C   UNL     1       6.703   3.900  13.288  0.00  0.00    +0.000 C 
ATOM     10  C   UNL     1       5.186   3.745  13.260  0.00  0.00    +0.000 C 
ATOM     11  C   UNL     1       7.238   3.970  11.861  0.00  0.00    +0.000 C 
ENDBRANCH   8   9
ENDBRANCH   6   8
ENDBRANCH   2   6
BRANCH   5  12
ATOM     12  S   UNL     1       3.481   7.300  18.497  0.00  0.00    +0.000 S 
ATOM     13  H   UNL     1       3.134   8.491  17.974  0.00  0.00    +0.000 HD
ENDBRANCH   5  12
BRANCH   1  14
ATOM     14  C   UNL     1       5.497   4.694  18.104  0.00  0.00    +0.000 C 
BRANCH  14  15
ATOM     15  C   UNL     1       4.216   3.898  18.426  0.00  0.00    +0.000 A 
ATOM     16  C   UNL     1       3.514   3.247  17.399  0.00  0.00    +0.000 A 
ATOM     17  C   UNL     1       2.331   2.544  17.658  0.00  0.00    +0.000 A 
ATOM     18  C   UNL     1       1.851   2.417  18.960  0.00  0.00    +0.000 A 
ATOM     19 CL   UNL     1       0.399   1.512  19.202  0.00  0.00    +0.000 Cl
ATOM     20  C   UNL     1       2.560   3.000  20.009  0.00  0.00    +0.000 A 
ATOM     21 CL   UNL     1       2.086   2.808  21.662  0.00  0.00    +0.000 Cl
ATOM     22  C   UNL     1       3.718   3.746  19.739  0.00  0.00    +0.000 A 
ENDBRANCH  14  15
BRANCH  14  24
ATOM     23  C   UNL     1       7.625   5.818  19.140  0.00  0.00    +0.000 C 
ATOM     24  C   UNL     1       6.239   5.234  19.361  0.00  0.00    +0.000 C 
ENDBRANCH  14  24
ENDBRANCH   1  14
TORSDOF 7
ENDMDL
MODEL 9
REMARK VINA RESULT:      -6.2      3.744      6.531
REMARK  Name = 
REMARK  10 active torsions:
REMARK  status: ('A' for Active; 'I' for Inactive)
REMARK    1  A    between atoms: C_1  and  C_2
REMARK    2  A    between atoms: C_2  and  C_3
REMARK    3  A    between atoms: C_3  and  C_4
REMARK    4  A    between atoms: C_3  and  N_12
REMARK    5  A    between atoms: C_13  and  C_14
REMARK    6  A    between atoms: C_14  and  O_16
REMARK    7  A    between atoms: O_16  and  C_17
REMARK    8  A    between atoms: C_17  and  C_18
REMARK    9  A    between atoms: C_17  and  C_19
REMARK   10  A    between atoms: C_22  and  S_23
REMARK                            x       y       z     vdW  Elec       q    Type
REMARK                         _______ _______ _______ _____ _____    ______ ____
ROOT
ATOM      1  N   UNL     1       4.811   4.710  17.721  0.00  0.00    +0.000 N 
ATOM      2  C   UNL     1       3.914   3.810  18.293  0.00  0.00    +0.000 A 
ATOM      3  C   UNL     1       4.652   3.174  19.278  0.00  0.00    +0.000 A 
ATOM      4  N   UNL     1       5.896   3.715  19.410  0.00  0.00    +0.000 NA
ATOM      5  C   UNL     1       5.946   4.661  18.507  0.00  0.00    +0.000 A 
ENDROOT
BRANCH   2   6
ATOM      6  C   UNL     1       2.530   3.584  17.964  0.00  0.00    +0.000 C 
ATOM      7  O   UNL     1       2.106   2.744  17.181  0.00  0.00    +0.000 OA
BRANCH   6   8
ATOM      8  O   UNL     1       1.735   4.457  18.652  0.00  0.00    +0.000 OA
BRANCH   8   9
ATOM      9  C   UNL     1       1.967   4.547  20.069  0.00  0.00    +0.000 C 
ATOM     10  C   UNL     1       1.587   5.938  20.564  0.00  0.00    +0.000 C 
ATOM     11  C   UNL     1       1.099   3.501  20.761  0.00  0.00    +0.000 C 
ENDBRANCH   8   9
ENDBRANCH   6   8
ENDBRANCH   2   6
BRANCH   5  12
ATOM     12  S   UNL     1       7.291   5.747  18.449  0.00  0.00    +0.000 S 
ATOM     13  H   UNL     1       6.549   6.869  18.475  0.00  0.00    +0.000 HD
ENDBRANCH   5  12
BRANCH   1  14
ATOM     14  C   UNL     1       4.599   5.553  16.519  0.00  0.00    +0.000 C 
BRANCH  14  15
ATOM     15  C   UNL     1       5.333   4.993  15.284  0.00  0.00    +0.000 A 
ATOM     16  C   UNL     1       4.775   3.930  14.554  0.00  0.00    +0.000 A 
ATOM     17  C   UNL     1       5.435   3.381  13.448  0.00  0.00    +0.000 A 
ATOM     18  C   UNL     1       6.640   3.921  13.001  0.00  0.00    +0.000 A 
ATOM     19 CL   UNL     1       7.380   3.204  11.613  0.00  0.00    +0.000 Cl
ATOM     20  C   UNL     1       7.188   5.015  13.667  0.00  0.00    +0.000 A 
ATOM     21 CL   UNL     1       8.627   5.804  13.120  0.00  0.00    +0.000 Cl
ATOM     22  C   UNL     1       6.548   5.531  14.806  0.00  0.00    +0.000 A 
ENDBRANCH  14  15
BRANCH  14  24
ATOM     23  C   UNL     1       3.731   7.835  17.469  0.00  0.00    +0.000 C 
ATOM     24  C   UNL     1       4.840   7.071  16.764  0.00  0.00    +0.000 C 
ENDBRANCH  14  24
ENDBRANCH   1  14
TORSDOF 7
ENDMDL
