MODEL 1
REMARK VINA RESULT:      -7.4      0.000      0.000
REMARK  Name = 
REMARK  4 active torsions:
REMARK  status: ('A' for Active; 'I' for Inactive)
REMARK    1  A    between atoms: C_1  and  N_2
REMARK    2  A    between atoms: C_3  and  O_5
REMARK    3  A    between atoms: O_5  and  C_6
REMARK    4  A    between atoms: C_11  and  C_12
REMARK                            x       y       z     vdW  Elec       q    Type
REMARK                         _______ _______ _______ _____ _____    ______ ____
ROOT
ATOM      1  C   UNL     1       4.415   4.981  17.585  0.00  0.00    +0.000 A 
ATOM      2  C   UNL     1       4.692   6.359  17.539  0.00  0.00    +0.000 A 
ATOM      3  C   UNL     1       3.684   7.298  17.730  0.00  0.00    +0.000 A 
ATOM      4  C   UNL     1       2.388   6.870  17.960  0.00  0.00    +0.000 A 
ATOM      5  C   UNL     1       2.120   5.505  18.057  0.00  0.00    +0.000 A 
ATOM      6  C   UNL     1       3.129   4.520  17.942  0.00  0.00    +0.000 A 
ENDROOT
BRANCH   6   7
ATOM      7  C   UNL     1       2.696   3.076  18.230  0.00  0.00    +0.000 C 
ATOM      8  C   UNL     1       3.437   2.246  19.293  0.00  0.00    +0.000 C 
ATOM      9  C   UNL     1       3.167   2.673  20.738  0.00  0.00    +0.000 C 
ATOM     10  C   UNL     1       1.710   2.991  21.072  0.00  0.00    +0.000 C 
ATOM     11  C   UNL     1       0.917   3.651  19.949  0.00  0.00    +0.000 C 
ATOM     12  C   UNL     1       1.189   2.992  18.602  0.00  0.00    +0.000 C 
ENDBRANCH   6   7
BRANCH   1  13
ATOM     13  O   UNL     1       5.450   4.056  17.302  0.00  0.00    +0.000 OA
BRANCH  13  16
ATOM     14  C   UNL     1       6.506   4.184  13.826  0.00  0.00    +0.000 C 
ATOM     15  N   UNL     1       5.822   3.916  15.067  0.00  0.00    +0.000 N 
ATOM     16  C   UNL     1       6.387   4.229  16.274  0.00  0.00    +0.000 C 
ATOM     17  O   UNL     1       7.538   4.620  16.404  0.00  0.00    +0.000 OA
ATOM     18  H   UNL     1       4.830   3.730  15.069  0.00  0.00    +0.000 HD
ENDBRANCH  13  16
ENDBRANCH   1  13
TORSDOF 3
ENDMDL
MODEL 2
REMARK VINA RESULT:      -7.4      0.811      1.473
REMARK  Name = 
REMARK  4 active torsions:
REMARK  status: ('A' for Active; 'I' for Inactive)
REMARK    1  A    between atoms: C_1  and  N_2
REMARK    2  A    between atoms: C_3  and  O_5
REMARK    3  A    between atoms: O_5  and  C_6
REMARK    4  A    between atoms: C_11  and  C_12
REMARK                            x       y       z     vdW  Elec       q    Type
REMARK                         _______ _______ _______ _____ _____    ______ ____
ROOT
ATOM      1  C   UNL     1       4.693   5.560  17.796  0.00  0.00    +0.000 A 
ATOM      2  C   UNL     1       4.585   6.874  17.310  0.00  0.00    +0.000 A 
ATOM      3  C   UNL     1       3.445   7.633  17.548  0.00  0.00    +0.000 A 
ATOM      4  C   UNL     1       2.397   7.083  18.266  0.00  0.00    +0.000 A 
ATOM      5  C   UNL     1       2.522   5.798  18.792  0.00  0.00    +0.000 A 
ATOM      6  C   UNL     1       3.694   5.021  18.636  0.00  0.00    +0.000 A 
ENDROOT
BRANCH   6   7
ATOM      7  C   UNL     1       3.731   3.695  19.408  0.00  0.00    +0.000 C 
ATOM      8  C   UNL     1       2.697   3.418  20.513  0.00  0.00    +0.000 C 
ATOM      9  C   UNL     1       1.278   3.147  20.006  0.00  0.00    +0.000 C 
ATOM     10  C   UNL     1       1.175   2.232  18.787  0.00  0.00    +0.000 C 
ATOM     11  C   UNL     1       2.304   2.375  17.772  0.00  0.00    +0.000 C 
ATOM     12  C   UNL     1       3.666   2.472  18.451  0.00  0.00    +0.000 C 
ENDBRANCH   6   7
BRANCH   1  13
ATOM     13  O   UNL     1       5.834   4.789  17.461  0.00  0.00    +0.000 OA
BRANCH  13  16
ATOM     14  C   UNL     1       6.208   3.921  13.952  0.00  0.00    +0.000 C 
ATOM     15  N   UNL     1       5.877   3.944  15.355  0.00  0.00    +0.000 N 
ATOM     16  C   UNL     1       6.466   4.836  16.211  0.00  0.00    +0.000 C 
ATOM     17  O   UNL     1       7.391   5.570  15.896  0.00  0.00    +0.000 OA
ATOM     18  H   UNL     1       5.040   3.487  15.686  0.00  0.00    +0.000 HD
ENDBRANCH  13  16
ENDBRANCH   1  13
TORSDOF 3
ENDMDL
MODEL 3
REMARK VINA RESULT:      -7.3      1.735      2.436
REMARK  Name = 
REMARK  4 active torsions:
REMARK  status: ('A' for Active; 'I' for Inactive)
REMARK    1  A    between atoms: C_1  and  N_2
REMARK    2  A    between atoms: C_3  and  O_5
REMARK    3  A    between atoms: O_5  and  C_6
REMARK    4  A    between atoms: C_11  and  C_12
REMARK                            x       y       z     vdW  Elec       q    Type
REMARK                         _______ _______ _______ _____ _____    ______ ____
ROOT
ATOM      1  C   UNL     1       4.506   5.499  17.857  0.00  0.00    +0.000 A 
ATOM      2  C   UNL     1       4.514   6.770  17.256  0.00  0.00    +0.000 A 
ATOM      3  C   UNL     1       3.471   7.666  17.465  0.00  0.00    +0.000 A 
ATOM      4  C   UNL     1       2.405   7.297  18.267  0.00  0.00    +0.000 A 
ATOM      5  C   UNL     1       2.419   6.057  18.905  0.00  0.00    +0.000 A 
ATOM      6  C   UNL     1       3.495   5.147  18.778  0.00  0.00    +0.000 A 
ENDROOT
BRANCH   6   7
ATOM      7  C   UNL     1       3.429   3.898  19.667  0.00  0.00    +0.000 C 
ATOM      8  C   UNL     1       2.299   3.747  20.701  0.00  0.00    +0.000 C 
ATOM      9  C   UNL     1       0.920   3.461  20.101  0.00  0.00    +0.000 C 
ATOM     10  C   UNL     1       0.892   2.440  18.965  0.00  0.00    +0.000 C 
ATOM     11  C   UNL     1       2.105   2.464  18.041  0.00  0.00    +0.000 C 
ATOM     12  C   UNL     1       3.407   2.593  18.823  0.00  0.00    +0.000 C 
ENDBRANCH   6   7
BRANCH   1  13
ATOM     13  O   UNL     1       5.544   4.583  17.553  0.00  0.00    +0.000 OA
BRANCH  13  16
ATOM     14  C   UNL     1       8.211   5.470  19.858  0.00  0.00    +0.000 C 
ATOM     15  N   UNL     1       6.953   5.338  19.165  0.00  0.00    +0.000 N 
ATOM     16  C   UNL     1       6.883   4.777  17.917  0.00  0.00    +0.000 C 
ATOM     17  O   UNL     1       7.863   4.478  17.251  0.00  0.00    +0.000 OA
ATOM     18  H   UNL     1       6.084   5.420  19.671  0.00  0.00    +0.000 HD
ENDBRANCH  13  16
ENDBRANCH   1  13
TORSDOF 3
ENDMDL
MODEL 4
REMARK VINA RESULT:      -7.1      1.612      2.672
REMARK  Name = 
REMARK  4 active torsions:
REMARK  status: ('A' for Active; 'I' for Inactive)
REMARK    1  A    between atoms: C_1  and  N_2
REMARK    2  A    between atoms: C_3  and  O_5
REMARK    3  A    between atoms: O_5  and  C_6
REMARK    4  A    between atoms: C_11  and  C_12
REMARK                            x       y       z     vdW  Elec       q    Type
REMARK                         _______ _______ _______ _____ _____    ______ ____
ROOT
ATOM      1  C   UNL     1       5.861   4.531  16.787  0.00  0.00    +0.000 A 
ATOM      2  C   UNL     1       7.225   4.602  17.121  0.00  0.00    +0.000 A 
ATOM      3  C   UNL     1       7.633   5.070  18.365  0.00  0.00    +0.000 A 
ATOM      4  C   UNL     1       6.683   5.480  19.285  0.00  0.00    +0.000 A 
ATOM      5  C   UNL     1       5.329   5.362  18.976  0.00  0.00    +0.000 A 
ATOM      6  C   UNL     1       4.871   4.823  17.751  0.00  0.00    +0.000 A 
ENDROOT
BRANCH   6   7
ATOM      7  C   UNL     1       3.354   4.617  17.631  0.00  0.00    +0.000 C 
ATOM      8  C   UNL     1       2.799   3.300  17.062  0.00  0.00    +0.000 C 
ATOM      9  C   UNL     1       2.944   2.092  17.991  0.00  0.00    +0.000 C 
ATOM     10  C   UNL     1       2.617   2.346  19.462  0.00  0.00    +0.000 C 
ATOM     11  C   UNL     1       3.003   3.726  19.983  0.00  0.00    +0.000 C 
ATOM     12  C   UNL     1       2.637   4.826  18.993  0.00  0.00    +0.000 C 
ENDBRANCH   6   7
BRANCH   1  13
ATOM     13  O   UNL     1       5.487   4.130  15.481  0.00  0.00    +0.000 OA
BRANCH  13  16
ATOM     14  C   UNL     1       6.683   3.482  12.110  0.00  0.00    +0.000 C 
ATOM     15  N   UNL     1       6.156   3.372  13.448  0.00  0.00    +0.000 N 
ATOM     16  C   UNL     1       6.242   4.413  14.334  0.00  0.00    +0.000 C 
ATOM     17  O   UNL     1       6.874   5.437  14.120  0.00  0.00    +0.000 OA
ATOM     18  H   UNL     1       5.503   2.638  13.677  0.00  0.00    +0.000 HD
ENDBRANCH  13  16
ENDBRANCH   1  13
TORSDOF 3
ENDMDL
MODEL 5
REMARK VINA RESULT:      -7.1      1.642      2.530
REMARK  Name = 
REMARK  4 active torsions:
REMARK  status: ('A' for Active; 'I' for Inactive)
REMARK    1  A    between atoms: C_1  and  N_2
REMARK    2  A    between atoms: C_3  and  O_5
REMARK    3  A    between atoms: O_5  and  C_6
REMARK    4  A    between atoms: C_11  and  C_12
REMARK                            x       y       z     vdW  Elec       q    Type
REMARK                         _______ _______ _______ _____ _____    ______ ____
ROOT
ATOM      1  C   UNL     1       6.014   4.377  16.890  0.00  0.00    +0.000 A 
ATOM      2  C   UNL     1       7.205   5.105  17.056  0.00  0.00    +0.000 A 
ATOM      3  C   UNL     1       7.540   5.657  18.287  0.00  0.00    +0.000 A 
ATOM      4  C   UNL     1       6.685   5.495  19.363  0.00  0.00    +0.000 A 
ATOM      5  C   UNL     1       5.528   4.730  19.215  0.00  0.00    +0.000 A 
ATOM      6  C   UNL     1       5.188   4.090  18.000  0.00  0.00    +0.000 A 
ENDROOT
BRANCH   6   7
ATOM      7  C   UNL     1       3.968   3.159  18.047  0.00  0.00    +0.000 C 
ATOM      8  C   UNL     1       3.431   2.663  19.400  0.00  0.00    +0.000 C 
ATOM      9  C   UNL     1       2.717   3.730  20.234  0.00  0.00    +0.000 C 
ATOM     10  C   UNL     1       1.768   4.647  19.462  0.00  0.00    +0.000 C 
ATOM     11  C   UNL     1       2.212   4.995  18.046  0.00  0.00    +0.000 C 
ATOM     12  C   UNL     1       2.748   3.774  17.306  0.00  0.00    +0.000 C 
ENDBRANCH   6   7
BRANCH   1  13
ATOM     13  O   UNL     1       5.665   3.902  15.601  0.00  0.00    +0.000 OA
BRANCH  13  16
ATOM     14  C   UNL     1       6.649   3.528  12.122  0.00  0.00    +0.000 C 
ATOM     15  N   UNL     1       6.230   3.308  13.484  0.00  0.00    +0.000 N 
ATOM     16  C   UNL     1       6.313   4.301  14.424  0.00  0.00    +0.000 C 
ATOM     17  O   UNL     1       6.859   5.377  14.229  0.00  0.00    +0.000 OA
ATOM     18  H   UNL     1       5.644   2.519  13.714  0.00  0.00    +0.000 HD
ENDBRANCH  13  16
ENDBRANCH   1  13
TORSDOF 3
ENDMDL
MODEL 6
REMARK VINA RESULT:      -7.0      2.934      4.326
REMARK  Name = 
REMARK  4 active torsions:
REMARK  status: ('A' for Active; 'I' for Inactive)
REMARK    1  A    between atoms: C_1  and  N_2
REMARK    2  A    between atoms: C_3  and  O_5
REMARK    3  A    between atoms: O_5  and  C_6
REMARK    4  A    between atoms: C_11  and  C_12
REMARK                            x       y       z     vdW  Elec       q    Type
REMARK                         _______ _______ _______ _____ _____    ______ ____
ROOT
ATOM      1  C   UNL     1       3.401   6.167  18.095  0.00  0.00    +0.000 A 
ATOM      2  C   UNL     1       4.512   6.434  17.275  0.00  0.00    +0.000 A 
ATOM      3  C   UNL     1       5.097   5.429  16.514  0.00  0.00    +0.000 A 
ATOM      4  C   UNL     1       4.585   4.144  16.571  0.00  0.00    +0.000 A 
ATOM      5  C   UNL     1       3.453   3.887  17.344  0.00  0.00    +0.000 A 
ATOM      6  C   UNL     1       2.784   4.897  18.074  0.00  0.00    +0.000 A 
ENDROOT
BRANCH   6   7
ATOM      7  C   UNL     1       1.466   4.483  18.744  0.00  0.00    +0.000 C 
ATOM      8  C   UNL     1       1.035   3.006  18.748  0.00  0.00    +0.000 C 
ATOM      9  C   UNL     1       1.854   2.105  19.676  0.00  0.00    +0.000 C 
ATOM     10  C   UNL     1       2.168   2.686  21.054  0.00  0.00    +0.000 C 
ATOM     11  C   UNL     1       2.417   4.190  21.081  0.00  0.00    +0.000 C 
ATOM     12  C   UNL     1       1.405   4.946  20.227  0.00  0.00    +0.000 C 
ENDBRANCH   6   7
BRANCH   1  13
ATOM     13  O   UNL     1       2.885   7.197  18.920  0.00  0.00    +0.000 OA
BRANCH  13  16
ATOM     14  C   UNL     1       0.719  10.097  19.248  0.00  0.00    +0.000 C 
ATOM     15  N   UNL     1       1.405   8.842  19.427  0.00  0.00    +0.000 N 
ATOM     16  C   UNL     1       2.175   8.302  18.431  0.00  0.00    +0.000 C 
ATOM     17  O   UNL     1       2.233   8.754  17.297  0.00  0.00    +0.000 OA
ATOM     18  H   UNL     1       1.538   8.464  20.354  0.00  0.00    +0.000 HD
ENDBRANCH  13  16
ENDBRANCH   1  13
TORSDOF 3
ENDMDL
MODEL 7
REMARK VINA RESULT:      -7.0      2.301      4.947
REMARK  Name = 
REMARK  4 active torsions:
REMARK  status: ('A' for Active; 'I' for Inactive)
REMARK    1  A    between atoms: C_1  and  N_2
REMARK    2  A    between atoms: C_3  and  O_5
REMARK    3  A    between atoms: O_5  and  C_6
REMARK    4  A    between atoms: C_11  and  C_12
REMARK                            x       y       z     vdW  Elec       q    Type
REMARK                         _______ _______ _______ _____ _____    ______ ____
ROOT
ATOM      1  C   UNL     1       3.860   4.646  17.571  0.00  0.00    +0.000 A 
ATOM      2  C   UNL     1       2.534   4.996  17.878  0.00  0.00    +0.000 A 
ATOM      3  C   UNL     1       2.166   6.326  18.048  0.00  0.00    +0.000 A 
ATOM      4  C   UNL     1       3.122   7.319  17.921  0.00  0.00    +0.000 A 
ATOM      5  C   UNL     1       4.426   6.979  17.566  0.00  0.00    +0.000 A 
ATOM      6  C   UNL     1       4.824   5.645  17.313  0.00  0.00    +0.000 A 
ENDROOT
BRANCH   6   7
ATOM      7  C   UNL     1       6.251   5.457  16.781  0.00  0.00    +0.000 C 
ATOM      8  C   UNL     1       7.081   6.680  16.353  0.00  0.00    +0.000 C 
ATOM      9  C   UNL     1       7.569   7.556  17.510  0.00  0.00    +0.000 C 
ATOM     10  C   UNL     1       8.111   6.804  18.725  0.00  0.00    +0.000 C 
ATOM     11  C   UNL     1       7.404   5.492  19.044  0.00  0.00    +0.000 C 
ATOM     12  C   UNL     1       7.140   4.672  17.786  0.00  0.00    +0.000 C 
ENDBRANCH   6   7
BRANCH   1  13
ATOM     13  O   UNL     1       4.214   3.276  17.490  0.00  0.00    +0.000 OA
BRANCH  13  16
ATOM     14  C   UNL     1       4.725   1.743  20.746  0.00  0.00    +0.000 C 
ATOM     15  N   UNL     1       4.874   2.455  19.501  0.00  0.00    +0.000 N 
ATOM     16  C   UNL     1       3.946   2.342  18.500  0.00  0.00    +0.000 C 
ATOM     17  O   UNL     1       3.017   1.549  18.522  0.00  0.00    +0.000 OA
ATOM     18  H   UNL     1       5.516   3.231  19.434  0.00  0.00    +0.000 HD
ENDBRANCH  13  16
ENDBRANCH   1  13
TORSDOF 3
ENDMDL
MODEL 8
REMARK VINA RESULT:      -7.0      1.001      1.167
REMARK  Name = 
REMARK  4 active torsions:
REMARK  status: ('A' for Active; 'I' for Inactive)
REMARK    1  A    between atoms: C_1  and  N_2
REMARK    2  A    between atoms: C_3  and  O_5
REMARK    3  A    between atoms: O_5  and  C_6
REMARK    4  A    between atoms: C_11  and  C_12
REMARK                            x       y       z     vdW  Elec       q    Type
REMARK                         _______ _______ _______ _____ _____    ______ ____
ROOT
ATOM      1  C   UNL     1       4.946   4.779  16.849  0.00  0.00    +0.000 A 
ATOM      2  C   UNL     1       5.069   6.161  16.625  0.00  0.00    +0.000 A 
ATOM      3  C   UNL     1       4.186   7.061  17.211  0.00  0.00    +0.000 A 
ATOM      4  C   UNL     1       3.167   6.589  18.019  0.00  0.00    +0.000 A 
ATOM      5  C   UNL     1       3.074   5.223  18.284  0.00  0.00    +0.000 A 
ATOM      6  C   UNL     1       3.996   4.282  17.767  0.00  0.00    +0.000 A 
ENDROOT
BRANCH   6   7
ATOM      7  C   UNL     1       3.848   2.843  18.280  0.00  0.00    +0.000 C 
ATOM      8  C   UNL     1       3.933   2.550  19.788  0.00  0.00    +0.000 C 
ATOM      9  C   UNL     1       2.724   3.021  20.599  0.00  0.00    +0.000 C 
ATOM     10  C   UNL     1       1.358   2.751  19.968  0.00  0.00    +0.000 C 
ATOM     11  C   UNL     1       1.313   2.862  18.448  0.00  0.00    +0.000 C 
ATOM     12  C   UNL     1       2.520   2.195  17.797  0.00  0.00    +0.000 C 
ENDBRANCH   6   7
BRANCH   1  13
ATOM     13  O   UNL     1       5.812   3.887  16.167  0.00  0.00    +0.000 OA
BRANCH  13  16
ATOM     14  C   UNL     1       6.606   3.822  12.621  0.00  0.00    +0.000 C 
ATOM     15  N   UNL     1       6.135   3.521  13.950  0.00  0.00    +0.000 N 
ATOM     16  C   UNL     1       6.559   4.241  15.036  0.00  0.00    +0.000 C 
ATOM     17  O   UNL     1       7.447   5.080  14.990  0.00  0.00    +0.000 OA
ATOM     18  H   UNL     1       5.311   2.954  14.081  0.00  0.00    +0.000 HD
ENDBRANCH  13  16
ENDBRANCH   1  13
TORSDOF 3
ENDMDL
MODEL 9
REMARK VINA RESULT:      -7.0      1.665      2.236
REMARK  Name = 
REMARK  4 active torsions:
REMARK  status: ('A' for Active; 'I' for Inactive)
REMARK    1  A    between atoms: C_1  and  N_2
REMARK    2  A    between atoms: C_3  and  O_5
REMARK    3  A    between atoms: O_5  and  C_6
REMARK    4  A    between atoms: C_11  and  C_12
REMARK                            x       y       z     vdW  Elec       q    Type
REMARK                         _______ _______ _______ _____ _____    ______ ____
ROOT
ATOM      1  C   UNL     1       3.345   6.219  18.022  0.00  0.00    +0.000 A 
ATOM      2  C   UNL     1       3.112   7.577  17.748  0.00  0.00    +0.000 A 
ATOM      3  C   UNL     1       2.350   8.360  18.609  0.00  0.00    +0.000 A 
ATOM      4  C   UNL     1       1.806   7.790  19.747  0.00  0.00    +0.000 A 
ATOM      5  C   UNL     1       2.078   6.456  20.047  0.00  0.00    +0.000 A 
ATOM      6  C   UNL     1       2.909   5.646  19.237  0.00  0.00    +0.000 A 
ENDROOT
BRANCH   6   7
ATOM      7  C   UNL     1       3.235   4.251  19.789  0.00  0.00    +0.000 C 
ATOM      8  C   UNL     1       2.462   3.703  21.001  0.00  0.00    +0.000 C 
ATOM      9  C   UNL     1       1.012   3.308  20.708  0.00  0.00    +0.000 C 
ATOM     10  C   UNL     1       0.785   2.547  19.402  0.00  0.00    +0.000 C 
ATOM     11  C   UNL     1       1.682   2.966  18.243  0.00  0.00    +0.000 C 
ATOM     12  C   UNL     1       3.127   3.159  18.688  0.00  0.00    +0.000 C 
ENDBRANCH   6   7
BRANCH   1  13
ATOM     13  O   UNL     1       4.055   5.434  17.079  0.00  0.00    +0.000 OA
BRANCH  13  16
ATOM     14  C   UNL     1       7.586   4.688  17.512  0.00  0.00    +0.000 C 
ATOM     15  N   UNL     1       6.164   4.854  17.686  0.00  0.00    +0.000 N 
ATOM     16  C   UNL     1       5.420   5.593  16.805  0.00  0.00    +0.000 C 
ATOM     17  O   UNL     1       5.902   6.265  15.905  0.00  0.00    +0.000 OA
ATOM     18  H   UNL     1       5.653   4.238  18.301  0.00  0.00    +0.000 HD
ENDBRANCH  13  16
ENDBRANCH   1  13
TORSDOF 3
ENDMDL
