MODEL 1
REMARK VINA RESULT:      -9.4      0.000      0.000
REMARK  Name = 
REMARK  7 active torsions:
REMARK  status: ('A' for Active; 'I' for Inactive)
REMARK    1  A    between atoms: C_1  and  N_2
REMARK    2  A    between atoms: N_2  and  C_3
REMARK    3  A    between atoms: N_2  and  C_4
REMARK    4  A    between atoms: N_2  and  C_5
REMARK    5  A    between atoms: C_9  and  C_10
REMARK    6  A    between atoms: C_14  and  C_15
REMARK    7  A    between atoms: C_18  and  C_19
REMARK                            x       y       z     vdW  Elec       q    Type
REMARK                         _______ _______ _______ _____ _____    ______ ____
ROOT
ATOM      1  C   UNL     1       2.236   7.481  19.055  0.00  0.00    +0.000 A 
ATOM      2  C   UNL     1       2.167   8.705  18.380  0.00  0.00    +0.000 A 
ATOM      3  C   UNL     1       1.510   9.799  18.940  0.00  0.00    +0.000 A 
ATOM      4  C   UNL     1       0.957   9.761  20.237  0.00  0.00    +0.000 A 
ATOM      5  C   UNL     1       0.323  10.878  20.862  0.00  0.00    +0.000 A 
ATOM      6  C   UNL     1      -0.262  10.699  22.131  0.00  0.00    +0.000 A 
ATOM      7  C   UNL     1      -0.163   9.491  22.811  0.00  0.00    +0.000 A 
ATOM      8  C   UNL     1       0.509   8.424  22.227  0.00  0.00    +0.000 A 
ATOM      9  C   UNL     1       1.051   8.535  20.938  0.00  0.00    +0.000 A 
ATOM     10  C   UNL     1       1.679   7.424  20.342  0.00  0.00    +0.000 A 
ENDROOT
BRANCH   1  15
ATOM     11  C   UNL     1       2.836   3.815  18.311  0.00  0.00    +0.000 A 
ATOM     12  C   UNL     1       3.881   3.884  17.386  0.00  0.00    +0.000 A 
ATOM     13  C   UNL     1       4.367   5.125  16.967  0.00  0.00    +0.000 A 
ATOM     14  C   UNL     1       3.826   6.307  17.478  0.00  0.00    +0.000 A 
ATOM     15  C   UNL     1       2.759   6.274  18.382  0.00  0.00    +0.000 A 
ATOM     16  C   UNL     1       2.258   5.012  18.753  0.00  0.00    +0.000 A 
BRANCH  11  18
ATOM     17  C   UNL     1       1.079   2.077  18.758  0.00  0.00    +0.000 C 
ATOM     18  N   UNL     1       2.501   2.539  19.065  0.00  0.00    +0.000 NA
ATOM     19  C   UNL     1       2.648   2.879  20.550  0.00  0.00    +0.000 C 
ATOM     20  C   UNL     1       3.446   1.398  18.713  0.00  0.00    +0.000 C 
ENDBRANCH  11  18
ENDBRANCH   1  15
BRANCH   5  21
ATOM     21  C   UNL     1       0.332  12.240  20.288  0.00  0.00    +0.000 A 
ATOM     22  C   UNL     1       1.381  13.135  20.525  0.00  0.00    +0.000 A 
ATOM     23  C   UNL     1       1.413  14.390  19.902  0.00  0.00    +0.000 A 
ATOM     24  C   UNL     1       0.386  14.807  19.033  0.00  0.00    +0.000 A 
ATOM     25  C   UNL     1      -0.668  13.916  18.813  0.00  0.00    +0.000 A 
ATOM     26  C   UNL     1      -0.685  12.654  19.411  0.00  0.00    +0.000 A 
BRANCH  24  27
ATOM     27  C   UNL     1       0.441  16.117  18.356  0.00  0.00    +0.000 A 
ATOM     28  C   UNL     1      -0.722  16.887  18.175  0.00  0.00    +0.000 A 
ATOM     29  C   UNL     1      -0.680  18.124  17.534  0.00  0.00    +0.000 A 
ATOM     30  C   UNL     1       0.534  18.629  17.066  0.00  0.00    +0.000 A 
ATOM     31  C   UNL     1       1.699  17.893  17.244  0.00  0.00    +0.000 A 
ATOM     32  C   UNL     1       1.652  16.647  17.880  0.00  0.00    +0.000 A 
ENDBRANCH  24  27
ENDBRANCH   5  21
TORSDOF 4
ENDMDL
MODEL 2
REMARK VINA RESULT:      -9.3      1.259      2.366
REMARK  Name = 
REMARK  7 active torsions:
REMARK  status: ('A' for Active; 'I' for Inactive)
REMARK    1  A    between atoms: C_1  and  N_2
REMARK    2  A    between atoms: N_2  and  C_3
REMARK    3  A    between atoms: N_2  and  C_4
REMARK    4  A    between atoms: N_2  and  C_5
REMARK    5  A    between atoms: C_9  and  C_10
REMARK    6  A    between atoms: C_14  and  C_15
REMARK    7  A    between atoms: C_18  and  C_19
REMARK                            x       y       z     vdW  Elec       q    Type
REMARK                         _______ _______ _______ _____ _____    ______ ____
ROOT
ATOM      1  C   UNL     1       2.242   7.134  19.078  0.00  0.00    +0.000 A 
ATOM      2  C   UNL     1       2.220   8.312  18.325  0.00  0.00    +0.000 A 
ATOM      3  C   UNL     1       1.603   9.465  18.808  0.00  0.00    +0.000 A 
ATOM      4  C   UNL     1       1.046   9.532  20.103  0.00  0.00    +0.000 A 
ATOM      5  C   UNL     1       0.452  10.710  20.650  0.00  0.00    +0.000 A 
ATOM      6  C   UNL     1      -0.143  10.636  21.925  0.00  0.00    +0.000 A 
ATOM      7  C   UNL     1      -0.090   9.472  22.683  0.00  0.00    +0.000 A 
ATOM      8  C   UNL     1       0.543   8.346  22.173  0.00  0.00    +0.000 A 
ATOM      9  C   UNL     1       1.093   8.352  20.883  0.00  0.00    +0.000 A 
ATOM     10  C   UNL     1       1.680   7.182  20.364  0.00  0.00    +0.000 A 
ENDROOT
BRANCH   1  15
ATOM     11  C   UNL     1       4.562   4.667  17.381  0.00  0.00    +0.000 A 
ATOM     12  C   UNL     1       3.689   3.615  17.090  0.00  0.00    +0.000 A 
ATOM     13  C   UNL     1       2.350   3.686  17.484  0.00  0.00    +0.000 A 
ATOM     14  C   UNL     1       1.868   4.810  18.156  0.00  0.00    +0.000 A 
ATOM     15  C   UNL     1       2.721   5.867  18.489  0.00  0.00    +0.000 A 
ATOM     16  C   UNL     1       4.074   5.751  18.122  0.00  0.00    +0.000 A 
BRANCH  11  18
ATOM     17  C   UNL     1       6.129   6.257  16.229  0.00  0.00    +0.000 C 
ATOM     18  N   UNL     1       5.908   4.819  16.692  0.00  0.00    +0.000 NA
ATOM     19  C   UNL     1       5.875   3.866  15.494  0.00  0.00    +0.000 C 
ATOM     20  C   UNL     1       7.067   4.441  17.604  0.00  0.00    +0.000 C 
ENDBRANCH  11  18
ENDBRANCH   1  15
BRANCH   5  21
ATOM     21  C   UNL     1       0.512  12.030  19.988  0.00  0.00    +0.000 A 
ATOM     22  C   UNL     1      -0.468  12.448  19.080  0.00  0.00    +0.000 A 
ATOM     23  C   UNL     1      -0.439  13.735  18.528  0.00  0.00    +0.000 A 
ATOM     24  C   UNL     1       0.584  14.650  18.848  0.00  0.00    +0.000 A 
ATOM     25  C   UNL     1       1.570  14.222  19.741  0.00  0.00    +0.000 A 
ATOM     26  C   UNL     1       1.525  12.950  20.313  0.00  0.00    +0.000 A 
BRANCH  24  27
ATOM     27  C   UNL     1       0.592  16.015  18.287  0.00  0.00    +0.000 A 
ATOM     28  C   UNL     1      -0.590  16.773  18.214  0.00  0.00    +0.000 A 
ATOM     29  C   UNL     1      -0.592  18.062  17.683  0.00  0.00    +0.000 A 
ATOM     30  C   UNL     1       0.596  18.631  17.221  0.00  0.00    +0.000 A 
ATOM     31  C   UNL     1       1.779  17.907  17.294  0.00  0.00    +0.000 A 
ATOM     32  C   UNL     1       1.777  16.610  17.819  0.00  0.00    +0.000 A 
ENDBRANCH  24  27
ENDBRANCH   5  21
TORSDOF 4
ENDMDL
MODEL 3
REMARK VINA RESULT:      -9.3      1.332      2.482
REMARK  Name = 
REMARK  7 active torsions:
REMARK  status: ('A' for Active; 'I' for Inactive)
REMARK    1  A    between atoms: C_1  and  N_2
REMARK    2  A    between atoms: N_2  and  C_3
REMARK    3  A    between atoms: N_2  and  C_4
REMARK    4  A    between atoms: N_2  and  C_5
REMARK    5  A    between atoms: C_9  and  C_10
REMARK    6  A    between atoms: C_14  and  C_15
REMARK    7  A    between atoms: C_18  and  C_19
REMARK                            x       y       z     vdW  Elec       q    Type
REMARK                         _______ _______ _______ _____ _____    ______ ____
ROOT
ATOM      1  C   UNL     1       2.203   7.461  19.212  0.00  0.00    +0.000 A 
ATOM      2  C   UNL     1       2.185   8.683  18.533  0.00  0.00    +0.000 A 
ATOM      3  C   UNL     1       1.503   9.784  19.049  0.00  0.00    +0.000 A 
ATOM      4  C   UNL     1       0.870   9.752  20.309  0.00  0.00    +0.000 A 
ATOM      5  C   UNL     1       0.206  10.874  20.892  0.00  0.00    +0.000 A 
ATOM      6  C   UNL     1      -0.458  10.702  22.122  0.00  0.00    +0.000 A 
ATOM      7  C   UNL     1      -0.411   9.494  22.808  0.00  0.00    +0.000 A 
ATOM      8  C   UNL     1       0.289   8.422  22.269  0.00  0.00    +0.000 A 
ATOM      9  C   UNL     1       0.911   8.526  21.017  0.00  0.00    +0.000 A 
ATOM     10  C   UNL     1       1.566   7.409  20.462  0.00  0.00    +0.000 A 
ENDROOT
BRANCH   1  15
ATOM     11  C   UNL     1       4.646   5.221  17.376  0.00  0.00    +0.000 A 
ATOM     12  C   UNL     1       3.847   4.111  17.089  0.00  0.00    +0.000 A 
ATOM     13  C   UNL     1       2.521   4.068  17.528  0.00  0.00    +0.000 A 
ATOM     14  C   UNL     1       1.977   5.136  18.244  0.00  0.00    +0.000 A 
ATOM     15  C   UNL     1       2.758   6.248  18.575  0.00  0.00    +0.000 A 
ATOM     16  C   UNL     1       4.102   6.247  18.160  0.00  0.00    +0.000 A 
BRANCH  11  18
ATOM     17  C   UNL     1       6.491   6.880  16.988  0.00  0.00    +0.000 C 
ATOM     18  N   UNL     1       5.950   5.493  16.647  0.00  0.00    +0.000 NA
ATOM     19  C   UNL     1       5.624   5.394  15.155  0.00  0.00    +0.000 C 
ATOM     20  C   UNL     1       7.028   4.476  16.996  0.00  0.00    +0.000 C 
ENDBRANCH  11  18
ENDBRANCH   1  15
BRANCH   5  21
ATOM     21  C   UNL     1       0.261  12.235  20.317  0.00  0.00    +0.000 A 
ATOM     22  C   UNL     1       1.239  13.160  20.699  0.00  0.00    +0.000 A 
ATOM     23  C   UNL     1       1.327  14.415  20.081  0.00  0.00    +0.000 A 
ATOM     24  C   UNL     1       0.426  14.801  19.070  0.00  0.00    +0.000 A 
ATOM     25  C   UNL     1      -0.560  13.881  18.704  0.00  0.00    +0.000 A 
ATOM     26  C   UNL     1      -0.629  12.620  19.300  0.00  0.00    +0.000 A 
BRANCH  24  27
ATOM     27  C   UNL     1       0.543  16.111  18.401  0.00  0.00    +0.000 A 
ATOM     28  C   UNL     1       1.791  16.594  17.969  0.00  0.00    +0.000 A 
ATOM     29  C   UNL     1       1.911  17.832  17.339  0.00  0.00    +0.000 A 
ATOM     30  C   UNL     1       0.778  18.616  17.115  0.00  0.00    +0.000 A 
ATOM     31  C   UNL     1      -0.469  18.155  17.521  0.00  0.00    +0.000 A 
ATOM     32  C   UNL     1      -0.585  16.916  18.161  0.00  0.00    +0.000 A 
ENDBRANCH  24  27
ENDBRANCH   5  21
TORSDOF 4
ENDMDL
MODEL 4
REMARK VINA RESULT:      -9.2      3.050     10.026
REMARK  Name = 
REMARK  7 active torsions:
REMARK  status: ('A' for Active; 'I' for Inactive)
REMARK    1  A    between atoms: C_1  and  N_2
REMARK    2  A    between atoms: N_2  and  C_3
REMARK    3  A    between atoms: N_2  and  C_4
REMARK    4  A    between atoms: N_2  and  C_5
REMARK    5  A    between atoms: C_9  and  C_10
REMARK    6  A    between atoms: C_14  and  C_15
REMARK    7  A    between atoms: C_18  and  C_19
REMARK                            x       y       z     vdW  Elec       q    Type
REMARK                         _______ _______ _______ _____ _____    ______ ____
ROOT
ATOM      1  C   UNL     1       1.266   7.638  20.590  0.00  0.00    +0.000 A 
ATOM      2  C   UNL     1       2.054   7.732  19.439  0.00  0.00    +0.000 A 
ATOM      3  C   UNL     1       2.842   6.663  19.016  0.00  0.00    +0.000 A 
ATOM      4  C   UNL     1       2.825   5.413  19.670  0.00  0.00    +0.000 A 
ATOM      5  C   UNL     1       3.580   4.281  19.235  0.00  0.00    +0.000 A 
ATOM      6  C   UNL     1       3.546   3.107  20.013  0.00  0.00    +0.000 A 
ATOM      7  C   UNL     1       2.736   3.007  21.139  0.00  0.00    +0.000 A 
ATOM      8  C   UNL     1       1.955   4.090  21.524  0.00  0.00    +0.000 A 
ATOM      9  C   UNL     1       2.006   5.301  20.818  0.00  0.00    +0.000 A 
ATOM     10  C   UNL     1       1.249   6.404  21.259  0.00  0.00    +0.000 A 
ENDROOT
BRANCH   1  15
ATOM     11  C   UNL     1       0.073  11.221  20.888  0.00  0.00    +0.000 A 
ATOM     12  C   UNL     1      -0.420  11.245  22.196  0.00  0.00    +0.000 A 
ATOM     13  C   UNL     1      -0.405  10.083  22.973  0.00  0.00    +0.000 A 
ATOM     14  C   UNL     1       0.114   8.893  22.458  0.00  0.00    +0.000 A 
ATOM     15  C   UNL     1       0.586   8.828  21.143  0.00  0.00    +0.000 A 
ATOM     16  C   UNL     1       0.518  10.000  20.368  0.00  0.00    +0.000 A 
BRANCH  11  18
ATOM     17  C   UNL     1       1.572  12.258  19.162  0.00  0.00    +0.000 C 
ATOM     18  N   UNL     1       0.411  12.490  20.126  0.00  0.00    +0.000 NA
ATOM     19  C   UNL     1       0.790  13.527  21.185  0.00  0.00    +0.000 C 
ATOM     20  C   UNL     1      -0.769  13.007  19.315  0.00  0.00    +0.000 C 
ENDBRANCH  11  18
ENDBRANCH   1  15
BRANCH   5  21
ATOM     21  C   UNL     1       4.322   4.245  17.956  0.00  0.00    +0.000 A 
ATOM     22  C   UNL     1       3.787   3.649  16.808  0.00  0.00    +0.000 A 
ATOM     23  C   UNL     1       4.469   3.700  15.585  0.00  0.00    +0.000 A 
ATOM     24  C   UNL     1       5.721   4.333  15.467  0.00  0.00    +0.000 A 
ATOM     25  C   UNL     1       6.259   4.910  16.620  0.00  0.00    +0.000 A 
ATOM     26  C   UNL     1       5.567   4.885  17.832  0.00  0.00    +0.000 A 
BRANCH  24  27
ATOM     27  C   UNL     1       6.419   4.410  14.169  0.00  0.00    +0.000 A 
ATOM     28  C   UNL     1       6.055   3.572  13.100  0.00  0.00    +0.000 A 
ATOM     29  C   UNL     1       6.711   3.636  11.872  0.00  0.00    +0.000 A 
ATOM     30  C   UNL     1       7.746   4.553  11.678  0.00  0.00    +0.000 A 
ATOM     31  C   UNL     1       8.116   5.401  12.714  0.00  0.00    +0.000 A 
ATOM     32  C   UNL     1       7.461   5.328  13.949  0.00  0.00    +0.000 A 
ENDBRANCH  24  27
ENDBRANCH   5  21
TORSDOF 4
ENDMDL
MODEL 5
REMARK VINA RESULT:      -9.1      3.240      9.945
REMARK  Name = 
REMARK  7 active torsions:
REMARK  status: ('A' for Active; 'I' for Inactive)
REMARK    1  A    between atoms: C_1  and  N_2
REMARK    2  A    between atoms: N_2  and  C_3
REMARK    3  A    between atoms: N_2  and  C_4
REMARK    4  A    between atoms: N_2  and  C_5
REMARK    5  A    between atoms: C_9  and  C_10
REMARK    6  A    between atoms: C_14  and  C_15
REMARK    7  A    between atoms: C_18  and  C_19
REMARK                            x       y       z     vdW  Elec       q    Type
REMARK                         _______ _______ _______ _____ _____    ______ ____
ROOT
ATOM      1  C   UNL     1       0.977   9.707  19.314  0.00  0.00    +0.000 A 
ATOM      2  C   UNL     1       1.810   9.472  18.216  0.00  0.00    +0.000 A 
ATOM      3  C   UNL     1       2.552   8.297  18.113  0.00  0.00    +0.000 A 
ATOM      4  C   UNL     1       2.442   7.254  19.056  0.00  0.00    +0.000 A 
ATOM      5  C   UNL     1       3.147   6.016  18.956  0.00  0.00    +0.000 A 
ATOM      6  C   UNL     1       3.018   5.079  20.000  0.00  0.00    +0.000 A 
ATOM      7  C   UNL     1       2.164   5.303  21.074  0.00  0.00    +0.000 A 
ATOM      8  C   UNL     1       1.431   6.482  21.137  0.00  0.00    +0.000 A 
ATOM      9  C   UNL     1       1.575   7.472  20.155  0.00  0.00    +0.000 A 
ATOM     10  C   UNL     1       0.866   8.684  20.268  0.00  0.00    +0.000 A 
ENDROOT
BRANCH   1  15
ATOM     11  C   UNL     1      -0.899  12.514  21.034  0.00  0.00    +0.000 A 
ATOM     12  C   UNL     1      -1.134  13.388  19.969  0.00  0.00    +0.000 A 
ATOM     13  C   UNL     1      -0.645  13.088  18.694  0.00  0.00    +0.000 A 
ATOM     14  C   UNL     1       0.067  11.909  18.468  0.00  0.00    +0.000 A 
ATOM     15  C   UNL     1       0.346  11.028  19.518  0.00  0.00    +0.000 A 
ATOM     16  C   UNL     1      -0.118  11.375  20.800  0.00  0.00    +0.000 A 
BRANCH  11  18
ATOM     17  C   UNL     1      -1.559  11.290  23.125  0.00  0.00    +0.000 C 
ATOM     18  N   UNL     1      -1.681  12.590  22.334  0.00  0.00    +0.000 NA
ATOM     19  C   UNL     1      -3.137  12.842  21.933  0.00  0.00    +0.000 C 
ATOM     20  C   UNL     1      -1.201  13.724  23.229  0.00  0.00    +0.000 C 
ENDBRANCH  11  18
ENDBRANCH   1  15
BRANCH   5  21
ATOM     21  C   UNL     1       3.931   5.625  17.765  0.00  0.00    +0.000 A 
ATOM     22  C   UNL     1       3.999   4.298  17.328  0.00  0.00    +0.000 A 
ATOM     23  C   UNL     1       4.677   3.960  16.149  0.00  0.00    +0.000 A 
ATOM     24  C   UNL     1       5.331   4.935  15.372  0.00  0.00    +0.000 A 
ATOM     25  C   UNL     1       5.275   6.257  15.822  0.00  0.00    +0.000 A 
ATOM     26  C   UNL     1       4.575   6.597  16.981  0.00  0.00    +0.000 A 
BRANCH  24  27
ATOM     27  C   UNL     1       6.016   4.578  14.115  0.00  0.00    +0.000 A 
ATOM     28  C   UNL     1       5.467   3.628  13.235  0.00  0.00    +0.000 A 
ATOM     29  C   UNL     1       6.109   3.283  12.048  0.00  0.00    +0.000 A 
ATOM     30  C   UNL     1       7.318   3.890  11.703  0.00  0.00    +0.000 A 
ATOM     31  C   UNL     1       7.875   4.840  12.549  0.00  0.00    +0.000 A 
ATOM     32  C   UNL     1       7.233   5.179  13.745  0.00  0.00    +0.000 A 
ENDBRANCH  24  27
ENDBRANCH   5  21
TORSDOF 4
ENDMDL
MODEL 6
REMARK VINA RESULT:      -9.0      3.229      9.947
REMARK  Name = 
REMARK  7 active torsions:
REMARK  status: ('A' for Active; 'I' for Inactive)
REMARK    1  A    between atoms: C_1  and  N_2
REMARK    2  A    between atoms: N_2  and  C_3
REMARK    3  A    between atoms: N_2  and  C_4
REMARK    4  A    between atoms: N_2  and  C_5
REMARK    5  A    between atoms: C_9  and  C_10
REMARK    6  A    between atoms: C_14  and  C_15
REMARK    7  A    between atoms: C_18  and  C_19
REMARK                            x       y       z     vdW  Elec       q    Type
REMARK                         _______ _______ _______ _____ _____    ______ ____
ROOT
ATOM      1  C   UNL     1       1.016   9.850  19.325  0.00  0.00    +0.000 A 
ATOM      2  C   UNL     1       1.858   9.600  18.236  0.00  0.00    +0.000 A 
ATOM      3  C   UNL     1       2.570   8.406  18.134  0.00  0.00    +0.000 A 
ATOM      4  C   UNL     1       2.420   7.361  19.070  0.00  0.00    +0.000 A 
ATOM      5  C   UNL     1       3.094   6.105  18.970  0.00  0.00    +0.000 A 
ATOM      6  C   UNL     1       2.927   5.166  20.006  0.00  0.00    +0.000 A 
ATOM      7  C   UNL     1       2.065   5.405  21.071  0.00  0.00    +0.000 A 
ATOM      8  C   UNL     1       1.363   6.602  21.132  0.00  0.00    +0.000 A 
ATOM      9  C   UNL     1       1.546   7.594  20.158  0.00  0.00    +0.000 A 
ATOM     10  C   UNL     1       0.867   8.824  20.271  0.00  0.00    +0.000 A 
ENDROOT
BRANCH   1  15
ATOM     11  C   UNL     1      -0.858  12.674  21.017  0.00  0.00    +0.000 A 
ATOM     12  C   UNL     1      -1.009  13.581  19.964  0.00  0.00    +0.000 A 
ATOM     13  C   UNL     1      -0.463  13.296  18.709  0.00  0.00    +0.000 A 
ATOM     14  C   UNL     1       0.223  12.100  18.490  0.00  0.00    +0.000 A 
ATOM     15  C   UNL     1       0.418  11.185  19.530  0.00  0.00    +0.000 A 
ATOM     16  C   UNL     1      -0.102  11.517  20.794  0.00  0.00    +0.000 A 
BRANCH  11  18
ATOM     17  C   UNL     1      -3.173  12.987  21.937  0.00  0.00    +0.000 C 
ATOM     18  N   UNL     1      -1.704  12.745  22.276  0.00  0.00    +0.000 NA
ATOM     19  C   UNL     1      -1.142  13.911  23.093  0.00  0.00    +0.000 C 
ATOM     20  C   UNL     1      -1.622  11.467  23.098  0.00  0.00    +0.000 C 
ENDBRANCH  11  18
ENDBRANCH   1  15
BRANCH   5  21
ATOM     21  C   UNL     1       3.883   5.701  17.787  0.00  0.00    +0.000 A 
ATOM     22  C   UNL     1       3.929   4.374  17.347  0.00  0.00    +0.000 A 
ATOM     23  C   UNL     1       4.613   4.025  16.175  0.00  0.00    +0.000 A 
ATOM     24  C   UNL     1       5.294   4.989  15.407  0.00  0.00    +0.000 A 
ATOM     25  C   UNL     1       5.260   6.310  15.859  0.00  0.00    +0.000 A 
ATOM     26  C   UNL     1       4.554   6.662  17.011  0.00  0.00    +0.000 A 
BRANCH  24  27
ATOM     27  C   UNL     1       5.986   4.621  14.156  0.00  0.00    +0.000 A 
ATOM     28  C   UNL     1       7.200   5.232  13.794  0.00  0.00    +0.000 A 
ATOM     29  C   UNL     1       7.858   4.893  12.614  0.00  0.00    +0.000 A 
ATOM     30  C   UNL     1       7.322   3.922  11.767  0.00  0.00    +0.000 A 
ATOM     31  C   UNL     1       6.130   3.294  12.109  0.00  0.00    +0.000 A 
ATOM     32  C   UNL     1       5.467   3.643  13.290  0.00  0.00    +0.000 A 
ENDBRANCH  24  27
ENDBRANCH   5  21
TORSDOF 4
ENDMDL
MODEL 7
REMARK VINA RESULT:      -9.0      3.049     10.018
REMARK  Name = 
REMARK  7 active torsions:
REMARK  status: ('A' for Active; 'I' for Inactive)
REMARK    1  A    between atoms: C_1  and  N_2
REMARK    2  A    between atoms: N_2  and  C_3
REMARK    3  A    between atoms: N_2  and  C_4
REMARK    4  A    between atoms: N_2  and  C_5
REMARK    5  A    between atoms: C_9  and  C_10
REMARK    6  A    between atoms: C_14  and  C_15
REMARK    7  A    between atoms: C_18  and  C_19
REMARK                            x       y       z     vdW  Elec       q    Type
REMARK                         _______ _______ _______ _____ _____    ______ ____
ROOT
ATOM      1  C   UNL     1       1.203   7.685  20.574  0.00  0.00    +0.000 A 
ATOM      2  C   UNL     1       2.010   7.793  19.437  0.00  0.00    +0.000 A 
ATOM      3  C   UNL     1       2.811   6.731  19.018  0.00  0.00    +0.000 A 
ATOM      4  C   UNL     1       2.789   5.476  19.661  0.00  0.00    +0.000 A 
ATOM      5  C   UNL     1       3.556   4.350  19.230  0.00  0.00    +0.000 A 
ATOM      6  C   UNL     1       3.514   3.170  19.997  0.00  0.00    +0.000 A 
ATOM      7  C   UNL     1       2.685   3.057  21.108  0.00  0.00    +0.000 A 
ATOM      8  C   UNL     1       1.893   4.132  21.488  0.00  0.00    +0.000 A 
ATOM      9  C   UNL     1       1.950   5.349  20.794  0.00  0.00    +0.000 A 
ATOM     10  C   UNL     1       1.180   6.445  21.232  0.00  0.00    +0.000 A 
ENDROOT
BRANCH   1  15
ATOM     11  C   UNL     1      -0.036  11.253  20.866  0.00  0.00    +0.000 A 
ATOM     12  C   UNL     1      -0.529  11.273  22.174  0.00  0.00    +0.000 A 
ATOM     13  C   UNL     1      -0.499  10.113  22.952  0.00  0.00    +0.000 A 
ATOM     14  C   UNL     1       0.035   8.929  22.439  0.00  0.00    +0.000 A 
ATOM     15  C   UNL     1       0.508   8.867  21.125  0.00  0.00    +0.000 A 
ATOM     16  C   UNL     1       0.425  10.037  20.347  0.00  0.00    +0.000 A 
BRANCH  11  18
ATOM     17  C   UNL     1      -0.900  12.966  19.245  0.00  0.00    +0.000 C 
ATOM     18  N   UNL     1       0.286  12.525  20.101  0.00  0.00    +0.000 NA
ATOM     19  C   UNL     1       1.491  12.190  19.219  0.00  0.00    +0.000 C 
ATOM     20  C   UNL     1       0.644  13.679  21.027  0.00  0.00    +0.000 C 
ENDBRANCH  11  18
ENDBRANCH   1  15
BRANCH   5  21
ATOM     21  C   UNL     1       4.320   4.329  17.964  0.00  0.00    +0.000 A 
ATOM     22  C   UNL     1       4.177   3.295  17.032  0.00  0.00    +0.000 A 
ATOM     23  C   UNL     1       4.845   3.335  15.801  0.00  0.00    +0.000 A 
ATOM     24  C   UNL     1       5.698   4.403  15.462  0.00  0.00    +0.000 A 
ATOM     25  C   UNL     1       5.851   5.424  16.403  0.00  0.00    +0.000 A 
ATOM     26  C   UNL     1       5.163   5.398  17.618  0.00  0.00    +0.000 A 
BRANCH  24  27
ATOM     27  C   UNL     1       6.374   4.456  14.152  0.00  0.00    +0.000 A 
ATOM     28  C   UNL     1       7.418   5.368  13.912  0.00  0.00    +0.000 A 
ATOM     29  C   UNL     1       8.060   5.426  12.676  0.00  0.00    +0.000 A 
ATOM     30  C   UNL     1       7.679   4.563  11.648  0.00  0.00    +0.000 A 
ATOM     31  C   UNL     1       6.659   3.645  11.863  0.00  0.00    +0.000 A 
ATOM     32  C   UNL     1       6.010   3.594  13.102  0.00  0.00    +0.000 A 
ENDBRANCH  24  27
ENDBRANCH   5  21
TORSDOF 4
ENDMDL
MODEL 8
REMARK VINA RESULT:      -9.0      1.280      2.448
REMARK  Name = 
REMARK  7 active torsions:
REMARK  status: ('A' for Active; 'I' for Inactive)
REMARK    1  A    between atoms: C_1  and  N_2
REMARK    2  A    between atoms: N_2  and  C_3
REMARK    3  A    between atoms: N_2  and  C_4
REMARK    4  A    between atoms: N_2  and  C_5
REMARK    5  A    between atoms: C_9  and  C_10
REMARK    6  A    between atoms: C_14  and  C_15
REMARK    7  A    between atoms: C_18  and  C_19
REMARK                            x       y       z     vdW  Elec       q    Type
REMARK                         _______ _______ _______ _____ _____    ______ ____
ROOT
ATOM      1  C   UNL     1       2.179   7.204  19.144  0.00  0.00    +0.000 A 
ATOM      2  C   UNL     1       2.123   8.371  18.375  0.00  0.00    +0.000 A 
ATOM      3  C   UNL     1       1.504   9.523  18.859  0.00  0.00    +0.000 A 
ATOM      4  C   UNL     1       0.981   9.601  20.166  0.00  0.00    +0.000 A 
ATOM      5  C   UNL     1       0.386  10.780  20.713  0.00  0.00    +0.000 A 
ATOM      6  C   UNL     1      -0.174  10.717  22.004  0.00  0.00    +0.000 A 
ATOM      7  C   UNL     1      -0.087   9.565  22.776  0.00  0.00    +0.000 A 
ATOM      8  C   UNL     1       0.546   8.439  22.265  0.00  0.00    +0.000 A 
ATOM      9  C   UNL     1       1.062   8.433  20.961  0.00  0.00    +0.000 A 
ATOM     10  C   UNL     1       1.650   7.263  20.443  0.00  0.00    +0.000 A 
ENDROOT
BRANCH   1  15
ATOM     11  C   UNL     1       4.480   4.744  17.410  0.00  0.00    +0.000 A 
ATOM     12  C   UNL     1       3.615   3.674  17.166  0.00  0.00    +0.000 A 
ATOM     13  C   UNL     1       2.288   3.731  17.604  0.00  0.00    +0.000 A 
ATOM     14  C   UNL     1       1.811   4.859  18.273  0.00  0.00    +0.000 A 
ATOM     15  C   UNL     1       2.658   5.934  18.559  0.00  0.00    +0.000 A 
ATOM     16  C   UNL     1       4.000   5.833  18.148  0.00  0.00    +0.000 A 
BRANCH  11  18
ATOM     17  C   UNL     1       5.973   3.818  15.615  0.00  0.00    +0.000 C 
ATOM     18  N   UNL     1       5.799   4.905  16.673  0.00  0.00    +0.000 NA
ATOM     19  C   UNL     1       6.890   4.796  17.741  0.00  0.00    +0.000 C 
ATOM     20  C   UNL     1       5.909   6.253  15.976  0.00  0.00    +0.000 C 
ENDBRANCH  11  18
ENDBRANCH   1  15
BRANCH   5  21
ATOM     21  C   UNL     1       0.414  12.091  20.031  0.00  0.00    +0.000 A 
ATOM     22  C   UNL     1      -0.701  12.936  20.009  0.00  0.00    +0.000 A 
ATOM     23  C   UNL     1      -0.630  14.211  19.432  0.00  0.00    +0.000 A 
ATOM     24  C   UNL     1       0.556  14.683  18.836  0.00  0.00    +0.000 A 
ATOM     25  C   UNL     1       1.661  13.829  18.845  0.00  0.00    +0.000 A 
ATOM     26  C   UNL     1       1.598  12.570  19.446  0.00  0.00    +0.000 A 
BRANCH  24  27
ATOM     27  C   UNL     1       0.635  16.038  18.258  0.00  0.00    +0.000 A 
ATOM     28  C   UNL     1       1.863  16.570  17.825  0.00  0.00    +0.000 A 
ATOM     29  C   UNL     1       1.947  17.850  17.281  0.00  0.00    +0.000 A 
ATOM     30  C   UNL     1       0.797  18.630  17.145  0.00  0.00    +0.000 A 
ATOM     31  C   UNL     1      -0.431  18.123  17.553  0.00  0.00    +0.000 A 
ATOM     32  C   UNL     1      -0.510  16.840  18.108  0.00  0.00    +0.000 A 
ENDBRANCH  24  27
ENDBRANCH   5  21
TORSDOF 4
ENDMDL
MODEL 9
REMARK VINA RESULT:      -9.0      3.239     10.173
REMARK  Name = 
REMARK  7 active torsions:
REMARK  status: ('A' for Active; 'I' for Inactive)
REMARK    1  A    between atoms: C_1  and  N_2
REMARK    2  A    between atoms: N_2  and  C_3
REMARK    3  A    between atoms: N_2  and  C_4
REMARK    4  A    between atoms: N_2  and  C_5
REMARK    5  A    between atoms: C_9  and  C_10
REMARK    6  A    between atoms: C_14  and  C_15
REMARK    7  A    between atoms: C_18  and  C_19
REMARK                            x       y       z     vdW  Elec       q    Type
REMARK                         _______ _______ _______ _____ _____    ______ ____
ROOT
ATOM      1  C   UNL     1       0.988  10.060  19.009  0.00  0.00    +0.000 A 
ATOM      2  C   UNL     1       1.816   9.744  17.927  0.00  0.00    +0.000 A 
ATOM      3  C   UNL     1       2.531   8.547  17.893  0.00  0.00    +0.000 A 
ATOM      4  C   UNL     1       2.396   7.563  18.895  0.00  0.00    +0.000 A 
ATOM      5  C   UNL     1       3.072   6.305  18.867  0.00  0.00    +0.000 A 
ATOM      6  C   UNL     1       2.921   5.433  19.963  0.00  0.00    +0.000 A 
ATOM      7  C   UNL     1       2.072   5.738  21.020  0.00  0.00    +0.000 A 
ATOM      8  C   UNL     1       1.367   6.935  21.015  0.00  0.00    +0.000 A 
ATOM      9  C   UNL     1       1.534   7.864  19.977  0.00  0.00    +0.000 A 
ATOM     10  C   UNL     1       0.854   9.096  20.020  0.00  0.00    +0.000 A 
ENDROOT
BRANCH   1  15
ATOM     11  C   UNL     1       0.742  13.840  19.102  0.00  0.00    +0.000 A 
ATOM     12  C   UNL     1      -0.545  14.025  19.615  0.00  0.00    +0.000 A 
ATOM     13  C   UNL     1      -1.355  12.920  19.893  0.00  0.00    +0.000 A 
ATOM     14  C   UNL     1      -0.883  11.624  19.677  0.00  0.00    +0.000 A 
ATOM     15  C   UNL     1       0.388  11.405  19.135  0.00  0.00    +0.000 A 
ATOM     16  C   UNL     1       1.165  12.534  18.822  0.00  0.00    +0.000 A 
BRANCH  11  18
ATOM     17  C   UNL     1       2.969  14.587  18.214  0.00  0.00    +0.000 C 
ATOM     18  N   UNL     1       1.785  14.944  19.110  0.00  0.00    +0.000 NA
ATOM     19  C   UNL     1       2.235  15.085  20.566  0.00  0.00    +0.000 C 
ATOM     20  C   UNL     1       1.221  16.272  18.625  0.00  0.00    +0.000 C 
ENDBRANCH  11  18
ENDBRANCH   1  15
BRANCH   5  21
ATOM     21  C   UNL     1       3.847   5.829  17.702  0.00  0.00    +0.000 A 
ATOM     22  C   UNL     1       3.750   4.513  17.237  0.00  0.00    +0.000 A 
ATOM     23  C   UNL     1       4.427   4.103  16.081  0.00  0.00    +0.000 A 
ATOM     24  C   UNL     1       5.245   4.991  15.355  0.00  0.00    +0.000 A 
ATOM     25  C   UNL     1       5.353   6.299  15.833  0.00  0.00    +0.000 A 
ATOM     26  C   UNL     1       4.655   6.714  16.968  0.00  0.00    +0.000 A 
BRANCH  24  27
ATOM     27  C   UNL     1       5.931   4.562  14.121  0.00  0.00    +0.000 A 
ATOM     28  C   UNL     1       5.381   3.564  13.296  0.00  0.00    +0.000 A 
ATOM     29  C   UNL     1       6.023   3.151  12.131  0.00  0.00    +0.000 A 
ATOM     30  C   UNL     1       7.232   3.737  11.752  0.00  0.00    +0.000 A 
ATOM     31  C   UNL     1       7.790   4.734  12.543  0.00  0.00    +0.000 A 
ATOM     32  C   UNL     1       7.147   5.141  13.718  0.00  0.00    +0.000 A 
ENDBRANCH  24  27
ENDBRANCH   5  21
TORSDOF 4
ENDMDL
