MODEL 1
REMARK VINA RESULT:      -8.3      0.000      0.000
REMARK  Name = 
REMARK  5 active torsions:
REMARK  status: ('A' for Active; 'I' for Inactive)
REMARK    1  A    between atoms: C_1  and  C_2
REMARK    2  A    between atoms: C_2  and  N_3
REMARK    3  A    between atoms: C_11  and  N_12
REMARK    4  A    between atoms: N_12  and  S_13
REMARK    5  A    between atoms: S_13  and  C_16
REMARK                            x       y       z     vdW  Elec       q    Type
REMARK                         _______ _______ _______ _____ _____    ______ ____
ROOT
ATOM      1  N   UNL     1      -0.881  11.024  18.763  0.00  0.00    +0.000 N 
ATOM      2  C   UNL     1      -1.315  11.379  20.062  0.00  0.00    +0.000 C 
ATOM      3  O   UNL     1      -2.190  12.189  20.336  0.00  0.00    +0.000 OA
ATOM      4  C   UNL     1      -0.505  10.528  20.910  0.00  0.00    +0.000 A 
ATOM      5  C   UNL     1      -0.509  10.393  22.293  0.00  0.00    +0.000 A 
ATOM      6  C   UNL     1       0.345   9.420  22.834  0.00  0.00    +0.000 A 
ATOM      7  C   UNL     1       1.177   8.625  22.016  0.00  0.00    +0.000 A 
ATOM      8  C   UNL     1       1.198   8.795  20.611  0.00  0.00    +0.000 A 
ATOM      9  C   UNL     1       1.943   8.100  19.623  0.00  0.00    +0.000 A 
ATOM     10  C   UNL     1       1.778   8.432  18.253  0.00  0.00    +0.000 A 
ATOM     11  C   UNL     1       0.848   9.408  17.815  0.00  0.00    +0.000 A 
ATOM     12  C   UNL     1       0.124  10.048  18.808  0.00  0.00    +0.000 A 
ATOM     13  C   UNL     1       0.338   9.748  20.137  0.00  0.00    +0.000 A 
ENDROOT
BRANCH   1  15
ATOM     14  C   UNL     1      -2.610  10.518  17.087  0.00  0.00    +0.000 C 
ATOM     15  C   UNL     1      -1.568  11.511  17.589  0.00  0.00    +0.000 C 
ENDBRANCH   1  15
BRANCH   9  16
ATOM     16  N   UNL     1       2.839   7.031  19.998  0.00  0.00    +0.000 N 
ATOM     17  H   UNL     1       3.262   7.173  20.921  0.00  0.00    +0.000 HD
BRANCH  16  18
ATOM     18  S   UNL     1       2.253   5.438  19.976  0.00  0.00    +0.000 S 
ATOM     19  O   UNL     1       3.287   4.665  20.623  0.00  0.00    +0.000 OA
ATOM     20  O   UNL     1       0.902   5.429  20.494  0.00  0.00    +0.000 OA
BRANCH  18  21
ATOM     21  C   UNL     1       2.205   5.017  18.205  0.00  0.00    +0.000 C 
ATOM     22  C   UNL     1       3.574   4.735  17.577  0.00  0.00    +0.000 C 
ATOM     23  C   UNL     1       4.156   3.376  17.955  0.00  0.00    +0.000 C 
ATOM     24  C   UNL     1       3.183   2.239  17.662  0.00  0.00    +0.000 C 
ATOM     25  C   UNL     1       1.806   2.476  18.272  0.00  0.00    +0.000 C 
ATOM     26  C   UNL     1       1.237   3.854  17.933  0.00  0.00    +0.000 C 
ENDBRANCH  18  21
ENDBRANCH  16  18
ENDBRANCH   9  16
TORSDOF 4
ENDMDL
MODEL 2
REMARK VINA RESULT:      -8.3      1.304      1.773
REMARK  Name = 
REMARK  5 active torsions:
REMARK  status: ('A' for Active; 'I' for Inactive)
REMARK    1  A    between atoms: C_1  and  C_2
REMARK    2  A    between atoms: C_2  and  N_3
REMARK    3  A    between atoms: C_11  and  N_12
REMARK    4  A    between atoms: N_12  and  S_13
REMARK    5  A    between atoms: S_13  and  C_16
REMARK                            x       y       z     vdW  Elec       q    Type
REMARK                         _______ _______ _______ _____ _____    ______ ____
ROOT
ATOM      1  N   UNL     1      -0.821  11.311  18.915  0.00  0.00    +0.000 N 
ATOM      2  C   UNL     1      -1.272  11.597  20.226  0.00  0.00    +0.000 C 
ATOM      3  O   UNL     1      -2.118  12.424  20.535  0.00  0.00    +0.000 OA
ATOM      4  C   UNL     1      -0.519  10.657  21.031  0.00  0.00    +0.000 A 
ATOM      5  C   UNL     1      -0.563  10.429  22.401  0.00  0.00    +0.000 A 
ATOM      6  C   UNL     1       0.237   9.387  22.894  0.00  0.00    +0.000 A 
ATOM      7  C   UNL     1       1.055   8.612  22.042  0.00  0.00    +0.000 A 
ATOM      8  C   UNL     1       1.117   8.875  20.652  0.00  0.00    +0.000 A 
ATOM      9  C   UNL     1       1.857   8.216  19.636  0.00  0.00    +0.000 A 
ATOM     10  C   UNL     1       1.740   8.646  18.288  0.00  0.00    +0.000 A 
ATOM     11  C   UNL     1       0.862   9.688  17.897  0.00  0.00    +0.000 A 
ATOM     12  C   UNL     1       0.141  10.291  18.916  0.00  0.00    +0.000 A 
ATOM     13  C   UNL     1       0.310   9.894  20.226  0.00  0.00    +0.000 A 
ENDROOT
BRANCH   1  15
ATOM     14  C   UNL     1      -2.548  11.006  17.191  0.00  0.00    +0.000 C 
ATOM     15  C   UNL     1      -1.458  11.904  17.762  0.00  0.00    +0.000 C 
ENDBRANCH   1  15
BRANCH   9  16
ATOM     16  N   UNL     1       2.698   7.087  19.957  0.00  0.00    +0.000 N 
ATOM     17  H   UNL     1       2.338   6.533  20.742  0.00  0.00    +0.000 HD
BRANCH  16  18
ATOM     18  S   UNL     1       3.079   5.984  18.725  0.00  0.00    +0.000 S 
ATOM     19  O   UNL     1       1.882   5.914  17.921  0.00  0.00    +0.000 OA
ATOM     20  O   UNL     1       4.340   6.370  18.126  0.00  0.00    +0.000 OA
BRANCH  18  21
ATOM     21  C   UNL     1       3.307   4.408  19.606  0.00  0.00    +0.000 C 
ATOM     22  C   UNL     1       2.361   4.196  20.793  0.00  0.00    +0.000 C 
ATOM     23  C   UNL     1       0.934   3.843  20.387  0.00  0.00    +0.000 C 
ATOM     24  C   UNL     1       0.890   2.646  19.444  0.00  0.00    +0.000 C 
ATOM     25  C   UNL     1       1.814   2.815  18.243  0.00  0.00    +0.000 C 
ATOM     26  C   UNL     1       3.236   3.212  18.641  0.00  0.00    +0.000 C 
ENDBRANCH  18  21
ENDBRANCH  16  18
ENDBRANCH   9  16
TORSDOF 4
ENDMDL
MODEL 3
REMARK VINA RESULT:      -8.2      1.022      1.638
REMARK  Name = 
REMARK  5 active torsions:
REMARK  status: ('A' for Active; 'I' for Inactive)
REMARK    1  A    between atoms: C_1  and  C_2
REMARK    2  A    between atoms: C_2  and  N_3
REMARK    3  A    between atoms: C_11  and  N_12
REMARK    4  A    between atoms: N_12  and  S_13
REMARK    5  A    between atoms: S_13  and  C_16
REMARK                            x       y       z     vdW  Elec       q    Type
REMARK                         _______ _______ _______ _____ _____    ______ ____
ROOT
ATOM      1  N   UNL     1      -0.865  11.195  18.870  0.00  0.00    +0.000 N 
ATOM      2  C   UNL     1      -1.289  11.483  20.188  0.00  0.00    +0.000 C 
ATOM      3  O   UNL     1      -2.149  12.292  20.511  0.00  0.00    +0.000 OA
ATOM      4  C   UNL     1      -0.492  10.572  20.984  0.00  0.00    +0.000 A 
ATOM      5  C   UNL     1      -0.494  10.359  22.357  0.00  0.00    +0.000 A 
ATOM      6  C   UNL     1       0.345   9.342  22.839  0.00  0.00    +0.000 A 
ATOM      7  C   UNL     1       1.160   8.580  21.974  0.00  0.00    +0.000 A 
ATOM      8  C   UNL     1       1.180   8.829  20.580  0.00  0.00    +0.000 A 
ATOM      9  C   UNL     1       1.909   8.178  19.552  0.00  0.00    +0.000 A 
ATOM     10  C   UNL     1       1.747   8.590  18.203  0.00  0.00    +0.000 A 
ATOM     11  C   UNL     1       0.832   9.605  17.825  0.00  0.00    +0.000 A 
ATOM     12  C   UNL     1       0.122  10.200  18.855  0.00  0.00    +0.000 A 
ATOM     13  C   UNL     1       0.336   9.822  20.164  0.00  0.00    +0.000 A 
ENDROOT
BRANCH   1  15
ATOM     14  C   UNL     1      -2.614  10.818  17.181  0.00  0.00    +0.000 C 
ATOM     15  C   UNL     1      -1.547  11.759  17.728  0.00  0.00    +0.000 C 
ENDBRANCH   1  15
BRANCH   9  16
ATOM     16  N   UNL     1       2.787   7.074  19.862  0.00  0.00    +0.000 N 
ATOM     17  H   UNL     1       3.081   7.064  20.845  0.00  0.00    +0.000 HD
BRANCH  16  18
ATOM     18  S   UNL     1       2.270   5.500  19.497  0.00  0.00    +0.000 S 
ATOM     19  O   UNL     1       1.391   5.147  20.587  0.00  0.00    +0.000 OA
ATOM     20  O   UNL     1       1.789   5.471  18.131  0.00  0.00    +0.000 OA
BRANCH  18  21
ATOM     21  C   UNL     1       3.791   4.506  19.603  0.00  0.00    +0.000 C 
ATOM     22  C   UNL     1       3.747   3.184  18.829  0.00  0.00    +0.000 C 
ATOM     23  C   UNL     1       3.879   3.350  17.319  0.00  0.00    +0.000 C 
ATOM     24  C   UNL     1       5.117   4.154  16.940  0.00  0.00    +0.000 C 
ATOM     25  C   UNL     1       5.201   5.483  17.684  0.00  0.00    +0.000 C 
ATOM     26  C   UNL     1       5.026   5.327  19.195  0.00  0.00    +0.000 C 
ENDBRANCH  18  21
ENDBRANCH  16  18
ENDBRANCH   9  16
TORSDOF 4
ENDMDL
MODEL 4
REMARK VINA RESULT:      -8.1      0.932      1.392
REMARK  Name = 
REMARK  5 active torsions:
REMARK  status: ('A' for Active; 'I' for Inactive)
REMARK    1  A    between atoms: C_1  and  C_2
REMARK    2  A    between atoms: C_2  and  N_3
REMARK    3  A    between atoms: C_11  and  N_12
REMARK    4  A    between atoms: N_12  and  S_13
REMARK    5  A    between atoms: S_13  and  C_16
REMARK                            x       y       z     vdW  Elec       q    Type
REMARK                         _______ _______ _______ _____ _____    ______ ____
ROOT
ATOM      1  N   UNL     1      -0.784  11.253  18.957  0.00  0.00    +0.000 N 
ATOM      2  C   UNL     1      -1.214  11.537  20.275  0.00  0.00    +0.000 C 
ATOM      3  O   UNL     1      -2.050  12.369  20.600  0.00  0.00    +0.000 OA
ATOM      4  C   UNL     1      -0.456  10.589  21.066  0.00  0.00    +0.000 A 
ATOM      5  C   UNL     1      -0.481  10.357  22.436  0.00  0.00    +0.000 A 
ATOM      6  C   UNL     1       0.319   9.306  22.913  0.00  0.00    +0.000 A 
ATOM      7  C   UNL     1       1.118   8.530  22.047  0.00  0.00    +0.000 A 
ATOM      8  C   UNL     1       1.162   8.797  20.657  0.00  0.00    +0.000 A 
ATOM      9  C   UNL     1       1.882   8.137  19.627  0.00  0.00    +0.000 A 
ATOM     10  C   UNL     1       1.748   8.572  18.283  0.00  0.00    +0.000 A 
ATOM     11  C   UNL     1       0.872   9.623  17.909  0.00  0.00    +0.000 A 
ATOM     12  C   UNL     1       0.170  10.227  18.940  0.00  0.00    +0.000 A 
ATOM     13  C   UNL     1       0.356   9.824  20.246  0.00  0.00    +0.000 A 
ENDROOT
BRANCH   1  15
ATOM     14  C   UNL     1      -2.626  11.034  17.342  0.00  0.00    +0.000 C 
ATOM     15  C   UNL     1      -1.434  11.855  17.816  0.00  0.00    +0.000 C 
ENDBRANCH   1  15
BRANCH   9  16
ATOM     16  N   UNL     1       2.719   7.000  19.932  0.00  0.00    +0.000 N 
ATOM     17  H   UNL     1       2.989   6.959  20.920  0.00  0.00    +0.000 HD
BRANCH  16  18
ATOM     18  S   UNL     1       2.164   5.451  19.518  0.00  0.00    +0.000 S 
ATOM     19  O   UNL     1       1.228   5.112  20.564  0.00  0.00    +0.000 OA
ATOM     20  O   UNL     1       1.740   5.460  18.134  0.00  0.00    +0.000 OA
BRANCH  18  21
ATOM     21  C   UNL     1       3.645   4.403  19.670  0.00  0.00    +0.000 C 
ATOM     22  C   UNL     1       3.377   2.993  20.208  0.00  0.00    +0.000 C 
ATOM     23  C   UNL     1       2.736   2.057  19.189  0.00  0.00    +0.000 C 
ATOM     24  C   UNL     1       3.532   1.997  17.890  0.00  0.00    +0.000 C 
ATOM     25  C   UNL     1       3.819   3.380  17.315  0.00  0.00    +0.000 C 
ATOM     26  C   UNL     1       4.422   4.336  18.345  0.00  0.00    +0.000 C 
ENDBRANCH  18  21
ENDBRANCH  16  18
ENDBRANCH   9  16
TORSDOF 4
ENDMDL
MODEL 5
REMARK VINA RESULT:      -7.9      1.044      1.335
REMARK  Name = 
REMARK  5 active torsions:
REMARK  status: ('A' for Active; 'I' for Inactive)
REMARK    1  A    between atoms: C_1  and  C_2
REMARK    2  A    between atoms: C_2  and  N_3
REMARK    3  A    between atoms: C_11  and  N_12
REMARK    4  A    between atoms: N_12  and  S_13
REMARK    5  A    between atoms: S_13  and  C_16
REMARK                            x       y       z     vdW  Elec       q    Type
REMARK                         _______ _______ _______ _____ _____    ______ ____
ROOT
ATOM      1  N   UNL     1      -0.867  11.299  18.870  0.00  0.00    +0.000 N 
ATOM      2  C   UNL     1      -1.378  11.686  20.132  0.00  0.00    +0.000 C 
ATOM      3  O   UNL     1      -2.230  12.541  20.336  0.00  0.00    +0.000 OA
ATOM      4  C   UNL     1      -0.677  10.804  21.042  0.00  0.00    +0.000 A 
ATOM      5  C   UNL     1      -0.790  10.681  22.421  0.00  0.00    +0.000 A 
ATOM      6  C   UNL     1      -0.027   9.672  23.029  0.00  0.00    +0.000 A 
ATOM      7  C   UNL     1       0.823   8.829  22.280  0.00  0.00    +0.000 A 
ATOM      8  C   UNL     1       0.956   8.986  20.879  0.00  0.00    +0.000 A 
ATOM      9  C   UNL     1       1.736   8.247  19.953  0.00  0.00    +0.000 A 
ATOM     10  C   UNL     1       1.691   8.574  18.573  0.00  0.00    +0.000 A 
ATOM     11  C   UNL     1       0.845   9.591  18.062  0.00  0.00    +0.000 A 
ATOM     12  C   UNL     1       0.082  10.274  18.995  0.00  0.00    +0.000 A 
ATOM     13  C   UNL     1       0.182   9.976  20.338  0.00  0.00    +0.000 A 
ENDROOT
BRANCH   1  15
ATOM     14  C   UNL     1      -2.638  10.982  17.192  0.00  0.00    +0.000 C 
ATOM     15  C   UNL     1      -1.440  11.808  17.646  0.00  0.00    +0.000 C 
ENDBRANCH   1  15
BRANCH   9  16
ATOM     16  N   UNL     1       2.548   7.138  20.399  0.00  0.00    +0.000 N 
ATOM     17  H   UNL     1       2.121   6.619  21.173  0.00  0.00    +0.000 HD
BRANCH  16  18
ATOM     18  S   UNL     1       3.040   5.983  19.257  0.00  0.00    +0.000 S 
ATOM     19  O   UNL     1       3.379   6.756  18.086  0.00  0.00    +0.000 OA
ATOM     20  O   UNL     1       4.022   5.111  19.867  0.00  0.00    +0.000 OA
BRANCH  18  21
ATOM     21  C   UNL     1       1.528   5.023  18.930  0.00  0.00    +0.000 C 
ATOM     22  C   UNL     1       1.536   4.249  17.607  0.00  0.00    +0.000 C 
ATOM     23  C   UNL     1       2.408   2.997  17.633  0.00  0.00    +0.000 C 
ATOM     24  C   UNL     1       2.049   2.077  18.794  0.00  0.00    +0.000 C 
ATOM     25  C   UNL     1       2.033   2.805  20.134  0.00  0.00    +0.000 C 
ATOM     26  C   UNL     1       1.196   4.085  20.102  0.00  0.00    +0.000 C 
ENDBRANCH  18  21
ENDBRANCH  16  18
ENDBRANCH   9  16
TORSDOF 4
ENDMDL
MODEL 6
REMARK VINA RESULT:      -7.7      2.528      7.556
REMARK  Name = 
REMARK  5 active torsions:
REMARK  status: ('A' for Active; 'I' for Inactive)
REMARK    1  A    between atoms: C_1  and  C_2
REMARK    2  A    between atoms: C_2  and  N_3
REMARK    3  A    between atoms: C_11  and  N_12
REMARK    4  A    between atoms: N_12  and  S_13
REMARK    5  A    between atoms: S_13  and  C_16
REMARK                            x       y       z     vdW  Elec       q    Type
REMARK                         _______ _______ _______ _____ _____    ______ ____
ROOT
ATOM      1  N   UNL     1       4.313   4.136  17.187  0.00  0.00    +0.000 N 
ATOM      2  C   UNL     1       3.752   3.084  17.947  0.00  0.00    +0.000 C 
ATOM      3  O   UNL     1       4.024   1.895  17.850  0.00  0.00    +0.000 OA
ATOM      4  C   UNL     1       2.853   3.785  18.843  0.00  0.00    +0.000 A 
ATOM      5  C   UNL     1       2.048   3.287  19.860  0.00  0.00    +0.000 A 
ATOM      6  C   UNL     1       1.336   4.229  20.618  0.00  0.00    +0.000 A 
ATOM      7  C   UNL     1       1.424   5.614  20.356  0.00  0.00    +0.000 A 
ATOM      8  C   UNL     1       2.221   6.107  19.295  0.00  0.00    +0.000 A 
ATOM      9  C   UNL     1       2.451   7.443  18.877  0.00  0.00    +0.000 A 
ATOM     10  C   UNL     1       3.322   7.701  17.787  0.00  0.00    +0.000 A 
ATOM     11  C   UNL     1       4.027   6.668  17.118  0.00  0.00    +0.000 A 
ATOM     12  C   UNL     1       3.793   5.380  17.570  0.00  0.00    +0.000 A 
ATOM     13  C   UNL     1       2.901   5.147  18.596  0.00  0.00    +0.000 A 
ENDROOT
BRANCH   1  15
ATOM     14  C   UNL     1       6.739   4.386  16.857  0.00  0.00    +0.000 C 
ATOM     15  C   UNL     1       5.415   3.896  16.283  0.00  0.00    +0.000 C 
ENDBRANCH   1  15
BRANCH   9  16
ATOM     16  N   UNL     1       1.835   8.546  19.578  0.00  0.00    +0.000 N 
ATOM     17  H   UNL     1       2.493   9.051  20.180  0.00  0.00    +0.000 HD
BRANCH  16  18
ATOM     18  S   UNL     1       1.010   9.721  18.673  0.00  0.00    +0.000 S 
ATOM     19  O   UNL     1       1.920  10.840  18.620  0.00  0.00    +0.000 OA
ATOM     20  O   UNL     1       0.525   9.115  17.450  0.00  0.00    +0.000 OA
BRANCH  18  21
ATOM     21  C   UNL     1      -0.417  10.153  19.718  0.00  0.00    +0.000 C 
ATOM     22  C   UNL     1      -0.086  11.063  20.906  0.00  0.00    +0.000 C 
ATOM     23  C   UNL     1       0.158  12.518  20.519  0.00  0.00    +0.000 C 
ATOM     24  C   UNL     1      -0.997  13.092  19.705  0.00  0.00    +0.000 C 
ATOM     25  C   UNL     1      -1.358  12.220  18.507  0.00  0.00    +0.000 C 
ATOM     26  C   UNL     1      -1.561  10.752  18.883  0.00  0.00    +0.000 C 
ENDBRANCH  18  21
ENDBRANCH  16  18
ENDBRANCH   9  16
TORSDOF 4
ENDMDL
MODEL 7
REMARK VINA RESULT:      -7.7      2.460      7.383
REMARK  Name = 
REMARK  5 active torsions:
REMARK  status: ('A' for Active; 'I' for Inactive)
REMARK    1  A    between atoms: C_1  and  C_2
REMARK    2  A    between atoms: C_2  and  N_3
REMARK    3  A    between atoms: C_11  and  N_12
REMARK    4  A    between atoms: N_12  and  S_13
REMARK    5  A    between atoms: S_13  and  C_16
REMARK                            x       y       z     vdW  Elec       q    Type
REMARK                         _______ _______ _______ _____ _____    ______ ____
ROOT
ATOM      1  N   UNL     1       4.245   4.170  17.114  0.00  0.00    +0.000 N 
ATOM      2  C   UNL     1       3.696   3.097  17.855  0.00  0.00    +0.000 C 
ATOM      3  O   UNL     1       3.949   1.910  17.705  0.00  0.00    +0.000 OA
ATOM      4  C   UNL     1       2.839   3.775  18.807  0.00  0.00    +0.000 A 
ATOM      5  C   UNL     1       2.063   3.250  19.833  0.00  0.00    +0.000 A 
ATOM      6  C   UNL     1       1.390   4.171  20.650  0.00  0.00    +0.000 A 
ATOM      7  C   UNL     1       1.487   5.563  20.436  0.00  0.00    +0.000 A 
ATOM      8  C   UNL     1       2.254   6.086  19.367  0.00  0.00    +0.000 A 
ATOM      9  C   UNL     1       2.486   7.434  18.991  0.00  0.00    +0.000 A 
ATOM     10  C   UNL     1       3.323   7.722  17.881  0.00  0.00    +0.000 A 
ATOM     11  C   UNL     1       3.990   6.707  17.150  0.00  0.00    +0.000 A 
ATOM     12  C   UNL     1       3.755   5.405  17.562  0.00  0.00    +0.000 A 
ATOM     13  C   UNL     1       2.896   5.145  18.609  0.00  0.00    +0.000 A 
ENDROOT
BRANCH   1  15
ATOM     14  C   UNL     1       6.666   4.371  16.723  0.00  0.00    +0.000 C 
ATOM     15  C   UNL     1       5.311   3.951  16.165  0.00  0.00    +0.000 C 
ENDBRANCH   1  15
BRANCH   9  16
ATOM     16  N   UNL     1       1.910   8.517  19.753  0.00  0.00    +0.000 N 
ATOM     17  H   UNL     1       2.604   9.025  20.310  0.00  0.00    +0.000 HD
BRANCH  16  18
ATOM     18  S   UNL     1       0.999   9.691  18.931  0.00  0.00    +0.000 S 
ATOM     19  O   UNL     1       1.713  10.925  19.159  0.00  0.00    +0.000 OA
ATOM     20  O   UNL     1       0.749   9.230  17.582  0.00  0.00    +0.000 OA
BRANCH  18  21
ATOM     21  C   UNL     1      -0.579   9.731  19.838  0.00  0.00    +0.000 C 
ATOM     22  C   UNL     1      -0.518   9.147  21.254  0.00  0.00    +0.000 C 
ATOM     23  C   UNL     1       0.167  10.058  22.267  0.00  0.00    +0.000 C 
ATOM     24  C   UNL     1      -0.448  11.453  22.286  0.00  0.00    +0.000 C 
ATOM     25  C   UNL     1      -0.526  12.077  20.896  0.00  0.00    +0.000 C 
ATOM     26  C   UNL     1      -1.172  11.150  19.866  0.00  0.00    +0.000 C 
ENDBRANCH  18  21
ENDBRANCH  16  18
ENDBRANCH   9  16
TORSDOF 4
ENDMDL
MODEL 8
REMARK VINA RESULT:      -7.4      1.583      2.215
REMARK  Name = 
REMARK  5 active torsions:
REMARK  status: ('A' for Active; 'I' for Inactive)
REMARK    1  A    between atoms: C_1  and  C_2
REMARK    2  A    between atoms: C_2  and  N_3
REMARK    3  A    between atoms: C_11  and  N_12
REMARK    4  A    between atoms: N_12  and  S_13
REMARK    5  A    between atoms: S_13  and  C_16
REMARK                            x       y       z     vdW  Elec       q    Type
REMARK                         _______ _______ _______ _____ _____    ______ ____
ROOT
ATOM      1  N   UNL     1      -0.889  11.426  19.042  0.00  0.00    +0.000 N 
ATOM      2  C   UNL     1      -1.272  11.629  20.389  0.00  0.00    +0.000 C 
ATOM      3  O   UNL     1      -2.102  12.433  20.792  0.00  0.00    +0.000 OA
ATOM      4  C   UNL     1      -0.478  10.645  21.096  0.00  0.00    +0.000 A 
ATOM      5  C   UNL     1      -0.450  10.334  22.450  0.00  0.00    +0.000 A 
ATOM      6  C   UNL     1       0.375   9.266  22.835  0.00  0.00    +0.000 A 
ATOM      7  C   UNL     1       1.148   8.549  21.897  0.00  0.00    +0.000 A 
ATOM      8  C   UNL     1       1.138   8.896  20.524  0.00  0.00    +0.000 A 
ATOM      9  C   UNL     1       1.824   8.304  19.433  0.00  0.00    +0.000 A 
ATOM     10  C   UNL     1       1.638   8.814  18.122  0.00  0.00    +0.000 A 
ATOM     11  C   UNL     1       0.740   9.875  17.841  0.00  0.00    +0.000 A 
ATOM     12  C   UNL     1       0.072  10.412  18.930  0.00  0.00    +0.000 A 
ATOM     13  C   UNL     1       0.309   9.936  20.203  0.00  0.00    +0.000 A 
ENDROOT
BRANCH   1  15
ATOM     14  C   UNL     1      -2.547  11.146  17.247  0.00  0.00    +0.000 C 
ATOM     15  C   UNL     1      -1.586  12.086  17.962  0.00  0.00    +0.000 C 
ENDBRANCH   1  15
BRANCH   9  16
ATOM     16  N   UNL     1       2.682   7.160  19.640  0.00  0.00    +0.000 N 
ATOM     17  H   UNL     1       2.311   6.506  20.338  0.00  0.00    +0.000 HD
BRANCH  16  18
ATOM     18  S   UNL     1       3.128   6.227  18.295  0.00  0.00    +0.000 S 
ATOM     19  O   UNL     1       1.908   5.567  17.894  0.00  0.00    +0.000 OA
ATOM     20  O   UNL     1       3.845   7.068  17.360  0.00  0.00    +0.000 OA
BRANCH  18  21
ATOM     21  C   UNL     1       4.281   4.997  18.981  0.00  0.00    +0.000 C 
ATOM     22  C   UNL     1       4.422   3.718  18.148  0.00  0.00    +0.000 C 
ATOM     23  C   UNL     1       5.256   3.895  16.883  0.00  0.00    +0.000 C 
ATOM     24  C   UNL     1       6.624   4.497  17.183  0.00  0.00    +0.000 C 
ATOM     25  C   UNL     1       6.533   5.776  18.008  0.00  0.00    +0.000 C 
ATOM     26  C   UNL     1       5.662   5.616  19.255  0.00  0.00    +0.000 C 
ENDBRANCH  18  21
ENDBRANCH  16  18
ENDBRANCH   9  16
TORSDOF 4
ENDMDL
MODEL 9
REMARK VINA RESULT:      -7.4      2.474      4.169
REMARK  Name = 
REMARK  5 active torsions:
REMARK  status: ('A' for Active; 'I' for Inactive)
REMARK    1  A    between atoms: C_1  and  C_2
REMARK    2  A    between atoms: C_2  and  N_3
REMARK    3  A    between atoms: C_11  and  N_12
REMARK    4  A    between atoms: N_12  and  S_13
REMARK    5  A    between atoms: S_13  and  C_16
REMARK                            x       y       z     vdW  Elec       q    Type
REMARK                         _______ _______ _______ _____ _____    ______ ____
ROOT
ATOM      1  N   UNL     1       0.761   9.234  21.607  0.00  0.00    +0.000 N 
ATOM      2  C   UNL     1       0.820  10.364  20.757  0.00  0.00    +0.000 C 
ATOM      3  O   UNL     1       0.496  11.507  21.049  0.00  0.00    +0.000 OA
ATOM      4  C   UNL     1       1.381   9.814  19.539  0.00  0.00    +0.000 A 
ATOM      5  C   UNL     1       1.716  10.452  18.351  0.00  0.00    +0.000 A 
ATOM      6  C   UNL     1       2.320   9.662  17.360  0.00  0.00    +0.000 A 
ATOM      7  C   UNL     1       2.566   8.286  17.555  0.00  0.00    +0.000 A 
ATOM      8  C   UNL     1       2.189   7.639  18.757  0.00  0.00    +0.000 A 
ATOM      9  C   UNL     1       2.355   6.286  19.151  0.00  0.00    +0.000 A 
ATOM     10  C   UNL     1       1.914   5.866  20.433  0.00  0.00    +0.000 A 
ATOM     11  C   UNL     1       1.354   6.766  21.375  0.00  0.00    +0.000 A 
ATOM     12  C   UNL     1       1.231   8.082  20.961  0.00  0.00    +0.000 A 
ATOM     13  C   UNL     1       1.615   8.458  19.691  0.00  0.00    +0.000 A 
ENDROOT
BRANCH   1  15
ATOM     14  C   UNL     1      -0.957   9.974  23.205  0.00  0.00    +0.000 C 
ATOM     15  C   UNL     1       0.428   9.372  23.006  0.00  0.00    +0.000 C 
ENDBRANCH   1  15
BRANCH   9  16
ATOM     16  N   UNL     1       3.003   5.341  18.271  0.00  0.00    +0.000 N 
ATOM     17  H   UNL     1       3.186   5.727  17.339  0.00  0.00    +0.000 HD
BRANCH  16  18
ATOM     18  S   UNL     1       4.449   4.617  18.785  0.00  0.00    +0.000 S 
ATOM     19  O   UNL     1       4.944   5.494  19.820  0.00  0.00    +0.000 OA
ATOM     20  O   UNL     1       4.197   3.220  19.070  0.00  0.00    +0.000 OA
BRANCH  18  21
ATOM     21  C   UNL     1       5.535   4.730  17.329  0.00  0.00    +0.000 C 
ATOM     22  C   UNL     1       5.348   5.999  16.489  0.00  0.00    +0.000 C 
ATOM     23  C   UNL     1       5.950   7.250  17.121  0.00  0.00    +0.000 C 
ATOM     24  C   UNL     1       7.418   7.055  17.483  0.00  0.00    +0.000 C 
ATOM     25  C   UNL     1       7.652   5.804  18.324  0.00  0.00    +0.000 C 
ATOM     26  C   UNL     1       7.013   4.554  17.717  0.00  0.00    +0.000 C 
ENDBRANCH  18  21
ENDBRANCH  16  18
ENDBRANCH   9  16
TORSDOF 4
ENDMDL
