MODEL 1
REMARK VINA RESULT:      -6.8      0.000      0.000
REMARK  Name = 
REMARK  6 active torsions:
REMARK  status: ('A' for Active; 'I' for Inactive)
REMARK    1  A    between atoms: C_1  and  C_2
REMARK    2  A    between atoms: C_2  and  O_3
REMARK    3  A    between atoms: O_3  and  C_4
REMARK    4  A    between atoms: C_6  and  S_7
REMARK    5  A    between atoms: S_7  and  C_8
REMARK    6  A    between atoms: C_11  and  C_12
REMARK                            x       y       z     vdW  Elec       q    Type
REMARK                         _______ _______ _______ _____ _____    ______ ____
ROOT
ATOM      1  C   UNL     1       2.145   7.067  19.938  0.00  0.00    +0.000 A 
ATOM      2  C   UNL     1       1.341   8.030  20.582  0.00  0.00    +0.000 A 
ATOM      3  C   UNL     1       0.952   9.219  19.954  0.00  0.00    +0.000 A 
ATOM      4  C   UNL     1       1.388   9.466  18.658  0.00  0.00    +0.000 A 
ATOM      5  C   UNL     1       2.190   8.529  18.002  0.00  0.00    +0.000 A 
ATOM      6  C   UNL     1       2.582   7.326  18.627  0.00  0.00    +0.000 A 
ENDROOT
BRANCH   6   7
ATOM      7  C   UNL     1       3.486   6.429  17.847  0.00  0.00    +0.000 A 
ATOM      8  N   UNL     1       4.719   6.952  17.417  0.00  0.00    +0.000 NA
ATOM      9  C   UNL     1       5.300   5.939  16.856  0.00  0.00    +0.000 A 
ATOM     10  C   UNL     1       6.635   5.814  16.243  0.00  0.00    +0.000 A 
ATOM     11  C   UNL     1       6.953   4.585  15.803  0.00  0.00    +0.000 A 
ATOM     12  N   UNL     1       6.097   3.507  15.876  0.00  0.00    +0.000 N 
ATOM     13  C   UNL     1       4.843   3.620  16.440  0.00  0.00    +0.000 A 
ATOM     14  C   UNL     1       4.403   4.784  16.923  0.00  0.00    +0.000 A 
ATOM     15  N   UNL     1       3.262   5.172  17.558  0.00  0.00    +0.000 NA
ATOM     16  H   UNL     1       6.432   2.587  15.607  0.00  0.00    +0.000 HD
ENDBRANCH   6   7
BRANCH   3  17
ATOM     17  S   UNL     1      -0.050  10.357  20.899  0.00  0.00    +0.000 S 
ATOM     18  C   UNL     1      -0.305   9.429  22.433  0.00  0.00    +0.000 C 
ENDBRANCH   3  17
BRANCH   1  19
ATOM     19  O   UNL     1       2.512   5.891  20.548  0.00  0.00    +0.000 OA
BRANCH  19  21
ATOM     20  C   UNL     1       2.045   3.684  21.422  0.00  0.00    +0.000 C 
ATOM     21  C   UNL     1       1.504   4.884  20.668  0.00  0.00    +0.000 C 
ENDBRANCH  19  21
ENDBRANCH   1  19
TORSDOF 4
ENDMDL
MODEL 2
REMARK VINA RESULT:      -6.7      3.202      6.442
REMARK  Name = 
REMARK  6 active torsions:
REMARK  status: ('A' for Active; 'I' for Inactive)
REMARK    1  A    between atoms: C_1  and  C_2
REMARK    2  A    between atoms: C_2  and  O_3
REMARK    3  A    between atoms: O_3  and  C_4
REMARK    4  A    between atoms: C_6  and  S_7
REMARK    5  A    between atoms: S_7  and  C_8
REMARK    6  A    between atoms: C_11  and  C_12
REMARK                            x       y       z     vdW  Elec       q    Type
REMARK                         _______ _______ _______ _____ _____    ______ ____
ROOT
ATOM      1  C   UNL     1       3.064   5.180  17.874  0.00  0.00    +0.000 A 
ATOM      2  C   UNL     1       3.912   4.373  17.088  0.00  0.00    +0.000 A 
ATOM      3  C   UNL     1       5.016   4.894  16.403  0.00  0.00    +0.000 A 
ATOM      4  C   UNL     1       5.274   6.257  16.486  0.00  0.00    +0.000 A 
ATOM      5  C   UNL     1       4.444   7.077  17.253  0.00  0.00    +0.000 A 
ATOM      6  C   UNL     1       3.333   6.559  17.951  0.00  0.00    +0.000 A 
ENDROOT
BRANCH   6   7
ATOM      7  C   UNL     1       2.486   7.541  18.691  0.00  0.00    +0.000 A 
ATOM      8  N   UNL     1       1.946   8.619  17.968  0.00  0.00    +0.000 NA
ATOM      9  C   UNL     1       1.211   9.234  18.840  0.00  0.00    +0.000 A 
ATOM     10  C   UNL     1       0.344  10.418  18.704  0.00  0.00    +0.000 A 
ATOM     11  C   UNL     1      -0.339  10.761  19.809  0.00  0.00    +0.000 A 
ATOM     12  N   UNL     1      -0.227  10.091  21.009  0.00  0.00    +0.000 N 
ATOM     13  C   UNL     1       0.591   8.989  21.145  0.00  0.00    +0.000 A 
ATOM     14  C   UNL     1       1.319   8.536  20.123  0.00  0.00    +0.000 A 
ATOM     15  N   UNL     1       2.156   7.474  19.956  0.00  0.00    +0.000 NA
ATOM     16  H   UNL     1      -0.837  10.348  21.780  0.00  0.00    +0.000 HD
ENDBRANCH   6   7
BRANCH   3  17
ATOM     17  S   UNL     1       5.989   3.756  15.429  0.00  0.00    +0.000 S 
ATOM     18  C   UNL     1       6.975   4.891  14.420  0.00  0.00    +0.000 C 
ENDBRANCH   3  17
BRANCH   1  19
ATOM     19  O   UNL     1       1.991   4.666  18.562  0.00  0.00    +0.000 OA
BRANCH  19  21
ATOM     20  C   UNL     1       1.140   3.853  20.675  0.00  0.00    +0.000 C 
ATOM     21  C   UNL     1       2.284   3.824  19.680  0.00  0.00    +0.000 C 
ENDBRANCH  19  21
ENDBRANCH   1  19
TORSDOF 4
ENDMDL
MODEL 3
REMARK VINA RESULT:      -6.6      3.176      6.504
REMARK  Name = 
REMARK  6 active torsions:
REMARK  status: ('A' for Active; 'I' for Inactive)
REMARK    1  A    between atoms: C_1  and  C_2
REMARK    2  A    between atoms: C_2  and  O_3
REMARK    3  A    between atoms: O_3  and  C_4
REMARK    4  A    between atoms: C_6  and  S_7
REMARK    5  A    between atoms: S_7  and  C_8
REMARK    6  A    between atoms: C_11  and  C_12
REMARK                            x       y       z     vdW  Elec       q    Type
REMARK                         _______ _______ _______ _____ _____    ______ ____
ROOT
ATOM      1  C   UNL     1       2.888   5.269  17.882  0.00  0.00    +0.000 A 
ATOM      2  C   UNL     1       3.762   4.443  17.145  0.00  0.00    +0.000 A 
ATOM      3  C   UNL     1       4.929   4.934  16.549  0.00  0.00    +0.000 A 
ATOM      4  C   UNL     1       5.227   6.286  16.673  0.00  0.00    +0.000 A 
ATOM      5  C   UNL     1       4.373   7.124  17.393  0.00  0.00    +0.000 A 
ATOM      6  C   UNL     1       3.197   6.635  18.001  0.00  0.00    +0.000 A 
ENDROOT
BRANCH   6   7
ATOM      7  C   UNL     1       2.335   7.636  18.696  0.00  0.00    +0.000 A 
ATOM      8  N   UNL     1       2.096   7.457  20.070  0.00  0.00    +0.000 NA
ATOM      9  C   UNL     1       1.403   8.500  20.399  0.00  0.00    +0.000 A 
ATOM     10  C   UNL     1       0.874   8.933  21.705  0.00  0.00    +0.000 A 
ATOM     11  C   UNL     1       0.242  10.118  21.706  0.00  0.00    +0.000 A 
ATOM     12  N   UNL     1       0.057  10.882  20.573  0.00  0.00    +0.000 N 
ATOM     13  C   UNL     1       0.541  10.478  19.345  0.00  0.00    +0.000 A 
ATOM     14  C   UNL     1       1.195   9.323  19.205  0.00  0.00    +0.000 A 
ATOM     15  N   UNL     1       1.807   8.706  18.156  0.00  0.00    +0.000 NA
ATOM     16  H   UNL     1      -0.351  11.808  20.659  0.00  0.00    +0.000 HD
ENDBRANCH   6   7
BRANCH   3  17
ATOM     17  S   UNL     1       5.930   3.776  15.627  0.00  0.00    +0.000 S 
ATOM     18  C   UNL     1       6.900   4.888  14.579  0.00  0.00    +0.000 C 
ENDBRANCH   3  17
BRANCH   1  19
ATOM     19  O   UNL     1       1.751   4.782  18.483  0.00  0.00    +0.000 OA
BRANCH  19  21
ATOM     20  C   UNL     1       1.631   4.024  20.777  0.00  0.00    +0.000 C 
ATOM     21  C   UNL     1       1.907   3.644  19.335  0.00  0.00    +0.000 C 
ENDBRANCH  19  21
ENDBRANCH   1  19
TORSDOF 4
ENDMDL
MODEL 4
REMARK VINA RESULT:      -6.6      4.245      7.089
REMARK  Name = 
REMARK  6 active torsions:
REMARK  status: ('A' for Active; 'I' for Inactive)
REMARK    1  A    between atoms: C_1  and  C_2
REMARK    2  A    between atoms: C_2  and  O_3
REMARK    3  A    between atoms: O_3  and  C_4
REMARK    4  A    between atoms: C_6  and  S_7
REMARK    5  A    between atoms: S_7  and  C_8
REMARK    6  A    between atoms: C_11  and  C_12
REMARK                            x       y       z     vdW  Elec       q    Type
REMARK                         _______ _______ _______ _____ _____    ______ ____
ROOT
ATOM      1  C   UNL     1       6.289   5.358  17.032  0.00  0.00    +0.000 A 
ATOM      2  C   UNL     1       7.017   5.553  15.841  0.00  0.00    +0.000 A 
ATOM      3  C   UNL     1       6.746   4.830  14.672  0.00  0.00    +0.000 A 
ATOM      4  C   UNL     1       5.736   3.876  14.694  0.00  0.00    +0.000 A 
ATOM      5  C   UNL     1       5.006   3.662  15.864  0.00  0.00    +0.000 A 
ATOM      6  C   UNL     1       5.269   4.389  17.044  0.00  0.00    +0.000 A 
ENDROOT
BRANCH   6   7
ATOM      7  C   UNL     1       4.461   4.033  18.248  0.00  0.00    +0.000 A 
ATOM      8  N   UNL     1       3.141   4.513  18.319  0.00  0.00    +0.000 NA
ATOM      9  C   UNL     1       2.681   3.983  19.407  0.00  0.00    +0.000 A 
ATOM     10  C   UNL     1       1.345   4.058  20.025  0.00  0.00    +0.000 A 
ATOM     11  C   UNL     1       1.184   3.326  21.140  0.00  0.00    +0.000 A 
ATOM     12  N   UNL     1       2.192   2.575  21.707  0.00  0.00    +0.000 N 
ATOM     13  C   UNL     1       3.447   2.509  21.140  0.00  0.00    +0.000 A 
ATOM     14  C   UNL     1       3.740   3.183  20.026  0.00  0.00    +0.000 A 
ATOM     15  N   UNL     1       4.848   3.269  19.238  0.00  0.00    +0.000 NA
ATOM     16  H   UNL     1       1.979   1.976  22.499  0.00  0.00    +0.000 HD
ENDBRANCH   6   7
BRANCH   3  17
ATOM     17  S   UNL     1       7.765   5.167  13.244  0.00  0.00    +0.000 S 
ATOM     18  C   UNL     1       7.083   4.011  12.030  0.00  0.00    +0.000 C 
ENDBRANCH   3  17
BRANCH   1  19
ATOM     19  O   UNL     1       6.543   6.080  18.174  0.00  0.00    +0.000 OA
BRANCH  19  21
ATOM     20  C   UNL     1       7.829   8.094  17.800  0.00  0.00    +0.000 C 
ATOM     21  C   UNL     1       7.844   6.660  18.294  0.00  0.00    +0.000 C 
ENDBRANCH  19  21
ENDBRANCH   1  19
TORSDOF 4
ENDMDL
MODEL 5
REMARK VINA RESULT:      -6.5      3.512      4.855
REMARK  Name = 
REMARK  6 active torsions:
REMARK  status: ('A' for Active; 'I' for Inactive)
REMARK    1  A    between atoms: C_1  and  C_2
REMARK    2  A    between atoms: C_2  and  O_3
REMARK    3  A    between atoms: O_3  and  C_4
REMARK    4  A    between atoms: C_6  and  S_7
REMARK    5  A    between atoms: S_7  and  C_8
REMARK    6  A    between atoms: C_11  and  C_12
REMARK                            x       y       z     vdW  Elec       q    Type
REMARK                         _______ _______ _______ _____ _____    ______ ____
ROOT
ATOM      1  C   UNL     1       5.421   4.557  18.509  0.00  0.00    +0.000 A 
ATOM      2  C   UNL     1       4.566   4.604  19.629  0.00  0.00    +0.000 A 
ATOM      3  C   UNL     1       3.171   4.594  19.505  0.00  0.00    +0.000 A 
ATOM      4  C   UNL     1       2.612   4.556  18.234  0.00  0.00    +0.000 A 
ATOM      5  C   UNL     1       3.439   4.516  17.110  0.00  0.00    +0.000 A 
ATOM      6  C   UNL     1       4.845   4.520  17.226  0.00  0.00    +0.000 A 
ENDROOT
BRANCH   6   7
ATOM      7  C   UNL     1       5.625   4.532  15.953  0.00  0.00    +0.000 A 
ATOM      8  N   UNL     1       5.273   3.602  14.958  0.00  0.00    +0.000 NA
ATOM      9  C   UNL     1       6.051   3.905  13.968  0.00  0.00    +0.000 A 
ATOM     10  C   UNL     1       6.149   3.336  12.612  0.00  0.00    +0.000 A 
ATOM     11  C   UNL     1       7.035   3.935  11.799  0.00  0.00    +0.000 A 
ATOM     12  N   UNL     1       7.833   4.989  12.190  0.00  0.00    +0.000 N 
ATOM     13  C   UNL     1       7.753   5.520  13.461  0.00  0.00    +0.000 A 
ATOM     14  C   UNL     1       6.908   5.023  14.367  0.00  0.00    +0.000 A 
ATOM     15  N   UNL     1       6.589   5.363  15.647  0.00  0.00    +0.000 NA
ATOM     16  H   UNL     1       8.417   5.453  11.501  0.00  0.00    +0.000 HD
ENDBRANCH   6   7
BRANCH   3  17
ATOM     17  S   UNL     1       2.213   4.679  21.011  0.00  0.00    +0.000 S 
ATOM     18  C   UNL     1       1.905   2.927  21.345  0.00  0.00    +0.000 C 
ENDBRANCH   3  17
BRANCH   1  19
ATOM     19  O   UNL     1       6.790   4.549  18.631  0.00  0.00    +0.000 OA
BRANCH  19  21
ATOM     20  C   UNL     1       7.843   6.719  18.454  0.00  0.00    +0.000 C 
ATOM     21  C   UNL     1       7.378   5.614  19.383  0.00  0.00    +0.000 C 
ENDBRANCH  19  21
ENDBRANCH   1  19
TORSDOF 4
ENDMDL
MODEL 6
REMARK VINA RESULT:      -6.5      1.327      1.638
REMARK  Name = 
REMARK  6 active torsions:
REMARK  status: ('A' for Active; 'I' for Inactive)
REMARK    1  A    between atoms: C_1  and  C_2
REMARK    2  A    between atoms: C_2  and  O_3
REMARK    3  A    between atoms: O_3  and  C_4
REMARK    4  A    between atoms: C_6  and  S_7
REMARK    5  A    between atoms: S_7  and  C_8
REMARK    6  A    between atoms: C_11  and  C_12
REMARK                            x       y       z     vdW  Elec       q    Type
REMARK                         _______ _______ _______ _____ _____    ______ ____
ROOT
ATOM      1  C   UNL     1       2.403   5.853  20.292  0.00  0.00    +0.000 A 
ATOM      2  C   UNL     1       1.416   6.586  20.981  0.00  0.00    +0.000 A 
ATOM      3  C   UNL     1       1.038   7.877  20.594  0.00  0.00    +0.000 A 
ATOM      4  C   UNL     1       1.672   8.463  19.505  0.00  0.00    +0.000 A 
ATOM      5  C   UNL     1       2.657   7.758  18.811  0.00  0.00    +0.000 A 
ATOM      6  C   UNL     1       3.040   6.454  19.191  0.00  0.00    +0.000 A 
ENDROOT
BRANCH   6   7
ATOM      7  C   UNL     1       4.144   5.822  18.409  0.00  0.00    +0.000 A 
ATOM      8  N   UNL     1       3.882   5.465  17.074  0.00  0.00    +0.000 NA
ATOM      9  C   UNL     1       5.024   5.030  16.645  0.00  0.00    +0.000 A 
ATOM     10  C   UNL     1       5.431   4.546  15.314  0.00  0.00    +0.000 A 
ATOM     11  C   UNL     1       6.729   4.224  15.190  0.00  0.00    +0.000 A 
ATOM     12  N   UNL     1       7.633   4.300  16.229  0.00  0.00    +0.000 N 
ATOM     13  C   UNL     1       7.256   4.743  17.480  0.00  0.00    +0.000 A 
ATOM     14  C   UNL     1       5.996   5.102  17.738  0.00  0.00    +0.000 A 
ATOM     15  N   UNL     1       5.363   5.606  18.833  0.00  0.00    +0.000 NA
ATOM     16  H   UNL     1       8.616   4.127  16.046  0.00  0.00    +0.000 HD
ENDBRANCH   6   7
BRANCH   3  17
ATOM     17  S   UNL     1      -0.212   8.695  21.574  0.00  0.00    +0.000 S 
ATOM     18  C   UNL     1       0.323  10.422  21.479  0.00  0.00    +0.000 C 
ENDBRANCH   3  17
BRANCH   1  19
ATOM     19  O   UNL     1       2.761   4.578  20.661  0.00  0.00    +0.000 OA
BRANCH  19  21
ATOM     20  C   UNL     1       0.959   3.129  19.948  0.00  0.00    +0.000 C 
ATOM     21  C   UNL     1       1.713   3.721  21.124  0.00  0.00    +0.000 C 
ENDBRANCH  19  21
ENDBRANCH   1  19
TORSDOF 4
ENDMDL
MODEL 7
REMARK VINA RESULT:      -6.4      0.615      1.374
REMARK  Name = 
REMARK  6 active torsions:
REMARK  status: ('A' for Active; 'I' for Inactive)
REMARK    1  A    between atoms: C_1  and  C_2
REMARK    2  A    between atoms: C_2  and  O_3
REMARK    3  A    between atoms: O_3  and  C_4
REMARK    4  A    between atoms: C_6  and  S_7
REMARK    5  A    between atoms: S_7  and  C_8
REMARK    6  A    between atoms: C_11  and  C_12
REMARK                            x       y       z     vdW  Elec       q    Type
REMARK                         _______ _______ _______ _____ _____    ______ ____
ROOT
ATOM      1  C   UNL     1       2.359   7.009  19.713  0.00  0.00    +0.000 A 
ATOM      2  C   UNL     1       1.396   7.861  20.293  0.00  0.00    +0.000 A 
ATOM      3  C   UNL     1       0.999   9.060  19.690  0.00  0.00    +0.000 A 
ATOM      4  C   UNL     1       1.588   9.432  18.487  0.00  0.00    +0.000 A 
ATOM      5  C   UNL     1       2.547   8.607  17.897  0.00  0.00    +0.000 A 
ATOM      6  C   UNL     1       2.949   7.394  18.496  0.00  0.00    +0.000 A 
ENDROOT
BRANCH   6   7
ATOM      7  C   UNL     1       4.023   6.625  17.801  0.00  0.00    +0.000 A 
ATOM      8  N   UNL     1       3.686   5.375  17.252  0.00  0.00    +0.000 NA
ATOM      9  C   UNL     1       4.774   4.998  16.659  0.00  0.00    +0.000 A 
ATOM     10  C   UNL     1       5.067   3.797  15.857  0.00  0.00    +0.000 A 
ATOM     11  C   UNL     1       6.300   3.746  15.326  0.00  0.00    +0.000 A 
ATOM     12  N   UNL     1       7.255   4.719  15.528  0.00  0.00    +0.000 N 
ATOM     13  C   UNL     1       6.990   5.842  16.285  0.00  0.00    +0.000 A 
ATOM     14  C   UNL     1       5.802   6.021  16.865  0.00  0.00    +0.000 A 
ATOM     15  N   UNL     1       5.256   7.023  17.610  0.00  0.00    +0.000 NA
ATOM     16  H   UNL     1       8.136   4.663  15.025  0.00  0.00    +0.000 HD
ENDBRANCH   6   7
BRANCH   3  17
ATOM     17  S   UNL     1      -0.214  10.050  20.550  0.00  0.00    +0.000 S 
ATOM     18  C   UNL     1      -0.085   9.400  22.235  0.00  0.00    +0.000 C 
ENDBRANCH   3  17
BRANCH   1  19
ATOM     19  O   UNL     1       2.735   5.823  20.297  0.00  0.00    +0.000 OA
BRANCH  19  21
ATOM     20  C   UNL     1       2.183   3.788  21.483  0.00  0.00    +0.000 C 
ATOM     21  C   UNL     1       1.704   4.858  20.521  0.00  0.00    +0.000 C 
ENDBRANCH  19  21
ENDBRANCH   1  19
TORSDOF 4
ENDMDL
MODEL 8
REMARK VINA RESULT:      -6.3      3.303      6.532
REMARK  Name = 
REMARK  6 active torsions:
REMARK  status: ('A' for Active; 'I' for Inactive)
REMARK    1  A    between atoms: C_1  and  C_2
REMARK    2  A    between atoms: C_2  and  O_3
REMARK    3  A    between atoms: O_3  and  C_4
REMARK    4  A    between atoms: C_6  and  S_7
REMARK    5  A    between atoms: S_7  and  C_8
REMARK    6  A    between atoms: C_11  and  C_12
REMARK                            x       y       z     vdW  Elec       q    Type
REMARK                         _______ _______ _______ _____ _____    ______ ____
ROOT
ATOM      1  C   UNL     1       2.572   5.658  18.895  0.00  0.00    +0.000 A 
ATOM      2  C   UNL     1       3.365   4.775  18.134  0.00  0.00    +0.000 A 
ATOM      3  C   UNL     1       4.298   5.229  17.195  0.00  0.00    +0.000 A 
ATOM      4  C   UNL     1       4.434   6.598  16.994  0.00  0.00    +0.000 A 
ATOM      5  C   UNL     1       3.656   7.491  17.732  0.00  0.00    +0.000 A 
ATOM      6  C   UNL     1       2.716   7.041  18.684  0.00  0.00    +0.000 A 
ENDROOT
BRANCH   6   7
ATOM      7  C   UNL     1       1.902   8.087  19.371  0.00  0.00    +0.000 A 
ATOM      8  N   UNL     1       1.351   9.114  18.583  0.00  0.00    +0.000 NA
ATOM      9  C   UNL     1       0.649   9.802  19.425  0.00  0.00    +0.000 A 
ATOM     10  C   UNL     1      -0.211  10.982  19.224  0.00  0.00    +0.000 A 
ATOM     11  C   UNL     1      -0.857  11.417  20.318  0.00  0.00    +0.000 A 
ATOM     12  N   UNL     1      -0.718  10.839  21.563  0.00  0.00    +0.000 N 
ATOM     13  C   UNL     1       0.092   9.740  21.759  0.00  0.00    +0.000 A 
ATOM     14  C   UNL     1       0.786   9.202  20.754  0.00  0.00    +0.000 A 
ATOM     15  N   UNL     1       1.607   8.121  20.646  0.00  0.00    +0.000 NA
ATOM     16  H   UNL     1      -1.302  11.161  22.328  0.00  0.00    +0.000 HD
ENDBRANCH   6   7
BRANCH   3  17
ATOM     17  S   UNL     1       5.217   3.995  16.287  0.00  0.00    +0.000 S 
ATOM     18  C   UNL     1       6.924   4.511  16.597  0.00  0.00    +0.000 C 
ENDBRANCH   3  17
BRANCH   1  19
ATOM     19  O   UNL     1       1.668   5.212  19.830  0.00  0.00    +0.000 OA
BRANCH  19  21
ATOM     20  C   UNL     1       1.379   3.146  21.055  0.00  0.00    +0.000 C 
ATOM     21  C   UNL     1       2.186   4.421  20.903  0.00  0.00    +0.000 C 
ENDBRANCH  19  21
ENDBRANCH   1  19
TORSDOF 4
ENDMDL
MODEL 9
REMARK VINA RESULT:      -6.3      3.293      6.690
REMARK  Name = 
REMARK  6 active torsions:
REMARK  status: ('A' for Active; 'I' for Inactive)
REMARK    1  A    between atoms: C_1  and  C_2
REMARK    2  A    between atoms: C_2  and  O_3
REMARK    3  A    between atoms: O_3  and  C_4
REMARK    4  A    between atoms: C_6  and  S_7
REMARK    5  A    between atoms: S_7  and  C_8
REMARK    6  A    between atoms: C_11  and  C_12
REMARK                            x       y       z     vdW  Elec       q    Type
REMARK                         _______ _______ _______ _____ _____    ______ ____
ROOT
ATOM      1  C   UNL     1       2.467   5.716  19.303  0.00  0.00    +0.000 A 
ATOM      2  C   UNL     1       3.279   4.869  18.521  0.00  0.00    +0.000 A 
ATOM      3  C   UNL     1       4.122   5.361  17.517  0.00  0.00    +0.000 A 
ATOM      4  C   UNL     1       4.144   6.728  17.271  0.00  0.00    +0.000 A 
ATOM      5  C   UNL     1       3.344   7.585  18.029  0.00  0.00    +0.000 A 
ATOM      6  C   UNL     1       2.496   7.098  19.046  0.00  0.00    +0.000 A 
ENDROOT
BRANCH   6   7
ATOM      7  C   UNL     1       1.645   8.103  19.750  0.00  0.00    +0.000 A 
ATOM      8  N   UNL     1       1.313   7.856  21.094  0.00  0.00    +0.000 NA
ATOM      9  C   UNL     1       0.657   8.916  21.445  0.00  0.00    +0.000 A 
ATOM     10  C   UNL     1       0.072   9.300  22.743  0.00  0.00    +0.000 A 
ATOM     11  C   UNL     1      -0.497  10.516  22.781  0.00  0.00    +0.000 A 
ATOM     12  N   UNL     1      -0.572  11.354  21.688  0.00  0.00    +0.000 N 
ATOM     13  C   UNL     1      -0.035  10.996  20.469  0.00  0.00    +0.000 A 
ATOM     14  C   UNL     1       0.565   9.817  20.295  0.00  0.00    +0.000 A 
ATOM     15  N   UNL     1       1.208   9.230  19.247  0.00  0.00    +0.000 NA
ATOM     16  H   UNL     1      -0.936  12.295  21.807  0.00  0.00    +0.000 HD
ENDBRANCH   6   7
BRANCH   3  17
ATOM     17  S   UNL     1       5.078   4.169  16.591  0.00  0.00    +0.000 S 
ATOM     18  C   UNL     1       6.608   5.088  16.285  0.00  0.00    +0.000 C 
ENDBRANCH   3  17
BRANCH   1  19
ATOM     19  O   UNL     1       1.653   5.235  20.300  0.00  0.00    +0.000 OA
BRANCH  19  21
ATOM     20  C   UNL     1       1.379   3.017  21.228  0.00  0.00    +0.000 C 
ATOM     21  C   UNL     1       1.051   3.955  20.082  0.00  0.00    +0.000 C 
ENDBRANCH  19  21
ENDBRANCH   1  19
TORSDOF 4
ENDMDL
