MODEL 1
REMARK VINA RESULT:      -5.9      0.000      0.000
REMARK  Name = 
REMARK  3 active torsions:
REMARK  status: ('A' for Active; 'I' for Inactive)
REMARK    1  A    between atoms: C_2  and  C_3
REMARK    2  A    between atoms: N_13  and  C_14
REMARK    3  A    between atoms: C_14  and  C_15
REMARK                            x       y       z     vdW  Elec       q    Type
REMARK                         _______ _______ _______ _____ _____    ______ ____
ROOT
ATOM      1  O   UNL     1      -0.520  10.538  23.498  0.00  0.00    +0.000 OA
ATOM      2  C   UNL     1      -0.929  11.448  22.790  0.00  0.00    +0.000 C 
ATOM      3  N   UNL     1      -0.498  11.610  21.487  0.00  0.00    +0.000 N 
ATOM      4  C   UNL     1      -1.266  12.259  20.447  0.00  0.00    +0.000 C 
ATOM      5  C   UNL     1      -0.963  11.437  19.218  0.00  0.00    +0.000 C 
ATOM      6  C   UNL     1       0.387  10.784  19.522  0.00  0.00    +0.000 C 
ATOM      7  C   UNL     1       0.437   9.264  19.215  0.00  0.00    +0.000 C 
ATOM      8  N   UNL     1       1.856   9.453  18.811  0.00  0.00    +0.000 NA
ATOM      9  C   UNL     1       1.510  10.850  18.431  0.00  0.00    +0.000 C 
ATOM     10  C   UNL     1       0.752  11.086  20.976  0.00  0.00    +0.000 C 
ENDROOT
BRANCH   2  11
ATOM     11  C   UNL     1      -1.896  12.449  23.275  0.00  0.00    +0.000 A 
ATOM     12  C   UNL     1      -1.570  13.755  23.598  0.00  0.00    +0.000 A 
ATOM     13  S   UNL     1      -2.966  14.602  24.128  0.00  0.00    +0.000 S 
ATOM     14  C   UNL     1      -3.907  13.203  23.841  0.00  0.00    +0.000 A 
ATOM     15  N   UNL     1      -3.256  12.153  23.400  0.00  0.00    +0.000 NA
ENDBRANCH   2  11
BRANCH   8  16
ATOM     16  C   UNL     1       2.127   8.589  17.661  0.00  0.00    +0.000 C 
BRANCH  16  17
ATOM     17  C   UNL     1       2.961   7.409  18.060  0.00  0.00    +0.000 A 
ATOM     18  C   UNL     1       4.162   6.985  17.395  0.00  0.00    +0.000 A 
ATOM     19  C   UNL     1       4.770   5.920  18.019  0.00  0.00    +0.000 A 
ATOM     20  S   UNL     1       3.909   5.415  19.405  0.00  0.00    +0.000 S 
ATOM     21  C   UNL     1       2.722   6.623  19.173  0.00  0.00    +0.000 A 
ENDBRANCH  16  17
ENDBRANCH   8  16
TORSDOF 3
ENDMDL
MODEL 2
REMARK VINA RESULT:      -5.6      2.401      3.677
REMARK  Name = 
REMARK  3 active torsions:
REMARK  status: ('A' for Active; 'I' for Inactive)
REMARK    1  A    between atoms: C_2  and  C_3
REMARK    2  A    between atoms: N_13  and  C_14
REMARK    3  A    between atoms: C_14  and  C_15
REMARK                            x       y       z     vdW  Elec       q    Type
REMARK                         _______ _______ _______ _____ _____    ______ ____
ROOT
ATOM      1  O   UNL     1      -0.473   8.711  21.393  0.00  0.00    +0.000 OA
ATOM      2  C   UNL     1      -0.062   9.598  20.656  0.00  0.00    +0.000 C 
ATOM      3  N   UNL     1       0.971   9.384  19.763  0.00  0.00    +0.000 N 
ATOM      4  C   UNL     1       1.158  10.131  18.537  0.00  0.00    +0.000 C 
ATOM      5  C   UNL     1       1.646   9.089  17.559  0.00  0.00    +0.000 C 
ATOM      6  C   UNL     1       2.261   8.000  18.441  0.00  0.00    +0.000 C 
ATOM      7  C   UNL     1       1.815   6.562  18.071  0.00  0.00    +0.000 C 
ATOM      8  N   UNL     1       3.179   6.105  18.449  0.00  0.00    +0.000 NA
ATOM      9  C   UNL     1       3.682   7.454  18.068  0.00  0.00    +0.000 C 
ATOM     10  C   UNL     1       1.960   8.336  19.902  0.00  0.00    +0.000 C 
ENDROOT
BRANCH   2  11
ATOM     11  C   UNL     1      -0.622  10.961  20.676  0.00  0.00    +0.000 A 
ATOM     12  C   UNL     1      -0.143  11.989  21.468  0.00  0.00    +0.000 A 
ATOM     13  S   UNL     1      -1.062  13.415  21.212  0.00  0.00    +0.000 S 
ATOM     14  C   UNL     1      -1.989  12.590  20.034  0.00  0.00    +0.000 A 
ATOM     15  N   UNL     1      -1.676  11.331  19.836  0.00  0.00    +0.000 NA
ENDBRANCH   2  11
BRANCH   8  16
ATOM     16  C   UNL     1       3.586   5.050  17.519  0.00  0.00    +0.000 C 
BRANCH  16  17
ATOM     17  C   UNL     1       3.710   3.732  18.223  0.00  0.00    +0.000 A 
ATOM     18  C   UNL     1       3.215   2.481  17.721  0.00  0.00    +0.000 A 
ATOM     19  C   UNL     1       3.535   1.416  18.533  0.00  0.00    +0.000 A 
ATOM     20  S   UNL     1       4.428   1.905  19.905  0.00  0.00    +0.000 S 
ATOM     21  C   UNL     1       4.390   3.542  19.412  0.00  0.00    +0.000 A 
ENDBRANCH  16  17
ENDBRANCH   8  16
TORSDOF 3
ENDMDL
MODEL 3
REMARK VINA RESULT:      -5.6      3.011      4.849
REMARK  Name = 
REMARK  3 active torsions:
REMARK  status: ('A' for Active; 'I' for Inactive)
REMARK    1  A    between atoms: C_2  and  C_3
REMARK    2  A    between atoms: N_13  and  C_14
REMARK    3  A    between atoms: C_14  and  C_15
REMARK                            x       y       z     vdW  Elec       q    Type
REMARK                         _______ _______ _______ _____ _____    ______ ____
ROOT
ATOM      1  O   UNL     1       2.232  10.852  17.751  0.00  0.00    +0.000 OA
ATOM      2  C   UNL     1       1.563  10.337  18.637  0.00  0.00    +0.000 C 
ATOM      3  N   UNL     1       1.569   8.973  18.857  0.00  0.00    +0.000 N 
ATOM      4  C   UNL     1       1.282   8.349  20.132  0.00  0.00    +0.000 C 
ATOM      5  C   UNL     1       2.247   7.189  20.183  0.00  0.00    +0.000 C 
ATOM      6  C   UNL     1       2.565   6.895  18.715  0.00  0.00    +0.000 C 
ATOM      7  C   UNL     1       4.078   6.725  18.419  0.00  0.00    +0.000 C 
ATOM      8  N   UNL     1       3.702   5.703  17.404  0.00  0.00    +0.000 NA
ATOM      9  C   UNL     1       2.491   5.410  18.219  0.00  0.00    +0.000 C 
ATOM     10  C   UNL     1       1.933   7.991  17.857  0.00  0.00    +0.000 C 
ENDROOT
BRANCH   2  11
ATOM     11  C   UNL     1       0.690  11.126  19.524  0.00  0.00    +0.000 A 
ATOM     12  C   UNL     1       1.147  11.938  20.548  0.00  0.00    +0.000 A 
ATOM     13  S   UNL     1      -0.173  12.681  21.354  0.00  0.00    +0.000 S 
ATOM     14  C   UNL     1      -1.249  11.922  20.260  0.00  0.00    +0.000 A 
ATOM     15  N   UNL     1      -0.697  11.147  19.357  0.00  0.00    +0.000 NA
ENDBRANCH   2  11
BRANCH   8  16
ATOM     16  C   UNL     1       4.698   4.631  17.439  0.00  0.00    +0.000 C 
BRANCH  16  17
ATOM     17  C   UNL     1       5.488   4.589  16.165  0.00  0.00    +0.000 A 
ATOM     18  C   UNL     1       6.815   5.114  16.001  0.00  0.00    +0.000 A 
ATOM     19  C   UNL     1       7.334   4.869  14.749  0.00  0.00    +0.000 A 
ATOM     20  S   UNL     1       6.236   4.013  13.759  0.00  0.00    +0.000 S 
ATOM     21  C   UNL     1       5.067   3.966  15.005  0.00  0.00    +0.000 A 
ENDBRANCH  16  17
ENDBRANCH   8  16
TORSDOF 3
ENDMDL
MODEL 4
REMARK VINA RESULT:      -5.5      2.403      3.715
REMARK  Name = 
REMARK  3 active torsions:
REMARK  status: ('A' for Active; 'I' for Inactive)
REMARK    1  A    between atoms: C_2  and  C_3
REMARK    2  A    between atoms: N_13  and  C_14
REMARK    3  A    between atoms: C_14  and  C_15
REMARK                            x       y       z     vdW  Elec       q    Type
REMARK                         _______ _______ _______ _____ _____    ______ ____
ROOT
ATOM      1  O   UNL     1      -0.469   8.787  21.469  0.00  0.00    +0.000 OA
ATOM      2  C   UNL     1       0.030   9.675  20.790  0.00  0.00    +0.000 C 
ATOM      3  N   UNL     1       1.060   9.423  19.903  0.00  0.00    +0.000 N 
ATOM      4  C   UNL     1       1.335  10.217  18.725  0.00  0.00    +0.000 C 
ATOM      5  C   UNL     1       1.754   9.193  17.698  0.00  0.00    +0.000 C 
ATOM      6  C   UNL     1       2.257   8.009  18.527  0.00  0.00    +0.000 C 
ATOM      7  C   UNL     1       1.699   6.636  18.069  0.00  0.00    +0.000 C 
ATOM      8  N   UNL     1       3.012   6.045  18.443  0.00  0.00    +0.000 NA
ATOM      9  C   UNL     1       3.635   7.365  18.147  0.00  0.00    +0.000 C 
ATOM     10  C   UNL     1       1.955   8.289  19.999  0.00  0.00    +0.000 C 
ENDROOT
BRANCH   2  11
ATOM     11  C   UNL     1      -0.413  11.077  20.877  0.00  0.00    +0.000 A 
ATOM     12  C   UNL     1      -1.517  11.589  20.218  0.00  0.00    +0.000 A 
ATOM     13  S   UNL     1      -1.698  13.259  20.567  0.00  0.00    +0.000 S 
ATOM     14  C   UNL     1      -0.342  13.174  21.607  0.00  0.00    +0.000 A 
ATOM     15  N   UNL     1       0.242  12.003  21.694  0.00  0.00    +0.000 NA
ENDBRANCH   2  11
BRANCH   8  16
ATOM     16  C   UNL     1       3.349   5.012  17.463  0.00  0.00    +0.000 C 
BRANCH  16  17
ATOM     17  C   UNL     1       3.665   3.712  18.139  0.00  0.00    +0.000 A 
ATOM     18  C   UNL     1       4.300   3.583  19.422  0.00  0.00    +0.000 A 
ATOM     19  C   UNL     1       4.398   2.275  19.840  0.00  0.00    +0.000 A 
ATOM     20  S   UNL     1       3.733   1.189  18.700  0.00  0.00    +0.000 S 
ATOM     21  C   UNL     1       3.312   2.469  17.647  0.00  0.00    +0.000 A 
ENDBRANCH  16  17
ENDBRANCH   8  16
TORSDOF 3
ENDMDL
MODEL 5
REMARK VINA RESULT:      -5.5      2.253      3.787
REMARK  Name = 
REMARK  3 active torsions:
REMARK  status: ('A' for Active; 'I' for Inactive)
REMARK    1  A    between atoms: C_2  and  C_3
REMARK    2  A    between atoms: N_13  and  C_14
REMARK    3  A    between atoms: C_14  and  C_15
REMARK                            x       y       z     vdW  Elec       q    Type
REMARK                         _______ _______ _______ _____ _____    ______ ____
ROOT
ATOM      1  O   UNL     1      -0.235   8.424  21.550  0.00  0.00    +0.000 OA
ATOM      2  C   UNL     1       0.191   9.308  20.819  0.00  0.00    +0.000 C 
ATOM      3  N   UNL     1       1.176   9.066  19.880  0.00  0.00    +0.000 N 
ATOM      4  C   UNL     1       1.354   9.834  18.666  0.00  0.00    +0.000 C 
ATOM      5  C   UNL     1       1.749   8.794  17.644  0.00  0.00    +0.000 C 
ATOM      6  C   UNL     1       2.342   7.654  18.475  0.00  0.00    +0.000 C 
ATOM      7  C   UNL     1       1.808   6.249  18.089  0.00  0.00    +0.000 C 
ATOM      8  N   UNL     1       3.162   5.715  18.401  0.00  0.00    +0.000 NA
ATOM      9  C   UNL     1       3.718   7.046  18.032  0.00  0.00    +0.000 C 
ATOM     10  C   UNL     1       2.115   7.966  19.954  0.00  0.00    +0.000 C 
ENDROOT
BRANCH   2  11
ATOM     11  C   UNL     1      -0.297  10.696  20.893  0.00  0.00    +0.000 A 
ATOM     12  C   UNL     1      -1.331  11.201  20.125  0.00  0.00    +0.000 A 
ATOM     13  S   UNL     1      -1.596  12.855  20.497  0.00  0.00    +0.000 S 
ATOM     14  C   UNL     1      -0.366  12.771  21.684  0.00  0.00    +0.000 A 
ATOM     15  N   UNL     1       0.235  11.611  21.806  0.00  0.00    +0.000 NA
ENDBRANCH   2  11
BRANCH   8  16
ATOM     16  C   UNL     1       3.478   4.666  17.432  0.00  0.00    +0.000 C 
BRANCH  16  17
ATOM     17  C   UNL     1       4.955   4.590  17.183  0.00  0.00    +0.000 A 
ATOM     18  C   UNL     1       5.575   4.616  15.888  0.00  0.00    +0.000 A 
ATOM     19  C   UNL     1       6.951   4.613  15.955  0.00  0.00    +0.000 A 
ATOM     20  S   UNL     1       7.511   4.576  17.568  0.00  0.00    +0.000 S 
ATOM     21  C   UNL     1       5.915   4.567  18.179  0.00  0.00    +0.000 A 
ENDBRANCH  16  17
ENDBRANCH   8  16
TORSDOF 3
ENDMDL
MODEL 6
REMARK VINA RESULT:      -5.5      2.929      4.823
REMARK  Name = 
REMARK  3 active torsions:
REMARK  status: ('A' for Active; 'I' for Inactive)
REMARK    1  A    between atoms: C_2  and  C_3
REMARK    2  A    between atoms: N_13  and  C_14
REMARK    3  A    between atoms: C_14  and  C_15
REMARK                            x       y       z     vdW  Elec       q    Type
REMARK                         _______ _______ _______ _____ _____    ______ ____
ROOT
ATOM      1  O   UNL     1       2.386  11.016  17.951  0.00  0.00    +0.000 OA
ATOM      2  C   UNL     1       1.633  10.482  18.754  0.00  0.00    +0.000 C 
ATOM      3  N   UNL     1       1.582   9.109  18.905  0.00  0.00    +0.000 N 
ATOM      4  C   UNL     1       1.174   8.436  20.119  0.00  0.00    +0.000 C 
ATOM      5  C   UNL     1       2.098   7.243  20.189  0.00  0.00    +0.000 C 
ATOM      6  C   UNL     1       2.525   7.010  18.738  0.00  0.00    +0.000 C 
ATOM      7  C   UNL     1       4.052   6.804  18.556  0.00  0.00    +0.000 C 
ATOM      8  N   UNL     1       3.731   5.844  17.464  0.00  0.00    +0.000 NA
ATOM      9  C   UNL     1       2.449   5.553  18.165  0.00  0.00    +0.000 C 
ATOM     10  C   UNL     1       1.997   8.166  17.888  0.00  0.00    +0.000 C 
ENDROOT
BRANCH   2  11
ATOM     11  C   UNL     1       0.714  11.256  19.608  0.00  0.00    +0.000 A 
ATOM     12  C   UNL     1      -0.613  11.501  19.303  0.00  0.00    +0.000 A 
ATOM     13  S   UNL     1      -1.344  12.442  20.538  0.00  0.00    +0.000 S 
ATOM     14  C   UNL     1       0.128  12.412  21.412  0.00  0.00    +0.000 A 
ATOM     15  N   UNL     1       1.120  11.772  20.842  0.00  0.00    +0.000 NA
ENDBRANCH   2  11
BRANCH   8  16
ATOM     16  C   UNL     1       4.689   4.740  17.525  0.00  0.00    +0.000 C 
BRANCH  16  17
ATOM     17  C   UNL     1       5.465   4.631  16.247  0.00  0.00    +0.000 A 
ATOM     18  C   UNL     1       5.025   3.931  15.072  0.00  0.00    +0.000 A 
ATOM     19  C   UNL     1       5.899   4.060  14.015  0.00  0.00    +0.000 A 
ATOM     20  S   UNL     1       7.255   5.016  14.421  0.00  0.00    +0.000 S 
ATOM     21  C   UNL     1       6.674   5.262  16.010  0.00  0.00    +0.000 A 
ENDBRANCH  16  17
ENDBRANCH   8  16
TORSDOF 3
ENDMDL
MODEL 7
REMARK VINA RESULT:      -5.5      7.570     10.953
REMARK  Name = 
REMARK  3 active torsions:
REMARK  status: ('A' for Active; 'I' for Inactive)
REMARK    1  A    between atoms: C_2  and  C_3
REMARK    2  A    between atoms: N_13  and  C_14
REMARK    3  A    between atoms: C_14  and  C_15
REMARK                            x       y       z     vdW  Elec       q    Type
REMARK                         _______ _______ _______ _____ _____    ______ ____
ROOT
ATOM      1  O   UNL     1       7.418  12.551  16.798  0.00  0.00    +0.000 OA
ATOM      2  C   UNL     1       8.053  13.141  17.662  0.00  0.00    +0.000 C 
ATOM      3  N   UNL     1       7.521  14.213  18.354  0.00  0.00    +0.000 N 
ATOM      4  C   UNL     1       7.928  14.608  19.686  0.00  0.00    +0.000 C 
ATOM      5  C   UNL     1       6.635  15.041  20.336  0.00  0.00    +0.000 C 
ATOM      6  C   UNL     1       5.730  15.423  19.163  0.00  0.00    +0.000 C 
ATOM      7  C   UNL     1       4.301  14.825  19.247  0.00  0.00    +0.000 C 
ATOM      8  N   UNL     1       3.805  16.077  18.615  0.00  0.00    +0.000 NA
ATOM      9  C   UNL     1       4.961  16.787  19.230  0.00  0.00    +0.000 C 
ATOM     10  C   UNL     1       6.437  15.038  17.863  0.00  0.00    +0.000 C 
ENDROOT
BRANCH   2  11
ATOM     11  C   UNL     1       9.433  12.767  18.019  0.00  0.00    +0.000 A 
ATOM     12  C   UNL     1      10.561  13.439  17.582  0.00  0.00    +0.000 A 
ATOM     13  S   UNL     1      11.976  12.696  18.207  0.00  0.00    +0.000 S 
ATOM     14  C   UNL     1      10.997  11.577  19.055  0.00  0.00    +0.000 A 
ATOM     15  N   UNL     1       9.702  11.707  18.889  0.00  0.00    +0.000 NA
ENDBRANCH   2  11
BRANCH   8  16
ATOM     16  C   UNL     1       2.521  16.423  19.225  0.00  0.00    +0.000 C 
BRANCH  16  17
ATOM     17  C   UNL     1       1.672  17.217  18.278  0.00  0.00    +0.000 A 
ATOM     18  C   UNL     1       2.085  17.659  16.974  0.00  0.00    +0.000 A 
ATOM     19  C   UNL     1       1.079  18.300  16.286  0.00  0.00    +0.000 A 
ATOM     20  S   UNL     1      -0.365  18.383  17.194  0.00  0.00    +0.000 S 
ATOM     21  C   UNL     1       0.352  17.558  18.509  0.00  0.00    +0.000 A 
ENDBRANCH  16  17
ENDBRANCH   8  16
TORSDOF 3
ENDMDL
MODEL 8
REMARK VINA RESULT:      -5.4      1.074      1.310
REMARK  Name = 
REMARK  3 active torsions:
REMARK  status: ('A' for Active; 'I' for Inactive)
REMARK    1  A    between atoms: C_2  and  C_3
REMARK    2  A    between atoms: N_13  and  C_14
REMARK    3  A    between atoms: C_14  and  C_15
REMARK                            x       y       z     vdW  Elec       q    Type
REMARK                         _______ _______ _______ _____ _____    ______ ____
ROOT
ATOM      1  O   UNL     1      -0.350  10.387  23.489  0.00  0.00    +0.000 OA
ATOM      2  C   UNL     1      -0.725  11.271  22.730  0.00  0.00    +0.000 C 
ATOM      3  N   UNL     1      -0.301  11.333  21.416  0.00  0.00    +0.000 N 
ATOM      4  C   UNL     1      -1.050  11.952  20.344  0.00  0.00    +0.000 C 
ATOM      5  C   UNL     1      -0.797  11.043  19.165  0.00  0.00    +0.000 C 
ATOM      6  C   UNL     1       0.525  10.349  19.498  0.00  0.00    +0.000 C 
ATOM      7  C   UNL     1       0.503   8.813  19.284  0.00  0.00    +0.000 C 
ATOM      8  N   UNL     1       1.925   8.913  18.858  0.00  0.00    +0.000 NA
ATOM      9  C   UNL     1       1.638  10.299  18.396  0.00  0.00    +0.000 C 
ATOM     10  C   UNL     1       0.918  10.723  20.927  0.00  0.00    +0.000 C 
ENDROOT
BRANCH   2  11
ATOM     11  C   UNL     1      -1.641  12.342  23.160  0.00  0.00    +0.000 A 
ATOM     12  C   UNL     1      -2.990  12.162  23.409  0.00  0.00    +0.000 A 
ATOM     13  S   UNL     1      -3.712  13.646  23.880  0.00  0.00    +0.000 S 
ATOM     14  C   UNL     1      -2.182  14.406  23.776  0.00  0.00    +0.000 A 
ATOM     15  N   UNL     1      -1.186  13.642  23.399  0.00  0.00    +0.000 NA
ENDBRANCH   2  11
BRANCH   8  16
ATOM     16  C   UNL     1       2.145   7.969  17.761  0.00  0.00    +0.000 C 
BRANCH  16  17
ATOM     17  C   UNL     1       2.571   6.630  18.282  0.00  0.00    +0.000 A 
ATOM     18  C   UNL     1       2.029   5.369  17.856  0.00  0.00    +0.000 A 
ATOM     19  C   UNL     1       2.659   4.293  18.440  0.00  0.00    +0.000 A 
ATOM     20  S   UNL     1       3.903   4.781  19.504  0.00  0.00    +0.000 S 
ATOM     21  C   UNL     1       3.602   6.433  19.183  0.00  0.00    +0.000 A 
ENDBRANCH  16  17
ENDBRANCH   8  16
TORSDOF 3
ENDMDL
MODEL 9
REMARK VINA RESULT:      -5.3      1.324      1.511
REMARK  Name = 
REMARK  3 active torsions:
REMARK  status: ('A' for Active; 'I' for Inactive)
REMARK    1  A    between atoms: C_2  and  C_3
REMARK    2  A    between atoms: N_13  and  C_14
REMARK    3  A    between atoms: C_14  and  C_15
REMARK                            x       y       z     vdW  Elec       q    Type
REMARK                         _______ _______ _______ _____ _____    ______ ____
ROOT
ATOM      1  O   UNL     1      -2.092  11.174  23.343  0.00  0.00    +0.000 OA
ATOM      2  C   UNL     1      -2.021  12.271  22.804  0.00  0.00    +0.000 C 
ATOM      3  N   UNL     1      -1.193  12.500  21.721  0.00  0.00    +0.000 N 
ATOM      4  C   UNL     1      -1.421  13.521  20.721  0.00  0.00    +0.000 C 
ATOM      5  C   UNL     1      -0.988  12.859  19.435  0.00  0.00    +0.000 C 
ATOM      6  C   UNL     1      -0.008  11.772  19.880  0.00  0.00    +0.000 C 
ATOM      7  C   UNL     1      -0.263  10.387  19.229  0.00  0.00    +0.000 C 
ATOM      8  N   UNL     1       1.211  10.181  19.231  0.00  0.00    +0.000 NA
ATOM      9  C   UNL     1       1.367  11.659  19.136  0.00  0.00    +0.000 C 
ATOM     10  C   UNL     1      -0.028  11.700  21.407  0.00  0.00    +0.000 C 
ENDROOT
BRANCH   2  11
ATOM     11  C   UNL     1      -2.794  13.432  23.278  0.00  0.00    +0.000 A 
ATOM     12  C   UNL     1      -4.135  13.640  23.004  0.00  0.00    +0.000 A 
ATOM     13  S   UNL     1      -4.669  15.104  23.723  0.00  0.00    +0.000 S 
ATOM     14  C   UNL     1      -3.109  15.329  24.390  0.00  0.00    +0.000 A 
ATOM     15  N   UNL     1      -2.223  14.408  24.099  0.00  0.00    +0.000 NA
ENDBRANCH   2  11
BRANCH   8  16
ATOM     16  C   UNL     1       1.579   9.478  18.002  0.00  0.00    +0.000 C 
BRANCH  16  17
ATOM     17  C   UNL     1       2.227   8.161  18.310  0.00  0.00    +0.000 A 
ATOM     18  C   UNL     1       3.172   7.490  17.461  0.00  0.00    +0.000 A 
ATOM     19  C   UNL     1       3.669   6.335  18.025  0.00  0.00    +0.000 A 
ATOM     20  S   UNL     1       3.007   6.044  19.572  0.00  0.00    +0.000 S 
ATOM     21  C   UNL     1       2.057   7.463  19.492  0.00  0.00    +0.000 A 
ENDBRANCH  16  17
ENDBRANCH   8  16
TORSDOF 3
ENDMDL
