MODEL 1
REMARK VINA RESULT:      -7.0      0.000      0.000
REMARK  Name = 
REMARK  4 active torsions:
REMARK  status: ('A' for Active; 'I' for Inactive)
REMARK    1  A    between atoms: C_1  and  C_2
REMARK    2  A    between atoms: C_7  and  C_8
REMARK    3  A    between atoms: C_8  and  O_9
REMARK    4  A    between atoms: O_9  and  C_10
REMARK                            x       y       z     vdW  Elec       q    Type
REMARK                         _______ _______ _______ _____ _____    ______ ____
ROOT
ATOM      1  C   UNL     1       8.455   7.564  18.761  0.00  0.00    +0.000 C 
ATOM      2  C   UNL     1       7.547   6.712  17.921  0.00  0.00    +0.000 A 
ATOM      3  N   UNL     1       7.486   6.912  16.638  0.00  0.00    +0.000 NA
ATOM      4  N   UNL     1       6.643   6.117  15.846  0.00  0.00    +0.000 NA
ATOM      5  C   UNL     1       5.940   5.207  16.430  0.00  0.00    +0.000 A 
ATOM      6  S   UNL     1       4.853   4.145  15.598  0.00  0.00    +0.000 S 
ATOM      7  C   UNL     1       4.494   3.411  17.149  0.00  0.00    +0.000 A 
ATOM      8  N   UNL     1       5.106   3.904  18.185  0.00  0.00    +0.000 NA
ATOM      9  N   UNL     1       5.933   4.934  17.767  0.00  0.00    +0.000 N 
ATOM     10  C   UNL     1       6.729   5.646  18.626  0.00  0.00    +0.000 A 
ATOM     11  O   UNL     1       6.836   5.514  19.838  0.00  0.00    +0.000 OA
ENDROOT
BRANCH   7  12
ATOM     12  C   UNL     1       3.538   2.244  17.182  0.00  0.00    +0.000 C 
BRANCH  12  13
ATOM     13  O   UNL     1       2.242   2.803  17.383  0.00  0.00    +0.000 OA
BRANCH  13  14
ATOM     14  C   UNL     1       1.896   3.145  18.661  0.00  0.00    +0.000 A 
ATOM     15  C   UNL     1       1.986   2.098  19.584  0.00  0.00    +0.000 A 
ATOM     16  C   UNL     1       1.704   2.310  20.934  0.00  0.00    +0.000 A 
ATOM     17  C   UNL     1       1.342   3.579  21.375  0.00  0.00    +0.000 A 
ATOM     18  C   UNL     1       1.255   4.630  20.461  0.00  0.00    +0.000 A 
ATOM     19  C   UNL     1       1.530   4.416  19.103  0.00  0.00    +0.000 A 
ENDBRANCH  13  14
ENDBRANCH  12  13
ENDBRANCH   7  12
TORSDOF 3
ENDMDL
MODEL 2
REMARK VINA RESULT:      -7.0      2.891      6.305
REMARK  Name = 
REMARK  4 active torsions:
REMARK  status: ('A' for Active; 'I' for Inactive)
REMARK    1  A    between atoms: C_1  and  C_2
REMARK    2  A    between atoms: C_7  and  C_8
REMARK    3  A    between atoms: C_8  and  O_9
REMARK    4  A    between atoms: O_9  and  C_10
REMARK                            x       y       z     vdW  Elec       q    Type
REMARK                         _______ _______ _______ _____ _____    ______ ____
ROOT
ATOM      1  C   UNL     1       1.297   3.733  21.006  0.00  0.00    +0.000 C 
ATOM      2  C   UNL     1       2.247   4.432  20.076  0.00  0.00    +0.000 A 
ATOM      3  N   UNL     1       1.976   5.636  19.669  0.00  0.00    +0.000 NA
ATOM      4  N   UNL     1       2.862   6.297  18.804  0.00  0.00    +0.000 NA
ATOM      5  C   UNL     1       3.926   5.673  18.430  0.00  0.00    +0.000 A 
ATOM      6  S   UNL     1       5.117   6.347  17.367  0.00  0.00    +0.000 S 
ATOM      7  C   UNL     1       6.010   4.847  17.529  0.00  0.00    +0.000 A 
ATOM      8  N   UNL     1       5.481   3.930  18.285  0.00  0.00    +0.000 NA
ATOM      9  N   UNL     1       4.286   4.410  18.798  0.00  0.00    +0.000 N 
ATOM     10  C   UNL     1       3.495   3.682  19.649  0.00  0.00    +0.000 A 
ATOM     11  O   UNL     1       3.686   2.550  20.071  0.00  0.00    +0.000 OA
ENDROOT
BRANCH   7  12
ATOM     12  C   UNL     1       7.338   4.726  16.823  0.00  0.00    +0.000 C 
BRANCH  12  13
ATOM     13  O   UNL     1       7.257   5.583  15.686  0.00  0.00    +0.000 OA
BRANCH  13  14
ATOM     14  C   UNL     1       7.085   4.994  14.464  0.00  0.00    +0.000 A 
ATOM     15  C   UNL     1       6.053   4.052  14.418  0.00  0.00    +0.000 A 
ATOM     16  C   UNL     1       5.734   3.400  13.226  0.00  0.00    +0.000 A 
ATOM     17  C   UNL     1       6.438   3.698  12.064  0.00  0.00    +0.000 A 
ATOM     18  C   UNL     1       7.466   4.642  12.101  0.00  0.00    +0.000 A 
ATOM     19  C   UNL     1       7.792   5.290  13.300  0.00  0.00    +0.000 A 
ENDBRANCH  13  14
ENDBRANCH  12  13
ENDBRANCH   7  12
TORSDOF 3
ENDMDL
MODEL 3
REMARK VINA RESULT:      -7.0      2.850      6.409
REMARK  Name = 
REMARK  4 active torsions:
REMARK  status: ('A' for Active; 'I' for Inactive)
REMARK    1  A    between atoms: C_1  and  C_2
REMARK    2  A    between atoms: C_7  and  C_8
REMARK    3  A    between atoms: C_8  and  O_9
REMARK    4  A    between atoms: O_9  and  C_10
REMARK                            x       y       z     vdW  Elec       q    Type
REMARK                         _______ _______ _______ _____ _____    ______ ____
ROOT
ATOM      1  C   UNL     1       1.235   3.079  20.718  0.00  0.00    +0.000 C 
ATOM      2  C   UNL     1       2.253   3.924  20.006  0.00  0.00    +0.000 A 
ATOM      3  N   UNL     1       2.107   5.215  19.978  0.00  0.00    +0.000 NA
ATOM      4  N   UNL     1       3.057   6.010  19.319  0.00  0.00    +0.000 NA
ATOM      5  C   UNL     1       4.052   5.422  18.748  0.00  0.00    +0.000 A 
ATOM      6  S   UNL     1       5.307   6.258  17.895  0.00  0.00    +0.000 S 
ATOM      7  C   UNL     1       6.041   4.698  17.585  0.00  0.00    +0.000 A 
ATOM      8  N   UNL     1       5.420   3.655  18.055  0.00  0.00    +0.000 NA
ATOM      9  N   UNL     1       4.280   4.078  18.720  0.00  0.00    +0.000 N 
ATOM     10  C   UNL     1       3.417   3.213  19.343  0.00  0.00    +0.000 A 
ATOM     11  O   UNL     1       3.491   1.994  19.409  0.00  0.00    +0.000 OA
ENDROOT
BRANCH   7  12
ATOM     12  C   UNL     1       7.350   4.660  16.836  0.00  0.00    +0.000 C 
BRANCH  12  13
ATOM     13  O   UNL     1       7.182   5.516  15.708  0.00  0.00    +0.000 OA
BRANCH  13  14
ATOM     14  C   UNL     1       6.854   4.930  14.517  0.00  0.00    +0.000 A 
ATOM     15  C   UNL     1       7.745   5.204  13.474  0.00  0.00    +0.000 A 
ATOM     16  C   UNL     1       7.561   4.640  12.211  0.00  0.00    +0.000 A 
ATOM     17  C   UNL     1       6.489   3.783  11.985  0.00  0.00    +0.000 A 
ATOM     18  C   UNL     1       5.599   3.499  13.022  0.00  0.00    +0.000 A 
ATOM     19  C   UNL     1       5.779   4.073  14.288  0.00  0.00    +0.000 A 
ENDBRANCH  13  14
ENDBRANCH  12  13
ENDBRANCH   7  12
TORSDOF 3
ENDMDL
MODEL 4
REMARK VINA RESULT:      -7.0      2.305      5.913
REMARK  Name = 
REMARK  4 active torsions:
REMARK  status: ('A' for Active; 'I' for Inactive)
REMARK    1  A    between atoms: C_1  and  C_2
REMARK    2  A    between atoms: C_7  and  C_8
REMARK    3  A    between atoms: C_8  and  O_9
REMARK    4  A    between atoms: O_9  and  C_10
REMARK                            x       y       z     vdW  Elec       q    Type
REMARK                         _______ _______ _______ _____ _____    ______ ____
ROOT
ATOM      1  C   UNL     1       1.446   2.517  21.734  0.00  0.00    +0.000 C 
ATOM      2  C   UNL     1       1.979   3.485  20.717  0.00  0.00    +0.000 A 
ATOM      3  N   UNL     1       1.743   4.756  20.856  0.00  0.00    +0.000 NA
ATOM      4  N   UNL     1       2.243   5.666  19.912  0.00  0.00    +0.000 NA
ATOM      5  C   UNL     1       2.922   5.202  18.919  0.00  0.00    +0.000 A 
ATOM      6  S   UNL     1       3.605   6.190  17.671  0.00  0.00    +0.000 S 
ATOM      7  C   UNL     1       4.236   4.723  16.951  0.00  0.00    +0.000 A 
ATOM      8  N   UNL     1       3.964   3.607  17.562  0.00  0.00    +0.000 NA
ATOM      9  N   UNL     1       3.210   3.889  18.689  0.00  0.00    +0.000 N 
ATOM     10  C   UNL     1       2.777   2.920  19.557  0.00  0.00    +0.000 A 
ATOM     11  O   UNL     1       2.960   1.712  19.489  0.00  0.00    +0.000 OA
ENDROOT
BRANCH   7  12
ATOM     12  C   UNL     1       5.077   4.844  15.703  0.00  0.00    +0.000 C 
BRANCH  12  13
ATOM     13  O   UNL     1       6.402   4.480  16.086  0.00  0.00    +0.000 OA
BRANCH  13  14
ATOM     14  C   UNL     1       7.024   5.262  17.019  0.00  0.00    +0.000 A 
ATOM     15  C   UNL     1       7.129   6.610  16.666  0.00  0.00    +0.000 A 
ATOM     16  C   UNL     1       7.704   7.534  17.539  0.00  0.00    +0.000 A 
ATOM     17  C   UNL     1       8.167   7.117  18.784  0.00  0.00    +0.000 A 
ATOM     18  C   UNL     1       8.060   5.773  19.146  0.00  0.00    +0.000 A 
ATOM     19  C   UNL     1       7.491   4.843  18.265  0.00  0.00    +0.000 A 
ENDBRANCH  13  14
ENDBRANCH  12  13
ENDBRANCH   7  12
TORSDOF 3
ENDMDL
MODEL 5
REMARK VINA RESULT:      -6.9      1.664      1.866
REMARK  Name = 
REMARK  4 active torsions:
REMARK  status: ('A' for Active; 'I' for Inactive)
REMARK    1  A    between atoms: C_1  and  C_2
REMARK    2  A    between atoms: C_7  and  C_8
REMARK    3  A    between atoms: C_8  and  O_9
REMARK    4  A    between atoms: O_9  and  C_10
REMARK                            x       y       z     vdW  Elec       q    Type
REMARK                         _______ _______ _______ _____ _____    ______ ____
ROOT
ATOM      1  C   UNL     1       8.044   8.116  17.607  0.00  0.00    +0.000 C 
ATOM      2  C   UNL     1       7.272   6.865  17.915  0.00  0.00    +0.000 A 
ATOM      3  N   UNL     1       7.631   6.121  18.918  0.00  0.00    +0.000 NA
ATOM      4  N   UNL     1       6.912   4.953  19.215  0.00  0.00    +0.000 NA
ATOM      5  C   UNL     1       5.909   4.649  18.464  0.00  0.00    +0.000 A 
ATOM      6  S   UNL     1       4.921   3.245  18.695  0.00  0.00    +0.000 S 
ATOM      7  C   UNL     1       3.981   3.763  17.310  0.00  0.00    +0.000 A 
ATOM      8  N   UNL     1       4.361   4.860  16.723  0.00  0.00    +0.000 NA
ATOM      9  N   UNL     1       5.467   5.363  17.389  0.00  0.00    +0.000 N 
ATOM     10  C   UNL     1       6.094   6.525  17.021  0.00  0.00    +0.000 A 
ATOM     11  O   UNL     1       5.812   7.272  16.093  0.00  0.00    +0.000 OA
ENDROOT
BRANCH   7  12
ATOM     12  C   UNL     1       2.783   2.938  16.909  0.00  0.00    +0.000 C 
BRANCH  12  13
ATOM     13  O   UNL     1       1.652   3.579  17.493  0.00  0.00    +0.000 OA
BRANCH  13  14
ATOM     14  C   UNL     1       1.623   3.687  18.856  0.00  0.00    +0.000 A 
ATOM     15  C   UNL     1       1.445   2.474  19.528  0.00  0.00    +0.000 A 
ATOM     16  C   UNL     1       1.437   2.424  20.922  0.00  0.00    +0.000 A 
ATOM     17  C   UNL     1       1.623   3.591  21.658  0.00  0.00    +0.000 A 
ATOM     18  C   UNL     1       1.807   4.805  20.995  0.00  0.00    +0.000 A 
ATOM     19  C   UNL     1       1.806   4.856  19.594  0.00  0.00    +0.000 A 
ENDBRANCH  13  14
ENDBRANCH  12  13
ENDBRANCH   7  12
TORSDOF 3
ENDMDL
MODEL 6
REMARK VINA RESULT:      -6.9      2.277      5.843
REMARK  Name = 
REMARK  4 active torsions:
REMARK  status: ('A' for Active; 'I' for Inactive)
REMARK    1  A    between atoms: C_1  and  C_2
REMARK    2  A    between atoms: C_7  and  C_8
REMARK    3  A    between atoms: C_8  and  O_9
REMARK    4  A    between atoms: O_9  and  C_10
REMARK                            x       y       z     vdW  Elec       q    Type
REMARK                         _______ _______ _______ _____ _____    ______ ____
ROOT
ATOM      1  C   UNL     1       1.405   2.634  21.684  0.00  0.00    +0.000 C 
ATOM      2  C   UNL     1       1.963   3.581  20.660  0.00  0.00    +0.000 A 
ATOM      3  N   UNL     1       1.731   4.855  20.773  0.00  0.00    +0.000 NA
ATOM      4  N   UNL     1       2.253   5.746  19.823  0.00  0.00    +0.000 NA
ATOM      5  C   UNL     1       2.948   5.261  18.851  0.00  0.00    +0.000 A 
ATOM      6  S   UNL     1       3.659   6.224  17.599  0.00  0.00    +0.000 S 
ATOM      7  C   UNL     1       4.296   4.741  16.916  0.00  0.00    +0.000 A 
ATOM      8  N   UNL     1       4.007   3.638  17.541  0.00  0.00    +0.000 NA
ATOM      9  N   UNL     1       3.233   3.943  18.650  0.00  0.00    +0.000 N 
ATOM     10  C   UNL     1       2.779   2.992  19.526  0.00  0.00    +0.000 A 
ATOM     11  O   UNL     1       2.957   1.782  19.483  0.00  0.00    +0.000 OA
ENDROOT
BRANCH   7  12
ATOM     12  C   UNL     1       5.161   4.836  15.683  0.00  0.00    +0.000 C 
BRANCH  12  13
ATOM     13  O   UNL     1       6.499   4.618  16.124  0.00  0.00    +0.000 OA
BRANCH  13  14
ATOM     14  C   UNL     1       7.037   5.538  16.981  0.00  0.00    +0.000 A 
ATOM     15  C   UNL     1       7.471   5.007  18.200  0.00  0.00    +0.000 A 
ATOM     16  C   UNL     1       8.079   5.820  19.156  0.00  0.00    +0.000 A 
ATOM     17  C   UNL     1       8.272   7.173  18.894  0.00  0.00    +0.000 A 
ATOM     18  C   UNL     1       7.847   7.709  17.678  0.00  0.00    +0.000 A 
ATOM     19  C   UNL     1       7.227   6.894  16.720  0.00  0.00    +0.000 A 
ENDBRANCH  13  14
ENDBRANCH  12  13
ENDBRANCH   7  12
TORSDOF 3
ENDMDL
MODEL 7
REMARK VINA RESULT:      -6.8      2.361      3.176
REMARK  Name = 
REMARK  4 active torsions:
REMARK  status: ('A' for Active; 'I' for Inactive)
REMARK    1  A    between atoms: C_1  and  C_2
REMARK    2  A    between atoms: C_7  and  C_8
REMARK    3  A    between atoms: C_8  and  O_9
REMARK    4  A    between atoms: O_9  and  C_10
REMARK                            x       y       z     vdW  Elec       q    Type
REMARK                         _______ _______ _______ _____ _____    ______ ____
ROOT
ATOM      1  C   UNL     1       7.564   5.101  13.808  0.00  0.00    +0.000 C 
ATOM      2  C   UNL     1       7.059   5.071  15.222  0.00  0.00    +0.000 A 
ATOM      3  N   UNL     1       7.734   4.431  16.130  0.00  0.00    +0.000 NA
ATOM      4  N   UNL     1       7.270   4.403  17.455  0.00  0.00    +0.000 NA
ATOM      5  C   UNL     1       6.169   5.016  17.727  0.00  0.00    +0.000 A 
ATOM      6  S   UNL     1       5.463   5.075  19.308  0.00  0.00    +0.000 S 
ATOM      7  C   UNL     1       4.175   6.045  18.621  0.00  0.00    +0.000 A 
ATOM      8  N   UNL     1       4.248   6.296  17.346  0.00  0.00    +0.000 NA
ATOM      9  N   UNL     1       5.393   5.702  16.840  0.00  0.00    +0.000 N 
ATOM     10  C   UNL     1       5.762   5.799  15.523  0.00  0.00    +0.000 A 
ATOM     11  O   UNL     1       5.179   6.381  14.618  0.00  0.00    +0.000 OA
ENDROOT
BRANCH   7  12
ATOM     12  C   UNL     1       3.095   6.555  19.543  0.00  0.00    +0.000 C 
BRANCH  12  13
ATOM     13  O   UNL     1       1.870   6.020  19.047  0.00  0.00    +0.000 OA
BRANCH  13  14
ATOM     14  C   UNL     1       1.645   4.685  19.235  0.00  0.00    +0.000 A 
ATOM     15  C   UNL     1       1.527   4.302  20.574  0.00  0.00    +0.000 A 
ATOM     16  C   UNL     1       1.254   2.977  20.917  0.00  0.00    +0.000 A 
ATOM     17  C   UNL     1       1.082   2.025  19.917  0.00  0.00    +0.000 A 
ATOM     18  C   UNL     1       1.193   2.400  18.578  0.00  0.00    +0.000 A 
ATOM     19  C   UNL     1       1.475   3.729  18.234  0.00  0.00    +0.000 A 
ENDBRANCH  13  14
ENDBRANCH  12  13
ENDBRANCH   7  12
TORSDOF 3
ENDMDL
MODEL 8
REMARK VINA RESULT:      -6.8      3.028      6.479
REMARK  Name = 
REMARK  4 active torsions:
REMARK  status: ('A' for Active; 'I' for Inactive)
REMARK    1  A    between atoms: C_1  and  C_2
REMARK    2  A    between atoms: C_7  and  C_8
REMARK    3  A    between atoms: C_8  and  O_9
REMARK    4  A    between atoms: O_9  and  C_10
REMARK                            x       y       z     vdW  Elec       q    Type
REMARK                         _______ _______ _______ _____ _____    ______ ____
ROOT
ATOM      1  C   UNL     1       2.371   2.682  21.605  0.00  0.00    +0.000 C 
ATOM      2  C   UNL     1       2.647   3.803  20.643  0.00  0.00    +0.000 A 
ATOM      3  N   UNL     1       1.913   4.874  20.680  0.00  0.00    +0.000 NA
ATOM      4  N   UNL     1       2.168   5.927  19.787  0.00  0.00    +0.000 NA
ATOM      5  C   UNL     1       3.132   5.788  18.943  0.00  0.00    +0.000 A 
ATOM      6  S   UNL     1       3.575   6.991  17.777  0.00  0.00    +0.000 S 
ATOM      7  C   UNL     1       4.843   5.907  17.242  0.00  0.00    +0.000 A 
ATOM      8  N   UNL     1       4.930   4.762  17.854  0.00  0.00    +0.000 NA
ATOM      9  N   UNL     1       3.946   4.700  18.827  0.00  0.00    +0.000 N 
ATOM     10  C   UNL     1       3.787   3.622  19.659  0.00  0.00    +0.000 A 
ATOM     11  O   UNL     1       4.438   2.585  19.680  0.00  0.00    +0.000 OA
ENDROOT
BRANCH   7  12
ATOM     12  C   UNL     1       5.768   6.375  16.145  0.00  0.00    +0.000 C 
BRANCH  12  13
ATOM     13  O   UNL     1       6.614   5.266  15.845  0.00  0.00    +0.000 OA
BRANCH  13  14
ATOM     14  C   UNL     1       6.606   4.799  14.560  0.00  0.00    +0.000 A 
ATOM     15  C   UNL     1       7.589   5.356  13.737  0.00  0.00    +0.000 A 
ATOM     16  C   UNL     1       7.728   4.943  12.412  0.00  0.00    +0.000 A 
ATOM     17  C   UNL     1       6.891   3.956  11.902  0.00  0.00    +0.000 A 
ATOM     18  C   UNL     1       5.911   3.391  12.719  0.00  0.00    +0.000 A 
ATOM     19  C   UNL     1       5.765   3.811  14.048  0.00  0.00    +0.000 A 
ENDBRANCH  13  14
ENDBRANCH  12  13
ENDBRANCH   7  12
TORSDOF 3
ENDMDL
MODEL 9
REMARK VINA RESULT:      -6.8      2.769      6.658
REMARK  Name = 
REMARK  4 active torsions:
REMARK  status: ('A' for Active; 'I' for Inactive)
REMARK    1  A    between atoms: C_1  and  C_2
REMARK    2  A    between atoms: C_7  and  C_8
REMARK    3  A    between atoms: C_8  and  O_9
REMARK    4  A    between atoms: O_9  and  C_10
REMARK                            x       y       z     vdW  Elec       q    Type
REMARK                         _______ _______ _______ _____ _____    ______ ____
ROOT
ATOM      1  C   UNL     1       0.535   2.816  19.619  0.00  0.00    +0.000 C 
ATOM      2  C   UNL     1       1.952   3.280  19.433  0.00  0.00    +0.000 A 
ATOM      3  N   UNL     1       2.851   2.965  20.318  0.00  0.00    +0.000 NA
ATOM      4  N   UNL     1       4.177   3.391  20.149  0.00  0.00    +0.000 NA
ATOM      5  C   UNL     1       4.460   4.099  19.109  0.00  0.00    +0.000 A 
ATOM      6  S   UNL     1       6.046   4.702  18.755  0.00  0.00    +0.000 S 
ATOM      7  C   UNL     1       5.374   5.415  17.301  0.00  0.00    +0.000 A 
ATOM      8  N   UNL     1       4.101   5.237  17.097  0.00  0.00    +0.000 NA
ATOM      9  N   UNL     1       3.583   4.482  18.137  0.00  0.00    +0.000 N 
ATOM     10  C   UNL     1       2.266   4.109  18.203  0.00  0.00    +0.000 A 
ATOM     11  O   UNL     1       1.370   4.369  17.411  0.00  0.00    +0.000 OA
ENDROOT
BRANCH   7  12
ATOM     12  C   UNL     1       6.306   6.149  16.370  0.00  0.00    +0.000 C 
BRANCH  12  13
ATOM     13  O   UNL     1       7.220   5.172  15.877  0.00  0.00    +0.000 OA
BRANCH  13  14
ATOM     14  C   UNL     1       7.121   4.825  14.558  0.00  0.00    +0.000 A 
ATOM     15  C   UNL     1       6.174   3.832  14.291  0.00  0.00    +0.000 A 
ATOM     16  C   UNL     1       5.933   3.408  12.984  0.00  0.00    +0.000 A 
ATOM     17  C   UNL     1       6.632   3.986  11.929  0.00  0.00    +0.000 A 
ATOM     18  C   UNL     1       7.574   4.982  12.186  0.00  0.00    +0.000 A 
ATOM     19  C   UNL     1       7.822   5.402  13.500  0.00  0.00    +0.000 A 
ENDBRANCH  13  14
ENDBRANCH  12  13
ENDBRANCH   7  12
TORSDOF 3
ENDMDL
