MODEL 1
REMARK VINA RESULT:      -7.2      0.000      0.000
REMARK  Name = 
REMARK  8 active torsions:
REMARK  status: ('A' for Active; 'I' for Inactive)
REMARK    1  A    between atoms: C_1  and  C_2
REMARK    2  A    between atoms: C_3  and  C_4
REMARK    3  A    between atoms: C_5  and  C_6
REMARK    4  A    between atoms: C_7  and  C_8
REMARK    5  A    between atoms: C_8  and  C_10
REMARK    6  A    between atoms: C_17  and  N_18
REMARK    7  A    between atoms: C_25  and  C_26
REMARK    8  A    between atoms: C_27  and  C_28
REMARK                            x       y       z     vdW  Elec       q    Type
REMARK                         _______ _______ _______ _____ _____    ______ ____
ROOT
ATOM      1  C   UNL     1      -0.704  10.558  19.030  0.00  0.00    +0.000 C 
ATOM      2  C   UNL     1      -0.151   9.932  20.310  0.00  0.00    +0.000 C 
ATOM      3  C   UNL     1       1.208   9.222  20.219  0.00  0.00    +0.000 C 
ATOM      4  N   UNL     1       1.431   8.569  18.929  0.00  0.00    +0.000 N 
ATOM      5  C   UNL     1       2.417   7.588  18.907  0.00  0.00    +0.000 A 
ATOM      6  C   UNL     1       3.356   7.474  17.870  0.00  0.00    +0.000 A 
ATOM      7  C   UNL     1       4.228   6.379  17.813  0.00  0.00    +0.000 A 
ATOM      8  C   UNL     1       4.143   5.409  18.798  0.00  0.00    +0.000 A 
ATOM      9  C   UNL     1       3.231   5.596  19.826  0.00  0.00    +0.000 A 
ATOM     10  N   UNL     1       2.400   6.665  19.893  0.00  0.00    +0.000 NA
ATOM     11  C   UNL     1       1.110   9.313  17.724  0.00  0.00    +0.000 C 
ATOM     12  C   UNL     1      -0.344   9.735  17.783  0.00  0.00    +0.000 C 
ENDROOT
BRANCH   8  13
ATOM     13  N   UNL     1       4.961   4.207  18.756  0.00  0.00    +0.000 N 
ATOM     14  O   UNL     1       4.381   3.114  18.796  0.00  0.00    +0.000 OA
ATOM     15  O   UNL     1       6.192   4.348  18.689  0.00  0.00    +0.000 OA
ENDBRANCH   8  13
BRANCH   1  16
ATOM     16  C   UNL     1      -0.491  12.081  18.855  0.00  0.00    +0.000 C 
ATOM     17  O   UNL     1      -1.054  12.651  17.916  0.00  0.00    +0.000 OA
BRANCH  16  24
ATOM     18  C   UNL     1       2.660  15.721  22.361  0.00  0.00    +0.000 C 
ATOM     19  C   UNL     1       1.814  14.784  21.519  0.00  0.00    +0.000 A 
ATOM     20  C   UNL     1       0.464  14.496  21.819  0.00  0.00    +0.000 A 
ATOM     21  C   UNL     1      -0.229  15.147  23.003  0.00  0.00    +0.000 C 
ATOM     22  C   UNL     1      -0.287  13.591  20.990  0.00  0.00    +0.000 A 
ATOM     23  C   UNL     1      -1.735  13.359  21.351  0.00  0.00    +0.000 C 
ATOM     24  C   UNL     1       0.319  12.957  19.858  0.00  0.00    +0.000 A 
ATOM     25  C   UNL     1       1.684  13.257  19.565  0.00  0.00    +0.000 A 
ATOM     26  C   UNL     1       2.437  12.623  18.411  0.00  0.00    +0.000 C 
ATOM     27  C   UNL     1       2.410  14.192  20.374  0.00  0.00    +0.000 A 
ATOM     28  C   UNL     1       3.846  14.581  20.045  0.00  0.00    +0.000 C 
ENDBRANCH  16  24
ENDBRANCH   1  16
TORSDOF 3
ENDMDL
MODEL 2
REMARK VINA RESULT:      -7.1      1.927      3.121
REMARK  Name = 
REMARK  8 active torsions:
REMARK  status: ('A' for Active; 'I' for Inactive)
REMARK    1  A    between atoms: C_1  and  C_2
REMARK    2  A    between atoms: C_3  and  C_4
REMARK    3  A    between atoms: C_5  and  C_6
REMARK    4  A    between atoms: C_7  and  C_8
REMARK    5  A    between atoms: C_8  and  C_10
REMARK    6  A    between atoms: C_17  and  N_18
REMARK    7  A    between atoms: C_25  and  C_26
REMARK    8  A    between atoms: C_27  and  C_28
REMARK                            x       y       z     vdW  Elec       q    Type
REMARK                         _______ _______ _______ _____ _____    ______ ____
ROOT
ATOM      1  C   UNL     1      -0.106  10.236  20.332  0.00  0.00    +0.000 C 
ATOM      2  C   UNL     1       0.260   9.004  21.160  0.00  0.00    +0.000 C 
ATOM      3  C   UNL     1       1.496   8.202  20.723  0.00  0.00    +0.000 C 
ATOM      4  N   UNL     1       1.695   8.197  19.273  0.00  0.00    +0.000 N 
ATOM      5  C   UNL     1       2.516   7.189  18.777  0.00  0.00    +0.000 A 
ATOM      6  C   UNL     1       3.489   7.416  17.791  0.00  0.00    +0.000 A 
ATOM      7  C   UNL     1       4.182   6.345  17.212  0.00  0.00    +0.000 A 
ATOM      8  C   UNL     1       3.886   5.057  17.629  0.00  0.00    +0.000 A 
ATOM      9  C   UNL     1       2.950   4.894  18.640  0.00  0.00    +0.000 A 
ATOM     10  N   UNL     1       2.293   5.932  19.215  0.00  0.00    +0.000 NA
ATOM     11  C   UNL     1       1.570   9.458  18.563  0.00  0.00    +0.000 C 
ATOM     12  C   UNL     1       0.199  10.040  18.839  0.00  0.00    +0.000 C 
ENDROOT
BRANCH   8  13
ATOM     13  N   UNL     1       4.507   3.896  17.014  0.00  0.00    +0.000 N 
ATOM     14  O   UNL     1       4.084   2.778  17.335  0.00  0.00    +0.000 OA
ATOM     15  O   UNL     1       5.430   4.094  16.208  0.00  0.00    +0.000 OA
ENDBRANCH   8  13
BRANCH   1  16
ATOM     16  C   UNL     1       0.351  11.606  20.888  0.00  0.00    +0.000 C 
ATOM     17  O   UNL     1       1.441  11.675  21.463  0.00  0.00    +0.000 OA
BRANCH  16  24
ATOM     18  C   UNL     1      -2.564  16.785  20.491  0.00  0.00    +0.000 C 
ATOM     19  C   UNL     1      -1.801  15.474  20.528  0.00  0.00    +0.000 A 
ATOM     20  C   UNL     1      -0.749  15.177  19.634  0.00  0.00    +0.000 A 
ATOM     21  C   UNL     1      -0.300  16.186  18.593  0.00  0.00    +0.000 C 
ATOM     22  C   UNL     1      -0.067  13.912  19.710  0.00  0.00    +0.000 A 
ATOM     23  C   UNL     1       1.072  13.679  18.745  0.00  0.00    +0.000 C 
ATOM     24  C   UNL     1      -0.447  12.929  20.679  0.00  0.00    +0.000 A 
ATOM     25  C   UNL     1      -1.511  13.242  21.578  0.00  0.00    +0.000 A 
ATOM     26  C   UNL     1      -2.019  12.267  22.625  0.00  0.00    +0.000 C 
ATOM     27  C   UNL     1      -2.157  14.521  21.520  0.00  0.00    +0.000 A 
ATOM     28  C   UNL     1      -3.249  14.906  22.509  0.00  0.00    +0.000 C 
ENDBRANCH  16  24
ENDBRANCH   1  16
TORSDOF 3
ENDMDL
MODEL 3
REMARK VINA RESULT:      -7.1      2.185      3.216
REMARK  Name = 
REMARK  8 active torsions:
REMARK  status: ('A' for Active; 'I' for Inactive)
REMARK    1  A    between atoms: C_1  and  C_2
REMARK    2  A    between atoms: C_3  and  C_4
REMARK    3  A    between atoms: C_5  and  C_6
REMARK    4  A    between atoms: C_7  and  C_8
REMARK    5  A    between atoms: C_8  and  C_10
REMARK    6  A    between atoms: C_17  and  N_18
REMARK    7  A    between atoms: C_25  and  C_26
REMARK    8  A    between atoms: C_27  and  C_28
REMARK                            x       y       z     vdW  Elec       q    Type
REMARK                         _______ _______ _______ _____ _____    ______ ____
ROOT
ATOM      1  C   UNL     1       1.174  10.393  20.118  0.00  0.00    +0.000 C 
ATOM      2  C   UNL     1       1.757   9.838  18.818  0.00  0.00    +0.000 C 
ATOM      3  C   UNL     1       1.746   8.313  18.634  0.00  0.00    +0.000 C 
ATOM      4  N   UNL     1       1.924   7.582  19.889  0.00  0.00    +0.000 N 
ATOM      5  C   UNL     1       2.330   6.257  19.766  0.00  0.00    +0.000 A 
ATOM      6  C   UNL     1       1.779   5.217  20.531  0.00  0.00    +0.000 A 
ATOM      7  C   UNL     1       2.326   3.928  20.485  0.00  0.00    +0.000 A 
ATOM      8  C   UNL     1       3.425   3.701  19.672  0.00  0.00    +0.000 A 
ATOM      9  C   UNL     1       3.899   4.752  18.901  0.00  0.00    +0.000 A 
ATOM     10  N   UNL     1       3.358   5.995  18.931  0.00  0.00    +0.000 NA
ATOM     11  C   UNL     1       1.153   8.008  21.043  0.00  0.00    +0.000 C 
ATOM     12  C   UNL     1       1.448   9.470  21.314  0.00  0.00    +0.000 C 
ENDROOT
BRANCH   8  13
ATOM     13  N   UNL     1       4.093   2.410  19.638  0.00  0.00    +0.000 N 
ATOM     14  O   UNL     1       3.748   1.605  18.763  0.00  0.00    +0.000 OA
ATOM     15  O   UNL     1       4.965   2.188  20.493  0.00  0.00    +0.000 OA
ENDBRANCH   8  13
BRANCH   1  16
ATOM     16  C   UNL     1      -0.280  10.921  20.056  0.00  0.00    +0.000 C 
ATOM     17  O   UNL     1      -1.169  10.156  19.673  0.00  0.00    +0.000 OA
BRANCH  16  24
ATOM     18  C   UNL     1      -1.545  16.334  22.196  0.00  0.00    +0.000 C 
ATOM     19  C   UNL     1      -1.235  14.978  21.588  0.00  0.00    +0.000 A 
ATOM     20  C   UNL     1      -0.892  14.810  20.229  0.00  0.00    +0.000 A 
ATOM     21  C   UNL     1      -0.782  16.005  19.298  0.00  0.00    +0.000 C 
ATOM     22  C   UNL     1      -0.619  13.498  19.705  0.00  0.00    +0.000 A 
ATOM     23  C   UNL     1      -0.222  13.400  18.251  0.00  0.00    +0.000 C 
ATOM     24  C   UNL     1      -0.701  12.340  20.544  0.00  0.00    +0.000 A 
ATOM     25  C   UNL     1      -1.049  12.523  21.916  0.00  0.00    +0.000 A 
ATOM     26  C   UNL     1      -1.195  11.368  22.890  0.00  0.00    +0.000 C 
ATOM     27  C   UNL     1      -1.279  13.839  22.437  0.00  0.00    +0.000 A 
ATOM     28  C   UNL     1      -1.585  14.069  23.911  0.00  0.00    +0.000 C 
ENDBRANCH  16  24
ENDBRANCH   1  16
TORSDOF 3
ENDMDL
MODEL 4
REMARK VINA RESULT:      -7.0      2.066      3.085
REMARK  Name = 
REMARK  8 active torsions:
REMARK  status: ('A' for Active; 'I' for Inactive)
REMARK    1  A    between atoms: C_1  and  C_2
REMARK    2  A    between atoms: C_3  and  C_4
REMARK    3  A    between atoms: C_5  and  C_6
REMARK    4  A    between atoms: C_7  and  C_8
REMARK    5  A    between atoms: C_8  and  C_10
REMARK    6  A    between atoms: C_17  and  N_18
REMARK    7  A    between atoms: C_25  and  C_26
REMARK    8  A    between atoms: C_27  and  C_28
REMARK                            x       y       z     vdW  Elec       q    Type
REMARK                         _______ _______ _______ _____ _____    ______ ____
ROOT
ATOM      1  C   UNL     1       0.324  10.911  19.567  0.00  0.00    +0.000 C 
ATOM      2  C   UNL     1       0.313   9.651  20.433  0.00  0.00    +0.000 C 
ATOM      3  C   UNL     1       1.439   8.630  20.208  0.00  0.00    +0.000 C 
ATOM      4  N   UNL     1       1.881   8.560  18.814  0.00  0.00    +0.000 N 
ATOM      5  C   UNL     1       2.580   7.411  18.457  0.00  0.00    +0.000 A 
ATOM      6  C   UNL     1       3.733   7.438  17.658  0.00  0.00    +0.000 A 
ATOM      7  C   UNL     1       4.311   6.248  17.196  0.00  0.00    +0.000 A 
ATOM      8  C   UNL     1       3.719   5.044  17.541  0.00  0.00    +0.000 A 
ATOM      9  C   UNL     1       2.609   5.073  18.373  0.00  0.00    +0.000 A 
ATOM     10  N   UNL     1       2.061   6.223  18.836  0.00  0.00    +0.000 NA
ATOM     11  C   UNL     1       2.112   9.807  18.108  0.00  0.00    +0.000 C 
ATOM     12  C   UNL     1       0.841  10.633  18.148  0.00  0.00    +0.000 C 
ENDROOT
BRANCH   8  13
ATOM     13  N   UNL     1       4.217   3.776  17.030  0.00  0.00    +0.000 N 
ATOM     14  O   UNL     1       5.051   3.811  16.117  0.00  0.00    +0.000 OA
ATOM     15  O   UNL     1       3.770   2.735  17.536  0.00  0.00    +0.000 OA
ENDBRANCH   8  13
BRANCH   1  16
ATOM     16  C   UNL     1       0.918  12.188  20.210  0.00  0.00    +0.000 C 
ATOM     17  O   UNL     1       1.547  12.079  21.266  0.00  0.00    +0.000 OA
BRANCH  16  24
ATOM     18  C   UNL     1       0.639  17.743  18.080  0.00  0.00    +0.000 C 
ATOM     19  C   UNL     1       0.758  16.314  18.576  0.00  0.00    +0.000 A 
ATOM     20  C   UNL     1       1.893  15.511  18.329  0.00  0.00    +0.000 A 
ATOM     21  C   UNL     1       3.087  16.059  17.567  0.00  0.00    +0.000 C 
ATOM     22  C   UNL     1       1.946  14.158  18.815  0.00  0.00    +0.000 A 
ATOM     23  C   UNL     1       3.207  13.372  18.544  0.00  0.00    +0.000 C 
ATOM     24  C   UNL     1       0.849  13.597  19.546  0.00  0.00    +0.000 A 
ATOM     25  C   UNL     1      -0.292  14.419  19.790  0.00  0.00    +0.000 A 
ATOM     26  C   UNL     1      -1.523  13.922  20.525  0.00  0.00    +0.000 C 
ATOM     27  C   UNL     1      -0.317  15.778  19.336  0.00  0.00    +0.000 A 
ATOM     28  C   UNL     1      -1.492  16.698  19.640  0.00  0.00    +0.000 C 
ENDBRANCH  16  24
ENDBRANCH   1  16
TORSDOF 3
ENDMDL
MODEL 5
REMARK VINA RESULT:      -7.0      1.895      3.046
REMARK  Name = 
REMARK  8 active torsions:
REMARK  status: ('A' for Active; 'I' for Inactive)
REMARK    1  A    between atoms: C_1  and  C_2
REMARK    2  A    between atoms: C_3  and  C_4
REMARK    3  A    between atoms: C_5  and  C_6
REMARK    4  A    between atoms: C_7  and  C_8
REMARK    5  A    between atoms: C_8  and  C_10
REMARK    6  A    between atoms: C_17  and  N_18
REMARK    7  A    between atoms: C_25  and  C_26
REMARK    8  A    between atoms: C_27  and  C_28
REMARK                            x       y       z     vdW  Elec       q    Type
REMARK                         _______ _______ _______ _____ _____    ______ ____
ROOT
ATOM      1  C   UNL     1       0.100  10.339  19.993  0.00  0.00    +0.000 C 
ATOM      2  C   UNL     1       0.306   9.065  20.813  0.00  0.00    +0.000 C 
ATOM      3  C   UNL     1       1.513   8.184  20.457  0.00  0.00    +0.000 C 
ATOM      4  N   UNL     1       1.834   8.198  19.029  0.00  0.00    +0.000 N 
ATOM      5  C   UNL     1       2.620   7.144  18.575  0.00  0.00    +0.000 A 
ATOM      6  C   UNL     1       3.687   7.320  17.680  0.00  0.00    +0.000 A 
ATOM      7  C   UNL     1       4.349   6.214  17.130  0.00  0.00    +0.000 A 
ATOM      8  C   UNL     1       3.927   4.943  17.484  0.00  0.00    +0.000 A 
ATOM      9  C   UNL     1       2.900   4.827  18.409  0.00  0.00    +0.000 A 
ATOM     10  N   UNL     1       2.272   5.896  18.956  0.00  0.00    +0.000 NA
ATOM     11  C   UNL     1       1.861   9.480  18.348  0.00  0.00    +0.000 C 
ATOM     12  C   UNL     1       0.516  10.155  18.526  0.00  0.00    +0.000 C 
ENDROOT
BRANCH   8  13
ATOM     13  N   UNL     1       4.514   3.753  16.890  0.00  0.00    +0.000 N 
ATOM     14  O   UNL     1       5.375   3.910  16.015  0.00  0.00    +0.000 OA
ATOM     15  O   UNL     1       4.112   2.649  17.290  0.00  0.00    +0.000 OA
ENDBRANCH   8  13
BRANCH   1  16
ATOM     16  C   UNL     1       0.605  11.659  20.624  0.00  0.00    +0.000 C 
ATOM     17  O   UNL     1       1.446  11.598  21.525  0.00  0.00    +0.000 OA
BRANCH  16  24
ATOM     18  C   UNL     1      -1.019  17.188  19.117  0.00  0.00    +0.000 C 
ATOM     19  C   UNL     1      -0.561  15.780  19.449  0.00  0.00    +0.000 A 
ATOM     20  C   UNL     1       0.673  15.253  19.008  0.00  0.00    +0.000 A 
ATOM     21  C   UNL     1       1.635  16.098  18.193  0.00  0.00    +0.000 C 
ATOM     22  C   UNL     1       1.050  13.906  19.345  0.00  0.00    +0.000 A 
ATOM     23  C   UNL     1       2.400  13.424  18.871  0.00  0.00    +0.000 C 
ATOM     24  C   UNL     1       0.180  13.072  20.119  0.00  0.00    +0.000 A 
ATOM     25  C   UNL     1      -1.064  13.616  20.559  0.00  0.00    +0.000 A 
ATOM     26  C   UNL     1      -2.077  12.816  21.358  0.00  0.00    +0.000 C 
ATOM     27  C   UNL     1      -1.412  14.973  20.252  0.00  0.00    +0.000 A 
ATOM     28  C   UNL     1      -2.701  15.599  20.765  0.00  0.00    +0.000 C 
ENDBRANCH  16  24
ENDBRANCH   1  16
TORSDOF 3
ENDMDL
MODEL 6
REMARK VINA RESULT:      -7.0      2.181      2.892
REMARK  Name = 
REMARK  8 active torsions:
REMARK  status: ('A' for Active; 'I' for Inactive)
REMARK    1  A    between atoms: C_1  and  C_2
REMARK    2  A    between atoms: C_3  and  C_4
REMARK    3  A    between atoms: C_5  and  C_6
REMARK    4  A    between atoms: C_7  and  C_8
REMARK    5  A    between atoms: C_8  and  C_10
REMARK    6  A    between atoms: C_17  and  N_18
REMARK    7  A    between atoms: C_25  and  C_26
REMARK    8  A    between atoms: C_27  and  C_28
REMARK                            x       y       z     vdW  Elec       q    Type
REMARK                         _______ _______ _______ _____ _____    ______ ____
ROOT
ATOM      1  C   UNL     1       1.209  10.388  20.276  0.00  0.00    +0.000 C 
ATOM      2  C   UNL     1       1.820   9.866  18.975  0.00  0.00    +0.000 C 
ATOM      3  C   UNL     1       1.792   8.348  18.742  0.00  0.00    +0.000 C 
ATOM      4  N   UNL     1       1.925   7.574  19.977  0.00  0.00    +0.000 N 
ATOM      5  C   UNL     1       2.315   6.247  19.822  0.00  0.00    +0.000 A 
ATOM      6  C   UNL     1       1.728   5.192  20.537  0.00  0.00    +0.000 A 
ATOM      7  C   UNL     1       2.257   3.897  20.464  0.00  0.00    +0.000 A 
ATOM      8  C   UNL     1       3.375   3.679  19.675  0.00  0.00    +0.000 A 
ATOM      9  C   UNL     1       3.886   4.747  18.952  0.00  0.00    +0.000 A 
ATOM     10  N   UNL     1       3.362   5.996  19.007  0.00  0.00    +0.000 NA
ATOM     11  C   UNL     1       1.128   7.975  21.122  0.00  0.00    +0.000 C 
ATOM     12  C   UNL     1       1.437   9.422  21.449  0.00  0.00    +0.000 C 
ENDROOT
BRANCH   8  13
ATOM     13  N   UNL     1       4.025   2.380  19.618  0.00  0.00    +0.000 N 
ATOM     14  O   UNL     1       3.663   1.593  18.733  0.00  0.00    +0.000 OA
ATOM     15  O   UNL     1       4.899   2.133  20.463  0.00  0.00    +0.000 OA
ENDBRANCH   8  13
BRANCH   1  16
ATOM     16  C   UNL     1      -0.235  10.939  20.192  0.00  0.00    +0.000 C 
ATOM     17  O   UNL     1      -1.109  10.228  19.688  0.00  0.00    +0.000 OA
BRANCH  16  24
ATOM     18  C   UNL     1      -2.202  16.195  22.187  0.00  0.00    +0.000 C 
ATOM     19  C   UNL     1      -1.697  14.834  21.743  0.00  0.00    +0.000 A 
ATOM     20  C   UNL     1      -1.788  13.683  22.556  0.00  0.00    +0.000 A 
ATOM     21  C   UNL     1      -2.436  13.745  23.928  0.00  0.00    +0.000 C 
ATOM     22  C   UNL     1      -1.282  12.420  22.086  0.00  0.00    +0.000 A 
ATOM     23  C   UNL     1      -1.446  11.226  22.995  0.00  0.00    +0.000 C 
ATOM     24  C   UNL     1      -0.669  12.309  20.797  0.00  0.00    +0.000 A 
ATOM     25  C   UNL     1      -0.585  13.479  19.984  0.00  0.00    +0.000 A 
ATOM     26  C   UNL     1       0.070  13.486  18.615  0.00  0.00    +0.000 C 
ATOM     27  C   UNL     1      -1.128  14.723  20.446  0.00  0.00    +0.000 A 
ATOM     28  C   UNL     1      -1.112  15.971  19.573  0.00  0.00    +0.000 C 
ENDBRANCH  16  24
ENDBRANCH   1  16
TORSDOF 3
ENDMDL
MODEL 7
REMARK VINA RESULT:      -6.9      2.057      3.199
REMARK  Name = 
REMARK  8 active torsions:
REMARK  status: ('A' for Active; 'I' for Inactive)
REMARK    1  A    between atoms: C_1  and  C_2
REMARK    2  A    between atoms: C_3  and  C_4
REMARK    3  A    between atoms: C_5  and  C_6
REMARK    4  A    between atoms: C_7  and  C_8
REMARK    5  A    between atoms: C_8  and  C_10
REMARK    6  A    between atoms: C_17  and  N_18
REMARK    7  A    between atoms: C_25  and  C_26
REMARK    8  A    between atoms: C_27  and  C_28
REMARK                            x       y       z     vdW  Elec       q    Type
REMARK                         _______ _______ _______ _____ _____    ______ ____
ROOT
ATOM      1  C   UNL     1      -0.092  10.072  20.389  0.00  0.00    +0.000 C 
ATOM      2  C   UNL     1      -0.169   8.953  21.428  0.00  0.00    +0.000 C 
ATOM      3  C   UNL     1       0.975   7.928  21.446  0.00  0.00    +0.000 C 
ATOM      4  N   UNL     1       1.529   7.660  20.118  0.00  0.00    +0.000 N 
ATOM      5  C   UNL     1       2.258   6.482  19.992  0.00  0.00    +0.000 A 
ATOM      6  C   UNL     1       3.472   6.409  19.291  0.00  0.00    +0.000 A 
ATOM      7  C   UNL     1       4.089   5.173  19.058  0.00  0.00    +0.000 A 
ATOM      8  C   UNL     1       3.475   4.024  19.528  0.00  0.00    +0.000 A 
ATOM      9  C   UNL     1       2.302   4.158  20.256  0.00  0.00    +0.000 A 
ATOM     10  N   UNL     1       1.714   5.355  20.499  0.00  0.00    +0.000 NA
ATOM     11  C   UNL     1       1.812   8.794  19.256  0.00  0.00    +0.000 C 
ATOM     12  C   UNL     1       0.539   9.597  19.073  0.00  0.00    +0.000 C 
ENDROOT
BRANCH   8  13
ATOM     13  N   UNL     1       4.017   2.703  19.252  0.00  0.00    +0.000 N 
ATOM     14  O   UNL     1       4.834   2.236  20.056  0.00  0.00    +0.000 OA
ATOM     15  O   UNL     1       3.634   2.125  18.223  0.00  0.00    +0.000 OA
ENDBRANCH   8  13
BRANCH   1  16
ATOM     16  C   UNL     1       0.444  11.438  20.881  0.00  0.00    +0.000 C 
ATOM     17  O   UNL     1       1.579  11.488  21.362  0.00  0.00    +0.000 OA
BRANCH  16  24
ATOM     18  C   UNL     1      -2.356  16.690  20.632  0.00  0.00    +0.000 C 
ATOM     19  C   UNL     1      -1.628  15.358  20.630  0.00  0.00    +0.000 A 
ATOM     20  C   UNL     1      -0.687  15.003  19.638  0.00  0.00    +0.000 A 
ATOM     21  C   UNL     1      -0.326  15.968  18.523  0.00  0.00    +0.000 C 
ATOM     22  C   UNL     1      -0.036  13.721  19.681  0.00  0.00    +0.000 A 
ATOM     23  C   UNL     1       0.986  13.426  18.608  0.00  0.00    +0.000 C 
ATOM     24  C   UNL     1      -0.336  12.778  20.716  0.00  0.00    +0.000 A 
ATOM     25  C   UNL     1      -1.288  13.149  21.713  0.00  0.00    +0.000 A 
ATOM     26  C   UNL     1      -1.706  12.222  22.839  0.00  0.00    +0.000 C 
ATOM     27  C   UNL     1      -1.901  14.445  21.684  0.00  0.00    +0.000 A 
ATOM     28  C   UNL     1      -2.870  14.892  22.771  0.00  0.00    +0.000 C 
ENDBRANCH  16  24
ENDBRANCH   1  16
TORSDOF 3
ENDMDL
MODEL 8
REMARK VINA RESULT:      -6.9      1.893      2.415
REMARK  Name = 
REMARK  8 active torsions:
REMARK  status: ('A' for Active; 'I' for Inactive)
REMARK    1  A    between atoms: C_1  and  C_2
REMARK    2  A    between atoms: C_3  and  C_4
REMARK    3  A    between atoms: C_5  and  C_6
REMARK    4  A    between atoms: C_7  and  C_8
REMARK    5  A    between atoms: C_8  and  C_10
REMARK    6  A    between atoms: C_17  and  N_18
REMARK    7  A    between atoms: C_25  and  C_26
REMARK    8  A    between atoms: C_27  and  C_28
REMARK                            x       y       z     vdW  Elec       q    Type
REMARK                         _______ _______ _______ _____ _____    ______ ____
ROOT
ATOM      1  C   UNL     1       0.045  10.443  20.239  0.00  0.00    +0.000 C 
ATOM      2  C   UNL     1       0.267   9.157  21.036  0.00  0.00    +0.000 C 
ATOM      3  C   UNL     1       1.461   8.276  20.637  0.00  0.00    +0.000 C 
ATOM      4  N   UNL     1       1.745   8.308  19.202  0.00  0.00    +0.000 N 
ATOM      5  C   UNL     1       2.515   7.257  18.713  0.00  0.00    +0.000 A 
ATOM      6  C   UNL     1       3.559   7.442  17.793  0.00  0.00    +0.000 A 
ATOM      7  C   UNL     1       4.202   6.342  17.211  0.00  0.00    +0.000 A 
ATOM      8  C   UNL     1       3.784   5.067  17.558  0.00  0.00    +0.000 A 
ATOM      9  C   UNL     1       2.780   4.942  18.508  0.00  0.00    +0.000 A 
ATOM     10  N   UNL     1       2.171   6.006  19.086  0.00  0.00    +0.000 NA
ATOM     11  C   UNL     1       1.760   9.599  18.537  0.00  0.00    +0.000 C 
ATOM     12  C   UNL     1       0.422  10.277  18.759  0.00  0.00    +0.000 C 
ENDROOT
BRANCH   8  13
ATOM     13  N   UNL     1       4.350   3.883  16.933  0.00  0.00    +0.000 N 
ATOM     14  O   UNL     1       3.962   2.778  17.333  0.00  0.00    +0.000 OA
ATOM     15  O   UNL     1       5.195   4.050  16.040  0.00  0.00    +0.000 OA
ENDBRANCH   8  13
BRANCH   1  16
ATOM     16  C   UNL     1       0.571  11.752  20.875  0.00  0.00    +0.000 C 
ATOM     17  O   UNL     1       1.699  11.752  21.377  0.00  0.00    +0.000 OA
BRANCH  16  24
ATOM     18  C   UNL     1      -2.544  16.797  20.309  0.00  0.00    +0.000 C 
ATOM     19  C   UNL     1      -1.773  15.506  20.517  0.00  0.00    +0.000 A 
ATOM     20  C   UNL     1      -2.095  14.579  21.532  0.00  0.00    +0.000 A 
ATOM     21  C   UNL     1      -3.271  14.816  22.463  0.00  0.00    +0.000 C 
ATOM     22  C   UNL     1      -1.321  13.376  21.689  0.00  0.00    +0.000 A 
ATOM     23  C   UNL     1      -1.746  12.413  22.772  0.00  0.00    +0.000 C 
ATOM     24  C   UNL     1      -0.207  13.102  20.832  0.00  0.00    +0.000 A 
ATOM     25  C   UNL     1       0.108  14.047  19.809  0.00  0.00    +0.000 A 
ATOM     26  C   UNL     1       1.282  13.877  18.864  0.00  0.00    +0.000 C 
ATOM     27  C   UNL     1      -0.695  15.222  19.636  0.00  0.00    +0.000 A 
ATOM     28  C   UNL     1      -0.423  16.213  18.512  0.00  0.00    +0.000 C 
ENDBRANCH  16  24
ENDBRANCH   1  16
TORSDOF 3
ENDMDL
MODEL 9
REMARK VINA RESULT:      -6.8      0.851      1.333
REMARK  Name = 
REMARK  8 active torsions:
REMARK  status: ('A' for Active; 'I' for Inactive)
REMARK    1  A    between atoms: C_1  and  C_2
REMARK    2  A    between atoms: C_3  and  C_4
REMARK    3  A    between atoms: C_5  and  C_6
REMARK    4  A    between atoms: C_7  and  C_8
REMARK    5  A    between atoms: C_8  and  C_10
REMARK    6  A    between atoms: C_17  and  N_18
REMARK    7  A    between atoms: C_25  and  C_26
REMARK    8  A    between atoms: C_27  and  C_28
REMARK                            x       y       z     vdW  Elec       q    Type
REMARK                         _______ _______ _______ _____ _____    ______ ____
ROOT
ATOM      1  C   UNL     1      -0.894  10.713  19.333  0.00  0.00    +0.000 C 
ATOM      2  C   UNL     1      -0.231  10.058  20.545  0.00  0.00    +0.000 C 
ATOM      3  C   UNL     1       1.133   9.387  20.326  0.00  0.00    +0.000 C 
ATOM      4  N   UNL     1       1.272   8.785  19.000  0.00  0.00    +0.000 N 
ATOM      5  C   UNL     1       2.277   7.831  18.869  0.00  0.00    +0.000 A 
ATOM      6  C   UNL     1       3.137   7.778  17.760  0.00  0.00    +0.000 A 
ATOM      7  C   UNL     1       4.027   6.708  17.598  0.00  0.00    +0.000 A 
ATOM      8  C   UNL     1       4.040   5.703  18.551  0.00  0.00    +0.000 A 
ATOM      9  C   UNL     1       3.204   5.831  19.651  0.00  0.00    +0.000 A 
ATOM     10  N   UNL     1       2.356   6.875  19.818  0.00  0.00    +0.000 NA
ATOM     11  C   UNL     1       0.844   9.562  17.850  0.00  0.00    +0.000 C 
ATOM     12  C   UNL     1      -0.611   9.944  18.034  0.00  0.00    +0.000 C 
ENDROOT
BRANCH   8  13
ATOM     13  N   UNL     1       4.880   4.525  18.404  0.00  0.00    +0.000 N 
ATOM     14  O   UNL     1       4.718   3.824  17.397  0.00  0.00    +0.000 OA
ATOM     15  O   UNL     1       5.705   4.288  19.300  0.00  0.00    +0.000 OA
ENDBRANCH   8  13
BRANCH   1  16
ATOM     16  C   UNL     1      -0.731  12.247  19.199  0.00  0.00    +0.000 C 
ATOM     17  O   UNL     1      -0.825  12.754  18.078  0.00  0.00    +0.000 OA
BRANCH  16  24
ATOM     18  C   UNL     1       0.118  16.201  23.572  0.00  0.00    +0.000 C 
ATOM     19  C   UNL     1      -0.158  15.177  22.485  0.00  0.00    +0.000 A 
ATOM     20  C   UNL     1      -1.458  14.712  22.187  0.00  0.00    +0.000 A 
ATOM     21  C   UNL     1      -2.669  15.246  22.930  0.00  0.00    +0.000 C 
ATOM     22  C   UNL     1      -1.658  13.732  21.152  0.00  0.00    +0.000 A 
ATOM     23  C   UNL     1      -3.079  13.308  20.863  0.00  0.00    +0.000 C 
ATOM     24  C   UNL     1      -0.549  13.202  20.417  0.00  0.00    +0.000 A 
ATOM     25  C   UNL     1       0.759  13.682  20.728  0.00  0.00    +0.000 A 
ATOM     26  C   UNL     1       2.010  13.171  20.036  0.00  0.00    +0.000 C 
ATOM     27  C   UNL     1       0.943  14.688  21.733  0.00  0.00    +0.000 A 
ATOM     28  C   UNL     1       2.319  15.266  22.038  0.00  0.00    +0.000 C 
ENDBRANCH  16  24
ENDBRANCH   1  16
TORSDOF 3
ENDMDL
