MODEL 1
REMARK VINA RESULT:      -7.5      0.000      0.000
REMARK  Name = 
REMARK  6 active torsions:
REMARK  status: ('A' for Active; 'I' for Inactive)
REMARK    1  A    between atoms: C_1  and  N_2
REMARK    2  A    between atoms: N_5  and  C_6
REMARK    3  A    between atoms: C_15  and  C_16
REMARK    4  A    between atoms: C_16  and  O_18
REMARK    5  A    between atoms: N_20  and  N_21
REMARK    6  A    between atoms: C_23  and  C_24
REMARK                            x       y       z     vdW  Elec       q    Type
REMARK                         _______ _______ _______ _____ _____    ______ ____
ROOT
ATOM      1  C   UNL     1       2.074   7.412  19.749  0.00  0.00    +0.000 A 
ATOM      2  C   UNL     1       3.303   6.912  19.244  0.00  0.00    +0.000 A 
ATOM      3  C   UNL     1       3.721   5.582  19.397  0.00  0.00    +0.000 A 
ATOM      4  C   UNL     1       2.846   4.752  20.132  0.00  0.00    +0.000 A 
ATOM      5  C   UNL     1       1.649   5.224  20.692  0.00  0.00    +0.000 A 
ATOM      6  C   UNL     1       1.275   6.541  20.493  0.00  0.00    +0.000 A 
ATOM      7  F   UNL     1       0.100   6.944  21.001  0.00  0.00    +0.000 F 
ATOM      8  C   UNL     1       3.178   3.333  20.353  0.00  0.00    +0.000 A 
ATOM      9  O   UNL     1       2.468   2.599  21.037  0.00  0.00    +0.000 OA
ATOM     10  C   UNL     1       4.407   2.813  19.750  0.00  0.00    +0.000 A 
ATOM     11  C   UNL     1       5.161   3.679  19.066  0.00  0.00    +0.000 A 
ATOM     12  N   UNL     1       4.918   5.034  18.793  0.00  0.00    +0.000 N 
ENDROOT
BRANCH   1  17
ATOM     13  C   UNL     1       1.562  12.865  18.752  0.00  0.00    +0.000 C 
ATOM     14  N   UNL     1       1.122  11.472  18.766  0.00  0.00    +0.000 NA
ATOM     15  C   UNL     1       1.029  10.972  20.163  0.00  0.00    +0.000 C 
ATOM     16  C   UNL     1       0.725   9.452  20.258  0.00  0.00    +0.000 C 
ATOM     17  N   UNL     1       1.757   8.739  19.486  0.00  0.00    +0.000 N 
ATOM     18  C   UNL     1       1.735   9.134  18.064  0.00  0.00    +0.000 C 
ATOM     19  C   UNL     1       2.065  10.638  17.985  0.00  0.00    +0.000 C 
ENDBRANCH   1  17
BRANCH  12  20
ATOM     20  N   UNL     1       6.134   5.776  18.798  0.00  0.00    +0.000 N 
ATOM     21  C   UNL     1       6.276   6.893  17.904  0.00  0.00    +0.000 C 
ATOM     22  C   UNL     1       6.905   5.579  17.516  0.00  0.00    +0.000 C 
BRANCH  22  23
ATOM     23  C   UNL     1       6.437   4.962  16.198  0.00  0.00    +0.000 A 
ATOM     24  C   UNL     1       5.073   4.655  15.969  0.00  0.00    +0.000 A 
ATOM     25  C   UNL     1       4.613   4.186  14.734  0.00  0.00    +0.000 A 
ATOM     26  C   UNL     1       5.503   4.028  13.686  0.00  0.00    +0.000 A 
ATOM     27  F   UNL     1       5.063   3.596  12.498  0.00  0.00    +0.000 F 
ATOM     28  C   UNL     1       6.843   4.341  13.854  0.00  0.00    +0.000 A 
ATOM     29  C   UNL     1       7.298   4.812  15.094  0.00  0.00    +0.000 A 
ENDBRANCH  22  23
ENDBRANCH  12  20
BRANCH  10  30
ATOM     30  C   UNL     1       4.874   1.424  19.926  0.00  0.00    +0.000 C 
ATOM     31  O   UNL     1       5.499   1.049  20.907  0.00  0.00    +0.000 OA
BRANCH  30  32
ATOM     32  O   UNL     1       4.553   0.590  18.914  0.00  0.00    +0.000 OA
ATOM     33  H   UNL     1       4.419  -0.349  19.190  0.00  0.00    +0.000 HD
ENDBRANCH  30  32
ENDBRANCH  10  30
TORSDOF 5
ENDMDL
MODEL 2
REMARK VINA RESULT:      -7.1      0.688      1.094
REMARK  Name = 
REMARK  6 active torsions:
REMARK  status: ('A' for Active; 'I' for Inactive)
REMARK    1  A    between atoms: C_1  and  N_2
REMARK    2  A    between atoms: N_5  and  C_6
REMARK    3  A    between atoms: C_15  and  C_16
REMARK    4  A    between atoms: C_16  and  O_18
REMARK    5  A    between atoms: N_20  and  N_21
REMARK    6  A    between atoms: C_23  and  C_24
REMARK                            x       y       z     vdW  Elec       q    Type
REMARK                         _______ _______ _______ _____ _____    ______ ____
ROOT
ATOM      1  C   UNL     1       1.858   7.425  19.905  0.00  0.00    +0.000 A 
ATOM      2  C   UNL     1       3.089   6.970  19.365  0.00  0.00    +0.000 A 
ATOM      3  C   UNL     1       3.541   5.646  19.470  0.00  0.00    +0.000 A 
ATOM      4  C   UNL     1       2.698   4.773  20.193  0.00  0.00    +0.000 A 
ATOM      5  C   UNL     1       1.501   5.200  20.787  0.00  0.00    +0.000 A 
ATOM      6  C   UNL     1       1.092   6.513  20.636  0.00  0.00    +0.000 A 
ATOM      7  F   UNL     1      -0.083   6.872  21.176  0.00  0.00    +0.000 F 
ATOM      8  C   UNL     1       3.068   3.357  20.366  0.00  0.00    +0.000 A 
ATOM      9  O   UNL     1       2.388   2.586  21.039  0.00  0.00    +0.000 OA
ATOM     10  C   UNL     1       4.298   2.885  19.727  0.00  0.00    +0.000 A 
ATOM     11  C   UNL     1       5.020   3.789  19.057  0.00  0.00    +0.000 A 
ATOM     12  N   UNL     1       4.740   5.145  18.830  0.00  0.00    +0.000 N 
ENDROOT
BRANCH   1  17
ATOM     13  C   UNL     1      -0.287  12.504  19.147  0.00  0.00    +0.000 C 
ATOM     14  N   UNL     1       0.779  11.541  19.411  0.00  0.00    +0.000 NA
ATOM     15  C   UNL     1       0.968  10.644  18.240  0.00  0.00    +0.000 C 
ATOM     16  C   UNL     1       1.970   9.488  18.501  0.00  0.00    +0.000 C 
ATOM     17  N   UNL     1       1.505   8.750  19.688  0.00  0.00    +0.000 N 
ATOM     18  C   UNL     1       1.468   9.618  20.881  0.00  0.00    +0.000 C 
ATOM     19  C   UNL     1       0.450  10.745  20.617  0.00  0.00    +0.000 C 
ENDBRANCH   1  17
BRANCH  12  20
ATOM     20  N   UNL     1       5.938   5.916  18.837  0.00  0.00    +0.000 N 
ATOM     21  C   UNL     1       6.045   7.052  17.963  0.00  0.00    +0.000 C 
ATOM     22  C   UNL     1       6.701   5.762  17.544  0.00  0.00    +0.000 C 
BRANCH  22  23
ATOM     23  C   UNL     1       6.234   5.158  16.220  0.00  0.00    +0.000 A 
ATOM     24  C   UNL     1       5.378   5.870  15.343  0.00  0.00    +0.000 A 
ATOM     25  C   UNL     1       5.025   5.376  14.083  0.00  0.00    +0.000 A 
ATOM     26  C   UNL     1       5.533   4.161  13.657  0.00  0.00    +0.000 A 
ATOM     27  F   UNL     1       5.210   3.694  12.444  0.00  0.00    +0.000 F 
ATOM     28  C   UNL     1       6.395   3.441  14.468  0.00  0.00    +0.000 A 
ATOM     29  C   UNL     1       6.748   3.942  15.729  0.00  0.00    +0.000 A 
ENDBRANCH  22  23
ENDBRANCH  12  20
BRANCH  10  30
ATOM     30  C   UNL     1       4.801   1.502  19.852  0.00  0.00    +0.000 C 
ATOM     31  O   UNL     1       5.467   1.118  20.802  0.00  0.00    +0.000 OA
BRANCH  30  32
ATOM     32  O   UNL     1       4.463   0.686  18.831  0.00  0.00    +0.000 OA
ATOM     33  H   UNL     1       5.170   0.046  18.574  0.00  0.00    +0.000 HD
ENDBRANCH  30  32
ENDBRANCH  10  30
TORSDOF 5
ENDMDL
MODEL 3
REMARK VINA RESULT:      -7.0      9.044     13.099
REMARK  Name = 
REMARK  6 active torsions:
REMARK  status: ('A' for Active; 'I' for Inactive)
REMARK    1  A    between atoms: C_1  and  N_2
REMARK    2  A    between atoms: N_5  and  C_6
REMARK    3  A    between atoms: C_15  and  C_16
REMARK    4  A    between atoms: C_16  and  O_18
REMARK    5  A    between atoms: N_20  and  N_21
REMARK    6  A    between atoms: C_23  and  C_24
REMARK                            x       y       z     vdW  Elec       q    Type
REMARK                         _______ _______ _______ _____ _____    ______ ____
ROOT
ATOM      1  C   UNL     1      -2.931  11.977  19.095  0.00  0.00    +0.000 A 
ATOM      2  C   UNL     1      -4.089  12.444  19.770  0.00  0.00    +0.000 A 
ATOM      3  C   UNL     1      -4.051  13.126  20.995  0.00  0.00    +0.000 A 
ATOM      4  C   UNL     1      -2.765  13.297  21.555  0.00  0.00    +0.000 A 
ATOM      5  C   UNL     1      -1.604  12.801  20.944  0.00  0.00    +0.000 A 
ATOM      6  C   UNL     1      -1.696  12.153  19.725  0.00  0.00    +0.000 A 
ATOM      7  F   UNL     1      -0.559  11.736  19.147  0.00  0.00    +0.000 F 
ATOM      8  C   UNL     1      -2.601  14.003  22.838  0.00  0.00    +0.000 A 
ATOM      9  O   UNL     1      -1.505  14.116  23.381  0.00  0.00    +0.000 OA
ATOM     10  C   UNL     1      -3.798  14.555  23.476  0.00  0.00    +0.000 A 
ATOM     11  C   UNL     1      -4.966  14.347  22.860  0.00  0.00    +0.000 A 
ATOM     12  N   UNL     1      -5.214  13.704  21.638  0.00  0.00    +0.000 N 
ENDROOT
BRANCH   1  17
ATOM     13  C   UNL     1      -2.924   9.788  13.977  0.00  0.00    +0.000 C 
ATOM     14  N   UNL     1      -3.377   9.928  15.359  0.00  0.00    +0.000 NA
ATOM     15  C   UNL     1      -3.964  11.277  15.578  0.00  0.00    +0.000 C 
ATOM     16  C   UNL     1      -4.321  11.564  17.061  0.00  0.00    +0.000 C 
ATOM     17  N   UNL     1      -3.103  11.359  17.863  0.00  0.00    +0.000 N 
ATOM     18  C   UNL     1      -2.616   9.969  17.758  0.00  0.00    +0.000 C 
ATOM     19  C   UNL     1      -2.242   9.708  16.285  0.00  0.00    +0.000 C 
ENDBRANCH   1  17
BRANCH  12  20
ATOM     20  N   UNL     1      -6.443  12.986  21.685  0.00  0.00    +0.000 N 
ATOM     21  C   UNL     1      -6.813  12.157  20.569  0.00  0.00    +0.000 C 
ATOM     22  C   UNL     1      -7.435  13.525  20.683  0.00  0.00    +0.000 C 
BRANCH  22  23
ATOM     23  C   UNL     1      -7.196  14.481  19.514  0.00  0.00    +0.000 A 
ATOM     24  C   UNL     1      -7.063  14.007  18.186  0.00  0.00    +0.000 A 
ATOM     25  C   UNL     1      -6.947  14.873  17.094  0.00  0.00    +0.000 A 
ATOM     26  C   UNL     1      -6.979  16.242  17.299  0.00  0.00    +0.000 A 
ATOM     27  F   UNL     1      -6.886  17.074  16.254  0.00  0.00    +0.000 F 
ATOM     28  C   UNL     1      -7.135  16.754  18.578  0.00  0.00    +0.000 A 
ATOM     29  C   UNL     1      -7.252  15.880  19.668  0.00  0.00    +0.000 A 
ENDBRANCH  22  23
ENDBRANCH  12  20
BRANCH  10  30
ATOM     30  C   UNL     1      -3.778  15.250  24.779  0.00  0.00    +0.000 C 
ATOM     31  O   UNL     1      -4.208  16.383  24.937  0.00  0.00    +0.000 OA
BRANCH  30  32
ATOM     32  O   UNL     1      -3.245  14.533  25.791  0.00  0.00    +0.000 OA
ATOM     33  H   UNL     1      -2.516  14.994  26.274  0.00  0.00    +0.000 HD
ENDBRANCH  30  32
ENDBRANCH  10  30
TORSDOF 5
ENDMDL
MODEL 4
REMARK VINA RESULT:      -6.9      8.079     10.263
REMARK  Name = 
REMARK  6 active torsions:
REMARK  status: ('A' for Active; 'I' for Inactive)
REMARK    1  A    between atoms: C_1  and  N_2
REMARK    2  A    between atoms: N_5  and  C_6
REMARK    3  A    between atoms: C_15  and  C_16
REMARK    4  A    between atoms: C_16  and  O_18
REMARK    5  A    between atoms: N_20  and  N_21
REMARK    6  A    between atoms: C_23  and  C_24
REMARK                            x       y       z     vdW  Elec       q    Type
REMARK                         _______ _______ _______ _____ _____    ______ ____
ROOT
ATOM      1  C   UNL     1      -3.995  13.101  20.917  0.00  0.00    +0.000 A 
ATOM      2  C   UNL     1      -2.923  12.385  20.323  0.00  0.00    +0.000 A 
ATOM      3  C   UNL     1      -2.977  11.833  19.035  0.00  0.00    +0.000 A 
ATOM      4  C   UNL     1      -4.203  12.002  18.354  0.00  0.00    +0.000 A 
ATOM      5  C   UNL     1      -5.302  12.657  18.929  0.00  0.00    +0.000 A 
ATOM      6  C   UNL     1      -5.188  13.201  20.197  0.00  0.00    +0.000 A 
ATOM      7  F   UNL     1      -6.243  13.863  20.695  0.00  0.00    +0.000 F 
ATOM      8  C   UNL     1      -4.376  11.469  16.991  0.00  0.00    +0.000 A 
ATOM      9  O   UNL     1      -5.448  11.546  16.395  0.00  0.00    +0.000 OA
ATOM     10  C   UNL     1      -3.231  10.808  16.361  0.00  0.00    +0.000 A 
ATOM     11  C   UNL     1      -2.113  10.709  17.087  0.00  0.00    +0.000 A 
ATOM     12  N   UNL     1      -1.854  11.196  18.377  0.00  0.00    +0.000 N 
ENDROOT
BRANCH   1  17
ATOM     13  C   UNL     1      -2.432  15.196  25.831  0.00  0.00    +0.000 C 
ATOM     14  N   UNL     1      -3.368  14.922  24.743  0.00  0.00    +0.000 NA
ATOM     15  C   UNL     1      -3.593  13.459  24.610  0.00  0.00    +0.000 C 
ATOM     16  C   UNL     1      -4.448  13.074  23.373  0.00  0.00    +0.000 C 
ATOM     17  N   UNL     1      -3.793  13.640  22.181  0.00  0.00    +0.000 N 
ATOM     18  C   UNL     1      -3.714  15.111  22.258  0.00  0.00    +0.000 C 
ATOM     19  C   UNL     1      -2.841  15.477  23.474  0.00  0.00    +0.000 C 
ENDBRANCH   1  17
BRANCH  12  20
ATOM     20  N   UNL     1      -1.009  10.303  19.095  0.00  0.00    +0.000 N 
ATOM     21  C   UNL     1      -0.538  10.682  20.400  0.00  0.00    +0.000 C 
ATOM     22  C   UNL     1       0.390  10.853  19.225  0.00  0.00    +0.000 C 
BRANCH  22  23
ATOM     23  C   UNL     1       0.894  12.270  18.955  0.00  0.00    +0.000 A 
ATOM     24  C   UNL     1       0.324  13.394  19.603  0.00  0.00    +0.000 A 
ATOM     25  C   UNL     1       0.840  14.685  19.446  0.00  0.00    +0.000 A 
ATOM     26  C   UNL     1       1.953  14.885  18.650  0.00  0.00    +0.000 A 
ATOM     27  F   UNL     1       2.459  16.117  18.511  0.00  0.00    +0.000 F 
ATOM     28  C   UNL     1       2.562  13.813  18.017  0.00  0.00    +0.000 A 
ATOM     29  C   UNL     1       2.042  12.521  18.179  0.00  0.00    +0.000 A 
ENDBRANCH  22  23
ENDBRANCH  12  20
BRANCH  10  30
ATOM     30  C   UNL     1      -3.282  10.199  15.018  0.00  0.00    +0.000 C 
ATOM     31  O   UNL     1      -2.288  10.012  14.331  0.00  0.00    +0.000 OA
BRANCH  30  32
ATOM     32  O   UNL     1      -4.520   9.857  14.602  0.00  0.00    +0.000 OA
ATOM     33  H   UNL     1      -4.758   8.913  14.772  0.00  0.00    +0.000 HD
ENDBRANCH  30  32
ENDBRANCH  10  30
TORSDOF 5
ENDMDL
MODEL 5
REMARK VINA RESULT:      -6.9      7.705     10.416
REMARK  Name = 
REMARK  6 active torsions:
REMARK  status: ('A' for Active; 'I' for Inactive)
REMARK    1  A    between atoms: C_1  and  N_2
REMARK    2  A    between atoms: N_5  and  C_6
REMARK    3  A    between atoms: C_15  and  C_16
REMARK    4  A    between atoms: C_16  and  O_18
REMARK    5  A    between atoms: N_20  and  N_21
REMARK    6  A    between atoms: C_23  and  C_24
REMARK                            x       y       z     vdW  Elec       q    Type
REMARK                         _______ _______ _______ _____ _____    ______ ____
ROOT
ATOM      1  C   UNL     1      -3.859  11.933  19.078  0.00  0.00    +0.000 A 
ATOM      2  C   UNL     1      -2.653  12.332  19.712  0.00  0.00    +0.000 A 
ATOM      3  C   UNL     1      -2.601  12.900  20.993  0.00  0.00    +0.000 A 
ATOM      4  C   UNL     1      -3.851  13.093  21.623  0.00  0.00    +0.000 A 
ATOM      5  C   UNL     1      -5.066  12.761  21.006  0.00  0.00    +0.000 A 
ATOM      6  C   UNL     1      -5.059  12.184  19.748  0.00  0.00    +0.000 A 
ATOM      7  F   UNL     1      -6.238  11.834  19.210  0.00  0.00    +0.000 F 
ATOM      8  C   UNL     1      -3.920  13.678  22.973  0.00  0.00    +0.000 A 
ATOM      9  O   UNL     1      -4.993  13.914  23.525  0.00  0.00    +0.000 OA
ATOM     10  C   UNL     1      -2.661  14.003  23.647  0.00  0.00    +0.000 A 
ATOM     11  C   UNL     1      -1.532  13.773  22.968  0.00  0.00    +0.000 A 
ATOM     12  N   UNL     1      -1.371  13.209  21.694  0.00  0.00    +0.000 N 
ENDROOT
BRANCH   1  17
ATOM     13  C   UNL     1      -2.770   9.822  14.044  0.00  0.00    +0.000 C 
ATOM     14  N   UNL     1      -3.512   9.951  15.296  0.00  0.00    +0.000 NA
ATOM     15  C   UNL     1      -4.109  11.308  15.407  0.00  0.00    +0.000 C 
ATOM     16  C   UNL     1      -4.776  11.580  16.782  0.00  0.00    +0.000 C 
ATOM     17  N   UNL     1      -3.767  11.337  17.827  0.00  0.00    +0.000 N 
ATOM     18  C   UNL     1      -3.294   9.940  17.803  0.00  0.00    +0.000 C 
ATOM     19  C   UNL     1      -2.611   9.693  16.444  0.00  0.00    +0.000 C 
ENDBRANCH   1  17
BRANCH  12  20
ATOM     20  N   UNL     1      -0.282  13.818  21.006  0.00  0.00    +0.000 N 
ATOM     21  C   UNL     1      -0.026  13.453  19.639  0.00  0.00    +0.000 C 
ATOM     22  C   UNL     1       0.815  12.821  20.719  0.00  0.00    +0.000 C 
BRANCH  22  23
ATOM     23  C   UNL     1       0.774  11.296  20.810  0.00  0.00    +0.000 A 
ATOM     24  C   UNL     1       0.996  10.482  19.672  0.00  0.00    +0.000 A 
ATOM     25  C   UNL     1       1.064   9.087  19.756  0.00  0.00    +0.000 A 
ATOM     26  C   UNL     1       0.931   8.468  20.987  0.00  0.00    +0.000 A 
ATOM     27  F   UNL     1       1.013   7.135  21.074  0.00  0.00    +0.000 F 
ATOM     28  C   UNL     1       0.739   9.224  22.132  0.00  0.00    +0.000 A 
ATOM     29  C   UNL     1       0.674  10.622  22.042  0.00  0.00    +0.000 A 
ENDBRANCH  22  23
ENDBRANCH  12  20
BRANCH  10  30
ATOM     30  C   UNL     1      -2.591  14.627  24.983  0.00  0.00    +0.000 C 
ATOM     31  O   UNL     1      -1.764  15.476  25.281  0.00  0.00    +0.000 OA
BRANCH  30  32
ATOM     32  O   UNL     1      -3.519  14.187  25.859  0.00  0.00    +0.000 OA
ATOM     33  H   UNL     1      -3.493  14.637  26.738  0.00  0.00    +0.000 HD
ENDBRANCH  30  32
ENDBRANCH  10  30
TORSDOF 5
ENDMDL
MODEL 6
REMARK VINA RESULT:      -6.8      4.932      8.097
REMARK  Name = 
REMARK  6 active torsions:
REMARK  status: ('A' for Active; 'I' for Inactive)
REMARK    1  A    between atoms: C_1  and  N_2
REMARK    2  A    between atoms: N_5  and  C_6
REMARK    3  A    between atoms: C_15  and  C_16
REMARK    4  A    between atoms: C_16  and  O_18
REMARK    5  A    between atoms: N_20  and  N_21
REMARK    6  A    between atoms: C_23  and  C_24
REMARK                            x       y       z     vdW  Elec       q    Type
REMARK                         _______ _______ _______ _____ _____    ______ ____
ROOT
ATOM      1  C   UNL     1      -0.556  11.032  22.375  0.00  0.00    +0.000 A 
ATOM      2  C   UNL     1      -0.249  11.206  21.001  0.00  0.00    +0.000 A 
ATOM      3  C   UNL     1       0.466  10.269  20.241  0.00  0.00    +0.000 A 
ATOM      4  C   UNL     1       0.908   9.127  20.945  0.00  0.00    +0.000 A 
ATOM      5  C   UNL     1       0.670   8.946  22.316  0.00  0.00    +0.000 A 
ATOM      6  C   UNL     1      -0.059   9.893  23.014  0.00  0.00    +0.000 A 
ATOM      7  F   UNL     1      -0.309   9.662  24.312  0.00  0.00    +0.000 F 
ATOM      8  C   UNL     1       1.666   8.072  20.249  0.00  0.00    +0.000 A 
ATOM      9  O   UNL     1       2.116   7.095  20.845  0.00  0.00    +0.000 OA
ATOM     10  C   UNL     1       1.898   8.227  18.812  0.00  0.00    +0.000 A 
ATOM     11  C   UNL     1       1.430   9.340  18.237  0.00  0.00    +0.000 A 
ATOM     12  N   UNL     1       0.691  10.383  18.814  0.00  0.00    +0.000 N 
ENDROOT
BRANCH   1  17
ATOM     13  C   UNL     1      -3.103  14.893  25.472  0.00  0.00    +0.000 C 
ATOM     14  N   UNL     1      -2.785  14.183  24.236  0.00  0.00    +0.000 NA
ATOM     15  C   UNL     1      -3.226  12.765  24.324  0.00  0.00    +0.000 C 
ATOM     16  C   UNL     1      -2.779  11.901  23.115  0.00  0.00    +0.000 C 
ATOM     17  N   UNL     1      -1.315  12.014  23.000  0.00  0.00    +0.000 N 
ATOM     18  C   UNL     1      -0.900  13.410  22.758  0.00  0.00    +0.000 C 
ATOM     19  C   UNL     1      -1.327  14.250  23.978  0.00  0.00    +0.000 C 
ENDBRANCH   1  17
BRANCH  12  20
ATOM     20  N   UNL     1       1.051  11.635  18.238  0.00  0.00    +0.000 N 
ATOM     21  C   UNL     1       0.561  12.847  18.837  0.00  0.00    +0.000 C 
ATOM     22  C   UNL     1      -0.142  12.318  17.614  0.00  0.00    +0.000 C 
BRANCH  22  23
ATOM     23  C   UNL     1      -1.627  11.990  17.770  0.00  0.00    +0.000 A 
ATOM     24  C   UNL     1      -2.294  11.129  16.864  0.00  0.00    +0.000 A 
ATOM     25  C   UNL     1      -3.623  10.737  17.051  0.00  0.00    +0.000 A 
ATOM     26  C   UNL     1      -4.320  11.184  18.161  0.00  0.00    +0.000 A 
ATOM     27  F   UNL     1      -5.588  10.798  18.351  0.00  0.00    +0.000 F 
ATOM     28  C   UNL     1      -3.702  12.007  19.089  0.00  0.00    +0.000 A 
ATOM     29  C   UNL     1      -2.368  12.394  18.898  0.00  0.00    +0.000 A 
ENDBRANCH  22  23
ENDBRANCH  12  20
BRANCH  10  30
ATOM     30  C   UNL     1       2.673   7.263  18.005  0.00  0.00    +0.000 C 
ATOM     31  O   UNL     1       3.663   7.576  17.361  0.00  0.00    +0.000 OA
BRANCH  30  32
ATOM     32  O   UNL     1       2.203   5.998  18.035  0.00  0.00    +0.000 OA
ATOM     33  H   UNL     1       2.577   5.410  17.334  0.00  0.00    +0.000 HD
ENDBRANCH  30  32
ENDBRANCH  10  30
TORSDOF 5
ENDMDL
MODEL 7
REMARK VINA RESULT:      -6.8      7.902     10.100
REMARK  Name = 
REMARK  6 active torsions:
REMARK  status: ('A' for Active; 'I' for Inactive)
REMARK    1  A    between atoms: C_1  and  N_2
REMARK    2  A    between atoms: N_5  and  C_6
REMARK    3  A    between atoms: C_15  and  C_16
REMARK    4  A    between atoms: C_16  and  O_18
REMARK    5  A    between atoms: N_20  and  N_21
REMARK    6  A    between atoms: C_23  and  C_24
REMARK                            x       y       z     vdW  Elec       q    Type
REMARK                         _______ _______ _______ _____ _____    ______ ____
ROOT
ATOM      1  C   UNL     1      -2.717  13.584  21.804  0.00  0.00    +0.000 A 
ATOM      2  C   UNL     1      -1.778  12.795  21.089  0.00  0.00    +0.000 A 
ATOM      3  C   UNL     1      -2.052  12.192  19.853  0.00  0.00    +0.000 A 
ATOM      4  C   UNL     1      -3.362  12.388  19.360  0.00  0.00    +0.000 A 
ATOM      5  C   UNL     1      -4.332  13.116  20.064  0.00  0.00    +0.000 A 
ATOM      6  C   UNL     1      -4.002  13.707  21.270  0.00  0.00    +0.000 A 
ATOM      7  F   UNL     1      -4.942  14.437  21.891  0.00  0.00    +0.000 F 
ATOM      8  C   UNL     1      -3.764  11.805  18.068  0.00  0.00    +0.000 A 
ATOM      9  O   UNL     1      -4.911  11.905  17.639  0.00  0.00    +0.000 OA
ATOM     10  C   UNL     1      -2.756  11.067  17.303  0.00  0.00    +0.000 A 
ATOM     11  C   UNL     1      -1.543  10.947  17.853  0.00  0.00    +0.000 A 
ATOM     12  N   UNL     1      -1.070  11.477  19.063  0.00  0.00    +0.000 N 
ENDROOT
BRANCH   1  17
ATOM     13  C   UNL     1      -1.557  16.483  26.412  0.00  0.00    +0.000 C 
ATOM     14  N   UNL     1      -1.570  15.296  25.560  0.00  0.00    +0.000 NA
ATOM     15  C   UNL     1      -0.777  15.537  24.325  0.00  0.00    +0.000 C 
ATOM     16  C   UNL     1      -0.875  14.384  23.291  0.00  0.00    +0.000 C 
ATOM     17  N   UNL     1      -2.302  14.166  22.995  0.00  0.00    +0.000 N 
ATOM     18  C   UNL     1      -3.050  13.777  24.206  0.00  0.00    +0.000 C 
ATOM     19  C   UNL     1      -2.966  14.942  25.211  0.00  0.00    +0.000 C 
ENDBRANCH   1  17
BRANCH  12  20
ATOM     20  N   UNL     1      -0.159  10.578  19.687  0.00  0.00    +0.000 N 
ATOM     21  C   UNL     1       0.412  10.930  20.959  0.00  0.00    +0.000 C 
ATOM     22  C   UNL     1       1.240  11.144  19.718  0.00  0.00    +0.000 C 
BRANCH  22  23
ATOM     23  C   UNL     1       1.703  12.575  19.447  0.00  0.00    +0.000 A 
ATOM     24  C   UNL     1       1.718  13.554  20.470  0.00  0.00    +0.000 A 
ATOM     25  C   UNL     1       2.235  14.838  20.265  0.00  0.00    +0.000 A 
ATOM     26  C   UNL     1       2.768  15.173  19.033  0.00  0.00    +0.000 A 
ATOM     27  F   UNL     1       3.279  16.395  18.838  0.00  0.00    +0.000 F 
ATOM     28  C   UNL     1       2.800  14.240  18.008  0.00  0.00    +0.000 A 
ATOM     29  C   UNL     1       2.283  12.954  18.220  0.00  0.00    +0.000 A 
ENDBRANCH  22  23
ENDBRANCH  12  20
BRANCH  10  30
ATOM     30  C   UNL     1      -3.038  10.403  16.015  0.00  0.00    +0.000 C 
ATOM     31  O   UNL     1      -2.977   9.193  15.861  0.00  0.00    +0.000 OA
BRANCH  30  32
ATOM     32  O   UNL     1      -3.374  11.242  15.012  0.00  0.00    +0.000 OA
ATOM     33  H   UNL     1      -4.040  11.927  15.263  0.00  0.00    +0.000 HD
ENDBRANCH  30  32
ENDBRANCH  10  30
TORSDOF 5
ENDMDL
MODEL 8
REMARK VINA RESULT:      -6.8      8.153     10.925
REMARK  Name = 
REMARK  6 active torsions:
REMARK  status: ('A' for Active; 'I' for Inactive)
REMARK    1  A    between atoms: C_1  and  N_2
REMARK    2  A    between atoms: N_5  and  C_6
REMARK    3  A    between atoms: C_15  and  C_16
REMARK    4  A    between atoms: C_16  and  O_18
REMARK    5  A    between atoms: N_20  and  N_21
REMARK    6  A    between atoms: C_23  and  C_24
REMARK                            x       y       z     vdW  Elec       q    Type
REMARK                         _______ _______ _______ _____ _____    ______ ____
ROOT
ATOM      1  C   UNL     1      -4.187  12.035  19.084  0.00  0.00    +0.000 A 
ATOM      2  C   UNL     1      -3.045  12.518  19.774  0.00  0.00    +0.000 A 
ATOM      3  C   UNL     1      -3.104  13.139  21.031  0.00  0.00    +0.000 A 
ATOM      4  C   UNL     1      -4.400  13.295  21.571  0.00  0.00    +0.000 A 
ATOM      5  C   UNL     1      -5.555  12.878  20.893  0.00  0.00    +0.000 A 
ATOM      6  C   UNL     1      -5.439  12.252  19.664  0.00  0.00    +0.000 A 
ATOM      7  F   UNL     1      -6.562  11.823  19.068  0.00  0.00    +0.000 F 
ATOM      8  C   UNL     1      -4.586  13.930  22.888  0.00  0.00    +0.000 A 
ATOM      9  O   UNL     1      -5.702  14.134  23.359  0.00  0.00    +0.000 OA
ATOM     10  C   UNL     1      -3.390  14.343  23.625  0.00  0.00    +0.000 A 
ATOM     11  C   UNL     1      -2.209  14.143  23.030  0.00  0.00    +0.000 A 
ATOM     12  N   UNL     1      -1.939  13.537  21.794  0.00  0.00    +0.000 N 
ENDROOT
BRANCH   1  17
ATOM     13  C   UNL     1      -2.668   9.768  14.232  0.00  0.00    +0.000 C 
ATOM     14  N   UNL     1      -3.503   9.920  15.421  0.00  0.00    +0.000 NA
ATOM     15  C   UNL     1      -4.147  11.261  15.432  0.00  0.00    +0.000 C 
ATOM     16  C   UNL     1      -4.922  11.564  16.743  0.00  0.00    +0.000 C 
ATOM     17  N   UNL     1      -3.986  11.394  17.867  0.00  0.00    +0.000 N 
ATOM     18  C   UNL     1      -3.470  10.013  17.935  0.00  0.00    +0.000 C 
ATOM     19  C   UNL     1      -2.682   9.737  16.640  0.00  0.00    +0.000 C 
ENDBRANCH   1  17
BRANCH  12  20
ATOM     20  N   UNL     1      -0.837  14.171  21.151  0.00  0.00    +0.000 N 
ATOM     21  C   UNL     1      -0.477  13.767  19.819  0.00  0.00    +0.000 C 
ATOM     22  C   UNL     1       0.320  13.218  20.974  0.00  0.00    +0.000 C 
BRANCH  22  23
ATOM     23  C   UNL     1       0.343  11.697  21.124  0.00  0.00    +0.000 A 
ATOM     24  C   UNL     1      -0.167  11.060  22.282  0.00  0.00    +0.000 A 
ATOM     25  C   UNL     1      -0.248   9.668  22.391  0.00  0.00    +0.000 A 
ATOM     26  C   UNL     1       0.165   8.873  21.336  0.00  0.00    +0.000 A 
ATOM     27  F   UNL     1       0.074   7.540  21.431  0.00  0.00    +0.000 F 
ATOM     28  C   UNL     1       0.647   9.450  20.172  0.00  0.00    +0.000 A 
ATOM     29  C   UNL     1       0.724  10.847  20.067  0.00  0.00    +0.000 A 
ENDBRANCH  22  23
ENDBRANCH  12  20
BRANCH  10  30
ATOM     30  C   UNL     1      -3.437  15.023  24.935  0.00  0.00    +0.000 C 
ATOM     31  O   UNL     1      -2.637  14.801  25.831  0.00  0.00    +0.000 OA
BRANCH  30  32
ATOM     32  O   UNL     1      -4.438  15.919  25.068  0.00  0.00    +0.000 OA
ATOM     33  H   UNL     1      -4.689  16.110  26.005  0.00  0.00    +0.000 HD
ENDBRANCH  30  32
ENDBRANCH  10  30
TORSDOF 5
ENDMDL
MODEL 9
REMARK VINA RESULT:      -6.7      6.963     10.368
REMARK  Name = 
REMARK  6 active torsions:
REMARK  status: ('A' for Active; 'I' for Inactive)
REMARK    1  A    between atoms: C_1  and  N_2
REMARK    2  A    between atoms: N_5  and  C_6
REMARK    3  A    between atoms: C_15  and  C_16
REMARK    4  A    between atoms: C_16  and  O_18
REMARK    5  A    between atoms: N_20  and  N_21
REMARK    6  A    between atoms: C_23  and  C_24
REMARK                            x       y       z     vdW  Elec       q    Type
REMARK                         _______ _______ _______ _____ _____    ______ ____
ROOT
ATOM      1  C   UNL     1      -2.402  14.155  21.969  0.00  0.00    +0.000 A 
ATOM      2  C   UNL     1      -1.832  13.552  20.818  0.00  0.00    +0.000 A 
ATOM      3  C   UNL     1      -0.679  14.032  20.180  0.00  0.00    +0.000 A 
ATOM      4  C   UNL     1      -0.120  15.203  20.739  0.00  0.00    +0.000 A 
ATOM      5  C   UNL     1      -0.686  15.857  21.843  0.00  0.00    +0.000 A 
ATOM      6  C   UNL     1      -1.813  15.328  22.447  0.00  0.00    +0.000 A 
ATOM      7  F   UNL     1      -2.297  15.954  23.532  0.00  0.00    +0.000 F 
ATOM      8  C   UNL     1       1.095  15.798  20.155  0.00  0.00    +0.000 A 
ATOM      9  O   UNL     1       1.573  16.848  20.579  0.00  0.00    +0.000 OA
ATOM     10  C   UNL     1       1.719  15.113  19.021  0.00  0.00    +0.000 A 
ATOM     11  C   UNL     1       1.116  14.007  18.573  0.00  0.00    +0.000 A 
ATOM     12  N   UNL     1      -0.027  13.364  19.072  0.00  0.00    +0.000 N 
ENDROOT
BRANCH   1  17
ATOM     13  C   UNL     1      -7.201  12.431  24.200  0.00  0.00    +0.000 C 
ATOM     14  N   UNL     1      -5.905  12.260  23.548  0.00  0.00    +0.000 NA
ATOM     15  C   UNL     1      -4.811  12.731  24.439  0.00  0.00    +0.000 C 
ATOM     16  C   UNL     1      -3.417  12.735  23.757  0.00  0.00    +0.000 C 
ATOM     17  N   UNL     1      -3.517  13.550  22.534  0.00  0.00    +0.000 N 
ATOM     18  C   UNL     1      -4.500  12.984  21.589  0.00  0.00    +0.000 C 
ATOM     19  C   UNL     1      -5.882  13.010  22.270  0.00  0.00    +0.000 C 
ENDBRANCH   1  17
BRANCH  12  20
ATOM     20  N   UNL     1      -0.796  12.806  18.011  0.00  0.00    +0.000 N 
ATOM     21  C   UNL     1      -1.906  11.948  18.328  0.00  0.00    +0.000 C 
ATOM     22  C   UNL     1      -0.603  11.312  17.917  0.00  0.00    +0.000 C 
BRANCH  22  23
ATOM     23  C   UNL     1       0.040  10.361  18.926  0.00  0.00    +0.000 A 
ATOM     24  C   UNL     1      -0.550  10.116  20.191  0.00  0.00    +0.000 A 
ATOM     25  C   UNL     1      -0.032   9.172  21.084  0.00  0.00    +0.000 A 
ATOM     26  C   UNL     1       1.083   8.434  20.729  0.00  0.00    +0.000 A 
ATOM     27  F   UNL     1       1.572   7.518  21.575  0.00  0.00    +0.000 F 
ATOM     28  C   UNL     1       1.680   8.619  19.492  0.00  0.00    +0.000 A 
ATOM     29  C   UNL     1       1.154   9.565  18.600  0.00  0.00    +0.000 A 
ENDBRANCH  22  23
ENDBRANCH  12  20
BRANCH  10  30
ATOM     30  C   UNL     1       2.915  15.622  18.321  0.00  0.00    +0.000 C 
ATOM     31  O   UNL     1       3.836  14.903  17.964  0.00  0.00    +0.000 OA
BRANCH  30  32
ATOM     32  O   UNL     1       2.914  16.954  18.102  0.00  0.00    +0.000 OA
ATOM     33  H   UNL     1       2.668  17.212  17.180  0.00  0.00    +0.000 HD
ENDBRANCH  30  32
ENDBRANCH  10  30
TORSDOF 5
ENDMDL
