MODEL 1
REMARK VINA RESULT:      -8.1      0.000      0.000
REMARK  Name = 
REMARK  2 active torsions:
REMARK  status: ('A' for Active; 'I' for Inactive)
REMARK    1  A    between atoms: C_1  and  C_2
REMARK    2  A    between atoms: N_15  and  C_16
REMARK                            x       y       z     vdW  Elec       q    Type
REMARK                         _______ _______ _______ _____ _____    ______ ____
ROOT
ATOM      1  C   UNL     1      -1.360  15.284  23.941  0.00  0.00    +0.000 C 
ATOM      2  C   UNL     1      -0.873  14.273  22.945  0.00  0.00    +0.000 A 
ATOM      3  C   UNL     1      -0.146  14.733  21.841  0.00  0.00    +0.000 A 
ATOM      4  C   UNL     1       0.152  13.875  20.795  0.00  0.00    +0.000 A 
ATOM      5  C   UNL     1      -0.132  12.520  20.909  0.00  0.00    +0.000 A 
ATOM      6  N   UNL     1       0.218  11.662  19.871  0.00  0.00    +0.000 N 
ATOM      7  C   UNL     1       0.537  10.329  20.104  0.00  0.00    +0.000 A 
ATOM      8  C   UNL     1       0.242   9.731  21.330  0.00  0.00    +0.000 A 
ATOM      9  C   UNL     1       0.724   8.451  21.568  0.00  0.00    +0.000 A 
ATOM     10  N   UNL     1       1.457   7.696  20.690  0.00  0.00    +0.000 NA
ATOM     11  C   UNL     1       1.674   8.301  19.490  0.00  0.00    +0.000 A 
ATOM     12  C   UNL     1       1.239   9.578  19.157  0.00  0.00    +0.000 A 
ATOM     13  C   UNL     1       1.692   9.805  17.853  0.00  0.00    +0.000 A 
ATOM     14  N   UNL     1       2.372   8.783  17.362  0.00  0.00    +0.000 NA
ATOM     15  N   UNL     1       2.369   7.842  18.360  0.00  0.00    +0.000 N 
ATOM     16  C   UNL     1      -0.520  10.531  22.336  0.00  0.00    +0.000 A 
ATOM     17  O   UNL     1      -0.976  10.001  23.345  0.00  0.00    +0.000 OA
ATOM     18  C   UNL     1      -0.633  12.011  22.117  0.00  0.00    +0.000 A 
ATOM     19  C   UNL     1      -1.098  12.894  23.101  0.00  0.00    +0.000 A 
ATOM     20  H   UNL     1       0.463  12.077  18.982  0.00  0.00    +0.000 HD
ENDROOT
BRANCH  15  21
ATOM     21  C   UNL     1       3.029   6.605  18.109  0.00  0.00    +0.000 A 
ATOM     22  C   UNL     1       2.263   5.421  18.111  0.00  0.00    +0.000 A 
ATOM     23  C   UNL     1       2.864   4.182  17.894  0.00  0.00    +0.000 A 
ATOM     24  C   UNL     1       4.234   4.112  17.671  0.00  0.00    +0.000 A 
ATOM     25  C   UNL     1       4.999   5.279  17.659  0.00  0.00    +0.000 A 
ATOM     26  C   UNL     1       4.403   6.527  17.877  0.00  0.00    +0.000 A 
ENDBRANCH  15  21
TORSDOF 1
ENDMDL
MODEL 2
REMARK VINA RESULT:      -8.0      2.140      2.986
REMARK  Name = 
REMARK  2 active torsions:
REMARK  status: ('A' for Active; 'I' for Inactive)
REMARK    1  A    between atoms: C_1  and  C_2
REMARK    2  A    between atoms: N_15  and  C_16
REMARK                            x       y       z     vdW  Elec       q    Type
REMARK                         _______ _______ _______ _____ _____    ______ ____
ROOT
ATOM      1  C   UNL     1       1.065  16.347  19.460  0.00  0.00    +0.000 C 
ATOM      2  C   UNL     1       1.279  14.880  19.238  0.00  0.00    +0.000 A 
ATOM      3  C   UNL     1       2.293  14.487  18.357  0.00  0.00    +0.000 A 
ATOM      4  C   UNL     1       2.403  13.164  17.963  0.00  0.00    +0.000 A 
ATOM      5  C   UNL     1       1.605  12.195  18.561  0.00  0.00    +0.000 A 
ATOM      6  N   UNL     1       1.761  10.863  18.189  0.00  0.00    +0.000 N 
ATOM      7  C   UNL     1       1.502   9.825  19.078  0.00  0.00    +0.000 A 
ATOM      8  C   UNL     1       0.807  10.062  20.265  0.00  0.00    +0.000 A 
ATOM      9  C   UNL     1       0.716   9.029  21.189  0.00  0.00    +0.000 A 
ATOM     10  N   UNL     1       1.233   7.770  21.034  0.00  0.00    +0.000 NA
ATOM     11  C   UNL     1       1.855   7.572  19.839  0.00  0.00    +0.000 A 
ATOM     12  C   UNL     1       2.003   8.541  18.854  0.00  0.00    +0.000 A 
ATOM     13  C   UNL     1       2.711   7.922  17.817  0.00  0.00    +0.000 A 
ATOM     14  N   UNL     1       3.016   6.663  18.085  0.00  0.00    +0.000 NA
ATOM     15  N   UNL     1       2.492   6.429  19.331  0.00  0.00    +0.000 N 
ATOM     16  C   UNL     1       0.260  11.433  20.498  0.00  0.00    +0.000 A 
ATOM     17  O   UNL     1      -0.520  11.650  21.420  0.00  0.00    +0.000 OA
ATOM     18  C   UNL     1       0.761  12.546  19.625  0.00  0.00    +0.000 A 
ATOM     19  C   UNL     1       0.519  13.899  19.901  0.00  0.00    +0.000 A 
ATOM     20  H   UNL     1       2.285  10.669  17.348  0.00  0.00    +0.000 HD
ENDROOT
BRANCH  15  21
ATOM     21  C   UNL     1       2.658   5.128  19.887  0.00  0.00    +0.000 A 
ATOM     22  C   UNL     1       3.741   4.341  19.447  0.00  0.00    +0.000 A 
ATOM     23  C   UNL     1       3.935   3.052  19.942  0.00  0.00    +0.000 A 
ATOM     24  C   UNL     1       3.051   2.537  20.883  0.00  0.00    +0.000 A 
ATOM     25  C   UNL     1       1.980   3.311  21.330  0.00  0.00    +0.000 A 
ATOM     26  C   UNL     1       1.778   4.606  20.837  0.00  0.00    +0.000 A 
ENDBRANCH  15  21
TORSDOF 1
ENDMDL
MODEL 3
REMARK VINA RESULT:      -7.9      0.367      1.012
REMARK  Name = 
REMARK  2 active torsions:
REMARK  status: ('A' for Active; 'I' for Inactive)
REMARK    1  A    between atoms: C_1  and  C_2
REMARK    2  A    between atoms: N_15  and  C_16
REMARK                            x       y       z     vdW  Elec       q    Type
REMARK                         _______ _______ _______ _____ _____    ______ ____
ROOT
ATOM      1  C   UNL     1      -0.929  15.592  23.570  0.00  0.00    +0.000 C 
ATOM      2  C   UNL     1      -0.522  14.487  22.642  0.00  0.00    +0.000 A 
ATOM      3  C   UNL     1       0.151  14.830  21.464  0.00  0.00    +0.000 A 
ATOM      4  C   UNL     1       0.371  13.878  20.482  0.00  0.00    +0.000 A 
ATOM      5  C   UNL     1       0.063  12.546  20.729  0.00  0.00    +0.000 A 
ATOM      6  N   UNL     1       0.335  11.594  19.751  0.00  0.00    +0.000 N 
ATOM      7  C   UNL     1       0.636  10.277  20.082  0.00  0.00    +0.000 A 
ATOM      8  C   UNL     1       0.397   9.794  21.369  0.00  0.00    +0.000 A 
ATOM      9  C   UNL     1       0.863   8.526  21.691  0.00  0.00    +0.000 A 
ATOM     10  N   UNL     1       1.528   7.680  20.844  0.00  0.00    +0.000 NA
ATOM     11  C   UNL     1       1.691   8.173  19.586  0.00  0.00    +0.000 A 
ATOM     12  C   UNL     1       1.266   9.429  19.168  0.00  0.00    +0.000 A 
ATOM     13  C   UNL     1       1.650   9.530  17.826  0.00  0.00    +0.000 A 
ATOM     14  N   UNL     1       2.278   8.452  17.389  0.00  0.00    +0.000 NA
ATOM     15  N   UNL     1       2.310   7.601  18.464  0.00  0.00    +0.000 N 
ATOM     16  C   UNL     1      -0.289  10.698  22.342  0.00  0.00    +0.000 A 
ATOM     17  O   UNL     1      -0.699  10.268  23.417  0.00  0.00    +0.000 OA
ATOM     18  C   UNL     1      -0.380  12.156  22.002  0.00  0.00    +0.000 A 
ATOM     19  C   UNL     1      -0.769  13.132  22.929  0.00  0.00    +0.000 A 
ATOM     20  H   UNL     1       0.538  11.923  18.818  0.00  0.00    +0.000 HD
ENDROOT
BRANCH  15  21
ATOM     21  C   UNL     1       2.927   6.330  18.286  0.00  0.00    +0.000 A 
ATOM     22  C   UNL     1       4.324   6.229  18.451  0.00  0.00    +0.000 A 
ATOM     23  C   UNL     1       4.980   5.013  18.266  0.00  0.00    +0.000 A 
ATOM     24  C   UNL     1       4.248   3.884  17.917  0.00  0.00    +0.000 A 
ATOM     25  C   UNL     1       2.864   3.971  17.760  0.00  0.00    +0.000 A 
ATOM     26  C   UNL     1       2.199   5.189  17.944  0.00  0.00    +0.000 A 
ENDBRANCH  15  21
TORSDOF 1
ENDMDL
MODEL 4
REMARK VINA RESULT:      -7.9      2.112      2.740
REMARK  Name = 
REMARK  2 active torsions:
REMARK  status: ('A' for Active; 'I' for Inactive)
REMARK    1  A    between atoms: C_1  and  C_2
REMARK    2  A    between atoms: N_15  and  C_16
REMARK                            x       y       z     vdW  Elec       q    Type
REMARK                         _______ _______ _______ _____ _____    ______ ____
ROOT
ATOM      1  C   UNL     1       1.416  16.627  19.877  0.00  0.00    +0.000 C 
ATOM      2  C   UNL     1       1.496  15.156  19.595  0.00  0.00    +0.000 A 
ATOM      3  C   UNL     1       2.297  14.732  18.529  0.00  0.00    +0.000 A 
ATOM      4  C   UNL     1       2.250  13.416  18.101  0.00  0.00    +0.000 A 
ATOM      5  C   UNL     1       1.526  12.477  18.826  0.00  0.00    +0.000 A 
ATOM      6  N   UNL     1       1.528  11.149  18.410  0.00  0.00    +0.000 N 
ATOM      7  C   UNL     1       1.382  10.104  19.316  0.00  0.00    +0.000 A 
ATOM      8  C   UNL     1       0.943  10.346  20.618  0.00  0.00    +0.000 A 
ATOM      9  C   UNL     1       0.969   9.296  21.525  0.00  0.00    +0.000 A 
ATOM     10  N   UNL     1       1.371   8.014  21.254  0.00  0.00    +0.000 NA
ATOM     11  C   UNL     1       1.740   7.814  19.959  0.00  0.00    +0.000 A 
ATOM     12  C   UNL     1       1.754   8.800  18.979  0.00  0.00    +0.000 A 
ATOM     13  C   UNL     1       2.212   8.171  17.816  0.00  0.00    +0.000 A 
ATOM     14  N   UNL     1       2.487   6.890  18.000  0.00  0.00    +0.000 NA
ATOM     15  N   UNL     1       2.199   6.652  19.319  0.00  0.00    +0.000 N 
ATOM     16  C   UNL     1       0.533  11.739  20.973  0.00  0.00    +0.000 A 
ATOM     17  O   UNL     1      -0.041  11.974  22.032  0.00  0.00    +0.000 OA
ATOM     18  C   UNL     1       0.924  12.846  20.038  0.00  0.00    +0.000 A 
ATOM     19  C   UNL     1       0.820  14.201  20.377  0.00  0.00    +0.000 A 
ATOM     20  H   UNL     1       1.868  10.949  17.481  0.00  0.00    +0.000 HD
ENDROOT
BRANCH  15  21
ATOM     21  C   UNL     1       2.390   5.330  19.813  0.00  0.00    +0.000 A 
ATOM     22  C   UNL     1       1.357   4.737  20.568  0.00  0.00    +0.000 A 
ATOM     23  C   UNL     1       1.502   3.454  21.093  0.00  0.00    +0.000 A 
ATOM     24  C   UNL     1       2.678   2.748  20.868  0.00  0.00    +0.000 A 
ATOM     25  C   UNL     1       3.703   3.323  20.116  0.00  0.00    +0.000 A 
ATOM     26  C   UNL     1       3.565   4.612  19.586  0.00  0.00    +0.000 A 
ENDBRANCH  15  21
TORSDOF 1
ENDMDL
MODEL 5
REMARK VINA RESULT:      -7.6      2.011      8.320
REMARK  Name = 
REMARK  2 active torsions:
REMARK  status: ('A' for Active; 'I' for Inactive)
REMARK    1  A    between atoms: C_1  and  C_2
REMARK    2  A    between atoms: N_15  and  C_16
REMARK                            x       y       z     vdW  Elec       q    Type
REMARK                         _______ _______ _______ _____ _____    ______ ____
ROOT
ATOM      1  C   UNL     1       4.950   4.866  17.396  0.00  0.00    +0.000 C 
ATOM      2  C   UNL     1       4.017   5.684  18.238  0.00  0.00    +0.000 A 
ATOM      3  C   UNL     1       3.892   5.356  19.592  0.00  0.00    +0.000 A 
ATOM      4  C   UNL     1       2.904   5.943  20.365  0.00  0.00    +0.000 A 
ATOM      5  C   UNL     1       2.135   6.974  19.838  0.00  0.00    +0.000 A 
ATOM      6  N   UNL     1       1.178   7.587  20.642  0.00  0.00    +0.000 N 
ATOM      7  C   UNL     1       0.820   8.918  20.461  0.00  0.00    +0.000 A 
ATOM      8  C   UNL     1       1.185   9.601  19.299  0.00  0.00    +0.000 A 
ATOM      9  C   UNL     1       0.944  10.967  19.238  0.00  0.00    +0.000 A 
ATOM     10  N   UNL     1       0.352  11.719  20.218  0.00  0.00    +0.000 NA
ATOM     11  C   UNL     1      -0.033  11.000  21.308  0.00  0.00    +0.000 A 
ATOM     12  C   UNL     1       0.167   9.634  21.467  0.00  0.00    +0.000 A 
ATOM     13  C   UNL     1      -0.357   9.318  22.725  0.00  0.00    +0.000 A 
ATOM     14  N   UNL     1      -0.854  10.371  23.353  0.00  0.00    +0.000 NA
ATOM     15  N   UNL     1      -0.663  11.420  22.490  0.00  0.00    +0.000 N 
ATOM     16  C   UNL     1       1.872   8.830  18.218  0.00  0.00    +0.000 A 
ATOM     17  O   UNL     1       2.039   9.322  17.105  0.00  0.00    +0.000 OA
ATOM     18  C   UNL     1       2.424   7.478  18.562  0.00  0.00    +0.000 A 
ATOM     19  C   UNL     1       3.295   6.774  17.719  0.00  0.00    +0.000 A 
ATOM     20  H   UNL     1       0.921   7.123  21.502  0.00  0.00    +0.000 HD
ENDROOT
BRANCH  15  21
ATOM     21  C   UNL     1      -1.118  12.706  22.898  0.00  0.00    +0.000 A 
ATOM     22  C   UNL     1      -2.405  12.817  23.464  0.00  0.00    +0.000 A 
ATOM     23  C   UNL     1      -2.907  14.056  23.859  0.00  0.00    +0.000 A 
ATOM     24  C   UNL     1      -2.130  15.197  23.696  0.00  0.00    +0.000 A 
ATOM     25  C   UNL     1      -0.852  15.097  23.145  0.00  0.00    +0.000 A 
ATOM     26  C   UNL     1      -0.341  13.855  22.745  0.00  0.00    +0.000 A 
ENDBRANCH  15  21
TORSDOF 1
ENDMDL
MODEL 6
REMARK VINA RESULT:      -7.5      2.019      8.358
REMARK  Name = 
REMARK  2 active torsions:
REMARK  status: ('A' for Active; 'I' for Inactive)
REMARK    1  A    between atoms: C_1  and  C_2
REMARK    2  A    between atoms: N_15  and  C_16
REMARK                            x       y       z     vdW  Elec       q    Type
REMARK                         _______ _______ _______ _____ _____    ______ ____
ROOT
ATOM      1  C   UNL     1       4.956   4.483  17.546  0.00  0.00    +0.000 C 
ATOM      2  C   UNL     1       4.038   5.362  18.342  0.00  0.00    +0.000 A 
ATOM      3  C   UNL     1       3.866   5.076  19.701  0.00  0.00    +0.000 A 
ATOM      4  C   UNL     1       2.884   5.724  20.432  0.00  0.00    +0.000 A 
ATOM      5  C   UNL     1       2.172   6.770  19.860  0.00  0.00    +0.000 A 
ATOM      6  N   UNL     1       1.222   7.444  20.623  0.00  0.00    +0.000 N 
ATOM      7  C   UNL     1       0.925   8.783  20.397  0.00  0.00    +0.000 A 
ATOM      8  C   UNL     1       1.346   9.419  19.228  0.00  0.00    +0.000 A 
ATOM      9  C   UNL     1       1.163  10.791  19.125  0.00  0.00    +0.000 A 
ATOM     10  N   UNL     1       0.579  11.593  20.070  0.00  0.00    +0.000 NA
ATOM     11  C   UNL     1       0.138  10.921  21.168  0.00  0.00    +0.000 A 
ATOM     12  C   UNL     1       0.278   9.553  21.367  0.00  0.00    +0.000 A 
ATOM     13  C   UNL     1      -0.291   9.292  22.620  0.00  0.00    +0.000 A 
ATOM     14  N   UNL     1      -0.758  10.381  23.206  0.00  0.00    +0.000 NA
ATOM     15  N   UNL     1      -0.503  11.398  22.322  0.00  0.00    +0.000 N 
ATOM     16  C   UNL     1       2.026   8.591  18.185  0.00  0.00    +0.000 A 
ATOM     17  O   UNL     1       2.241   9.045  17.065  0.00  0.00    +0.000 OA
ATOM     18  C   UNL     1       2.513   7.228  18.578  0.00  0.00    +0.000 A 
ATOM     19  C   UNL     1       3.374   6.466  17.777  0.00  0.00    +0.000 A 
ATOM     20  H   UNL     1       0.925   7.014  21.487  0.00  0.00    +0.000 HD
ENDROOT
BRANCH  15  21
ATOM     21  C   UNL     1      -0.914  12.712  22.685  0.00  0.00    +0.000 A 
ATOM     22  C   UNL     1      -0.100  13.800  22.308  0.00  0.00    +0.000 A 
ATOM     23  C   UNL     1      -0.444  15.105  22.658  0.00  0.00    +0.000 A 
ATOM     24  C   UNL     1      -1.606  15.338  23.386  0.00  0.00    +0.000 A 
ATOM     25  C   UNL     1      -2.422  14.268  23.756  0.00  0.00    +0.000 A 
ATOM     26  C   UNL     1      -2.082  12.955  23.409  0.00  0.00    +0.000 A 
ENDBRANCH  15  21
TORSDOF 1
ENDMDL
MODEL 7
REMARK VINA RESULT:      -7.4      1.690      2.566
REMARK  Name = 
REMARK  2 active torsions:
REMARK  status: ('A' for Active; 'I' for Inactive)
REMARK    1  A    between atoms: C_1  and  C_2
REMARK    2  A    between atoms: N_15  and  C_16
REMARK                            x       y       z     vdW  Elec       q    Type
REMARK                         _______ _______ _______ _____ _____    ______ ____
ROOT
ATOM      1  C   UNL     1      -2.972  14.919  21.960  0.00  0.00    +0.000 C 
ATOM      2  C   UNL     1      -2.156  13.677  21.762  0.00  0.00    +0.000 A 
ATOM      3  C   UNL     1      -2.460  12.555  22.542  0.00  0.00    +0.000 A 
ATOM      4  C   UNL     1      -1.618  11.456  22.545  0.00  0.00    +0.000 A 
ATOM      5  C   UNL     1      -0.552  11.399  21.655  0.00  0.00    +0.000 A 
ATOM      6  N   UNL     1       0.257  10.267  21.636  0.00  0.00    +0.000 N 
ATOM      7  C   UNL     1       0.902   9.854  20.476  0.00  0.00    +0.000 A 
ATOM      8  C   UNL     1       0.999  10.704  19.374  0.00  0.00    +0.000 A 
ATOM      9  C   UNL     1       1.508  10.189  18.189  0.00  0.00    +0.000 A 
ATOM     10  N   UNL     1       1.953   8.907  18.002  0.00  0.00    +0.000 NA
ATOM     11  C   UNL     1       1.888   8.131  19.118  0.00  0.00    +0.000 A 
ATOM     12  C   UNL     1       1.391   8.551  20.346  0.00  0.00    +0.000 A 
ATOM     13  C   UNL     1       1.491   7.443  21.195  0.00  0.00    +0.000 A 
ATOM     14  N   UNL     1       1.998   6.381  20.593  0.00  0.00    +0.000 NA
ATOM     15  N   UNL     1       2.251   6.788  19.307  0.00  0.00    +0.000 N 
ATOM     16  C   UNL     1       0.487  12.102  19.518  0.00  0.00    +0.000 A 
ATOM     17  O   UNL     1       0.720  12.948  18.659  0.00  0.00    +0.000 OA
ATOM     18  C   UNL     1      -0.388  12.410  20.697  0.00  0.00    +0.000 A 
ATOM     19  C   UNL     1      -1.124  13.598  20.809  0.00  0.00    +0.000 A 
ATOM     20  H   UNL     1       0.183   9.624  22.411  0.00  0.00    +0.000 HD
ENDROOT
BRANCH  15  21
ATOM     21  C   UNL     1       2.822   5.841  18.411  0.00  0.00    +0.000 A 
ATOM     22  C   UNL     1       2.119   4.646  18.155  0.00  0.00    +0.000 A 
ATOM     23  C   UNL     1       2.644   3.676  17.303  0.00  0.00    +0.000 A 
ATOM     24  C   UNL     1       3.876   3.889  16.695  0.00  0.00    +0.000 A 
ATOM     25  C   UNL     1       4.577   5.071  16.936  0.00  0.00    +0.000 A 
ATOM     26  C   UNL     1       4.056   6.050  17.791  0.00  0.00    +0.000 A 
ENDBRANCH  15  21
TORSDOF 1
ENDMDL
MODEL 8
REMARK VINA RESULT:      -7.4      1.342      1.890
REMARK  Name = 
REMARK  2 active torsions:
REMARK  status: ('A' for Active; 'I' for Inactive)
REMARK    1  A    between atoms: C_1  and  C_2
REMARK    2  A    between atoms: N_15  and  C_16
REMARK                            x       y       z     vdW  Elec       q    Type
REMARK                         _______ _______ _______ _____ _____    ______ ____
ROOT
ATOM      1  C   UNL     1      -0.191  16.653  21.502  0.00  0.00    +0.000 C 
ATOM      2  C   UNL     1       0.103  15.283  20.969  0.00  0.00    +0.000 A 
ATOM      3  C   UNL     1       0.821  15.181  19.772  0.00  0.00    +0.000 A 
ATOM      4  C   UNL     1       0.946  13.957  19.135  0.00  0.00    +0.000 A 
ATOM      5  C   UNL     1       0.494  12.802  19.760  0.00  0.00    +0.000 A 
ATOM      6  N   UNL     1       0.670  11.574  19.128  0.00  0.00    +0.000 N 
ATOM      7  C   UNL     1       0.824  10.398  19.854  0.00  0.00    +0.000 A 
ATOM      8  C   UNL     1       0.521  10.358  21.216  0.00  0.00    +0.000 A 
ATOM      9  C   UNL     1       0.844   9.209  21.926  0.00  0.00    +0.000 A 
ATOM     10  N   UNL     1       1.422   8.082  21.403  0.00  0.00    +0.000 NA
ATOM     11  C   UNL     1       1.649   8.149  20.063  0.00  0.00    +0.000 A 
ATOM     12  C   UNL     1       1.367   9.253  19.267  0.00  0.00    +0.000 A 
ATOM     13  C   UNL     1       1.773   8.901  17.974  0.00  0.00    +0.000 A 
ATOM     14  N   UNL     1       2.285   7.684  17.911  0.00  0.00    +0.000 NA
ATOM     15  N   UNL     1       2.214   7.202  19.194  0.00  0.00    +0.000 N 
ATOM     16  C   UNL     1      -0.072  11.580  21.840  0.00  0.00    +0.000 A 
ATOM     17  O   UNL     1      -0.538  11.542  22.976  0.00  0.00    +0.000 OA
ATOM     18  C   UNL     1      -0.002  12.866  21.071  0.00  0.00    +0.000 A 
ATOM     19  C   UNL     1      -0.292  14.112  21.642  0.00  0.00    +0.000 A 
ATOM     20  H   UNL     1       0.917  11.582  18.149  0.00  0.00    +0.000 HD
ENDROOT
BRANCH  15  21
ATOM     21  C   UNL     1       2.691   5.883  19.436  0.00  0.00    +0.000 A 
ATOM     22  C   UNL     1       4.019   5.571  19.079  0.00  0.00    +0.000 A 
ATOM     23  C   UNL     1       4.529   4.287  19.273  0.00  0.00    +0.000 A 
ATOM     24  C   UNL     1       3.718   3.303  19.827  0.00  0.00    +0.000 A 
ATOM     25  C   UNL     1       2.405   3.604  20.190  0.00  0.00    +0.000 A 
ATOM     26  C   UNL     1       1.887   4.890  19.998  0.00  0.00    +0.000 A 
ENDBRANCH  15  21
TORSDOF 1
ENDMDL
MODEL 9
REMARK VINA RESULT:      -7.2      1.906      2.522
REMARK  Name = 
REMARK  2 active torsions:
REMARK  status: ('A' for Active; 'I' for Inactive)
REMARK    1  A    between atoms: C_1  and  C_2
REMARK    2  A    between atoms: N_15  and  C_16
REMARK                            x       y       z     vdW  Elec       q    Type
REMARK                         _______ _______ _______ _____ _____    ______ ____
ROOT
ATOM      1  C   UNL     1       0.983  15.782  20.438  0.00  0.00    +0.000 C 
ATOM      2  C   UNL     1       1.241  14.379  19.977  0.00  0.00    +0.000 A 
ATOM      3  C   UNL     1       2.207  14.178  18.984  0.00  0.00    +0.000 A 
ATOM      4  C   UNL     1       2.343  12.938  18.383  0.00  0.00    +0.000 A 
ATOM      5  C   UNL     1       1.630  11.850  18.871  0.00  0.00    +0.000 A 
ATOM      6  N   UNL     1       1.814  10.600  18.288  0.00  0.00    +0.000 N 
ATOM      7  C   UNL     1       1.660   9.427  19.018  0.00  0.00    +0.000 A 
ATOM      8  C   UNL     1       1.041   9.443  20.269  0.00  0.00    +0.000 A 
ATOM      9  C   UNL     1       1.057   8.278  21.024  0.00  0.00    +0.000 A 
ATOM     10  N   UNL     1       1.613   7.085  20.643  0.00  0.00    +0.000 NA
ATOM     11  C   UNL     1       2.158   7.104  19.396  0.00  0.00    +0.000 A 
ATOM     12  C   UNL     1       2.197   8.218  18.566  0.00  0.00    +0.000 A 
ATOM     13  C   UNL     1       2.856   7.802  17.403  0.00  0.00    +0.000 A 
ATOM     14  N   UNL     1       3.229   6.535  17.452  0.00  0.00    +0.000 NA
ATOM     15  N   UNL     1       2.804   6.087  18.677  0.00  0.00    +0.000 N 
ATOM     16  C   UNL     1       0.455  10.733  20.746  0.00  0.00    +0.000 A 
ATOM     17  O   UNL     1      -0.267  10.766  21.738  0.00  0.00    +0.000 OA
ATOM     18  C   UNL     1       0.848  11.990  20.028  0.00  0.00    +0.000 A 
ATOM     19  C   UNL     1       0.570  13.270  20.525  0.00  0.00    +0.000 A 
ATOM     20  H   UNL     1       2.285  10.563  17.395  0.00  0.00    +0.000 HD
ENDROOT
BRANCH  15  21
ATOM     21  C   UNL     1       3.061   4.727  19.012  0.00  0.00    +0.000 A 
ATOM     22  C   UNL     1       1.978   3.824  19.043  0.00  0.00    +0.000 A 
ATOM     23  C   UNL     1       2.172   2.487  19.387  0.00  0.00    +0.000 A 
ATOM     24  C   UNL     1       3.448   2.037  19.702  0.00  0.00    +0.000 A 
ATOM     25  C   UNL     1       4.528   2.920  19.667  0.00  0.00    +0.000 A 
ATOM     26  C   UNL     1       4.341   4.264  19.323  0.00  0.00    +0.000 A 
ENDBRANCH  15  21
TORSDOF 1
ENDMDL
