MODEL 1
REMARK VINA RESULT:      -7.7      0.000      0.000
REMARK  Name = 
REMARK  6 active torsions:
REMARK  status: ('A' for Active; 'I' for Inactive)
REMARK    1  A    between atoms: C_1  and  C_2
REMARK    2  A    between atoms: C_11  and  C_12
REMARK    3  A    between atoms: C_12  and  C_13
REMARK    4  A    between atoms: N_15  and  C_16
REMARK    5  A    between atoms: N_15  and  C_17
REMARK    6  A    between atoms: C_17  and  C_18
REMARK                            x       y       z     vdW  Elec       q    Type
REMARK                         _______ _______ _______ _____ _____    ______ ____
ROOT
ATOM      1  C   UNL     1       6.180   3.627  15.100  0.00  0.00    +0.000 C 
ATOM      2  C   UNL     1       5.449   4.644  15.926  0.00  0.00    +0.000 A 
ATOM      3  C   UNL     1       5.574   6.015  15.662  0.00  0.00    +0.000 A 
ATOM      4  C   UNL     1       4.869   6.952  16.422  0.00  0.00    +0.000 A 
ATOM      5  C   UNL     1       4.037   6.528  17.454  0.00  0.00    +0.000 A 
ATOM      6  C   UNL     1       3.957   5.165  17.760  0.00  0.00    +0.000 A 
ATOM      7  C   UNL     1       4.639   4.225  16.988  0.00  0.00    +0.000 A 
ATOM      8  N   UNL     1       3.251   4.740  18.887  0.00  0.00    +0.000 N 
ATOM      9  C   UNL     1       2.562   5.637  19.664  0.00  0.00    +0.000 C 
ATOM     10  O   UNL     1       2.077   5.309  20.741  0.00  0.00    +0.000 OA
ATOM     11  C   UNL     1       2.333   6.993  18.978  0.00  0.00    +0.000 C 
ATOM     12  O   UNL     1       3.376   7.505  18.157  0.00  0.00    +0.000 OA
ATOM     13  H   UNL     1       3.344   3.797  19.236  0.00  0.00    +0.000 HD
ENDROOT
BRANCH  11  14
ATOM     14  C   UNL     1       1.855   8.031  19.995  0.00  0.00    +0.000 C 
BRANCH  14  15
ATOM     15  C   UNL     1       1.279   9.271  19.330  0.00  0.00    +0.000 C 
ATOM     16  O   UNL     1       1.709   9.651  18.239  0.00  0.00    +0.000 OA
ATOM     17  N   UNL     1       0.217   9.915  19.957  0.00  0.00    +0.000 N 
ATOM     18  C   UNL     1      -0.299   9.563  21.271  0.00  0.00    +0.000 C 
BRANCH  17  19
ATOM     19  C   UNL     1      -0.285  11.158  19.363  0.00  0.00    +0.000 C 
BRANCH  19  20
ATOM     20  C   UNL     1      -1.561  11.007  18.561  0.00  0.00    +0.000 A 
ATOM     21  C   UNL     1      -1.662  10.065  17.525  0.00  0.00    +0.000 A 
ATOM     22  C   UNL     1      -2.853   9.901  16.815  0.00  0.00    +0.000 A 
ATOM     23  C   UNL     1      -3.968  10.667  17.139  0.00  0.00    +0.000 A 
ATOM     24  C   UNL     1      -3.895  11.589  18.181  0.00  0.00    +0.000 A 
ATOM     25  C   UNL     1      -2.700  11.757  18.888  0.00  0.00    +0.000 A 
ENDBRANCH  19  20
ENDBRANCH  17  19
ENDBRANCH  14  15
ENDBRANCH  11  14
TORSDOF 4
ENDMDL
MODEL 2
REMARK VINA RESULT:      -7.6      2.814      4.387
REMARK  Name = 
REMARK  6 active torsions:
REMARK  status: ('A' for Active; 'I' for Inactive)
REMARK    1  A    between atoms: C_1  and  C_2
REMARK    2  A    between atoms: C_11  and  C_12
REMARK    3  A    between atoms: C_12  and  C_13
REMARK    4  A    between atoms: N_15  and  C_16
REMARK    5  A    between atoms: N_15  and  C_17
REMARK    6  A    between atoms: C_17  and  C_18
REMARK                            x       y       z     vdW  Elec       q    Type
REMARK                         _______ _______ _______ _____ _____    ______ ____
ROOT
ATOM      1  C   UNL     1       3.327   5.848  18.093  0.00  0.00    +0.000 C 
ATOM      2  C   UNL     1       2.619   7.070  18.599  0.00  0.00    +0.000 A 
ATOM      3  C   UNL     1       2.342   8.150  17.750  0.00  0.00    +0.000 A 
ATOM      4  C   UNL     1       1.659   9.272  18.226  0.00  0.00    +0.000 A 
ATOM      5  C   UNL     1       1.252   9.327  19.556  0.00  0.00    +0.000 A 
ATOM      6  C   UNL     1       1.580   8.278  20.422  0.00  0.00    +0.000 A 
ATOM      7  C   UNL     1       2.238   7.145  19.945  0.00  0.00    +0.000 A 
ATOM      8  N   UNL     1       1.316   8.389  21.789  0.00  0.00    +0.000 N 
ATOM      9  C   UNL     1       0.662   9.485  22.292  0.00  0.00    +0.000 C 
ATOM     10  O   UNL     1       0.568   9.675  23.499  0.00  0.00    +0.000 OA
ATOM     11  C   UNL     1      -0.053  10.319  21.216  0.00  0.00    +0.000 C 
ATOM     12  O   UNL     1       0.587  10.460  19.953  0.00  0.00    +0.000 OA
ATOM     13  H   UNL     1       1.717   7.742  22.451  0.00  0.00    +0.000 HD
ENDROOT
BRANCH  11  14
ATOM     14  C   UNL     1      -0.481  11.672  21.787  0.00  0.00    +0.000 C 
BRANCH  14  15
ATOM     15  C   UNL     1      -1.523  12.363  20.923  0.00  0.00    +0.000 C 
ATOM     16  O   UNL     1      -1.266  12.666  19.756  0.00  0.00    +0.000 OA
ATOM     17  N   UNL     1      -2.786  12.576  21.468  0.00  0.00    +0.000 N 
ATOM     18  C   UNL     1      -3.141  12.303  22.852  0.00  0.00    +0.000 C 
BRANCH  17  19
ATOM     19  C   UNL     1      -3.767  13.316  20.669  0.00  0.00    +0.000 C 
BRANCH  19  20
ATOM     20  C   UNL     1      -4.820  12.455  20.002  0.00  0.00    +0.000 A 
ATOM     21  C   UNL     1      -4.600  11.882  18.740  0.00  0.00    +0.000 A 
ATOM     22  C   UNL     1      -5.557  11.055  18.147  0.00  0.00    +0.000 A 
ATOM     23  C   UNL     1      -6.745  10.776  18.815  0.00  0.00    +0.000 A 
ATOM     24  C   UNL     1      -6.971  11.314  20.080  0.00  0.00    +0.000 A 
ATOM     25  C   UNL     1      -6.015  12.147  20.670  0.00  0.00    +0.000 A 
ENDBRANCH  19  20
ENDBRANCH  17  19
ENDBRANCH  14  15
ENDBRANCH  11  14
TORSDOF 4
ENDMDL
MODEL 3
REMARK VINA RESULT:      -7.5      2.718      7.824
REMARK  Name = 
REMARK  6 active torsions:
REMARK  status: ('A' for Active; 'I' for Inactive)
REMARK    1  A    between atoms: C_1  and  C_2
REMARK    2  A    between atoms: C_11  and  C_12
REMARK    3  A    between atoms: C_12  and  C_13
REMARK    4  A    between atoms: N_15  and  C_16
REMARK    5  A    between atoms: N_15  and  C_17
REMARK    6  A    between atoms: C_17  and  C_18
REMARK                            x       y       z     vdW  Elec       q    Type
REMARK                         _______ _______ _______ _____ _____    ______ ____
ROOT
ATOM      1  C   UNL     1      -1.564  11.425  23.109  0.00  0.00    +0.000 C 
ATOM      2  C   UNL     1      -0.650  10.570  22.280  0.00  0.00    +0.000 A 
ATOM      3  C   UNL     1      -0.151   9.356  22.772  0.00  0.00    +0.000 A 
ATOM      4  C   UNL     1       0.679   8.556  21.982  0.00  0.00    +0.000 A 
ATOM      5  C   UNL     1       1.021   8.964  20.696  0.00  0.00    +0.000 A 
ATOM      6  C   UNL     1       0.574  10.204  20.224  0.00  0.00    +0.000 A 
ATOM      7  C   UNL     1      -0.274  10.993  20.999  0.00  0.00    +0.000 A 
ATOM      8  N   UNL     1       1.036  10.695  19.001  0.00  0.00    +0.000 N 
ATOM      9  C   UNL     1       1.865   9.942  18.209  0.00  0.00    +0.000 C 
ATOM     10  O   UNL     1       2.407  10.417  17.218  0.00  0.00    +0.000 OA
ATOM     11  C   UNL     1       1.897   8.454  18.595  0.00  0.00    +0.000 C 
ATOM     12  O   UNL     1       1.839   8.128  19.979  0.00  0.00    +0.000 OA
ATOM     13  H   UNL     1       0.887  11.658  18.737  0.00  0.00    +0.000 HD
ENDROOT
BRANCH  11  14
ATOM     14  C   UNL     1       3.059   7.747  17.896  0.00  0.00    +0.000 C 
BRANCH  14  15
ATOM     15  C   UNL     1       2.908   6.234  17.907  0.00  0.00    +0.000 C 
ATOM     16  O   UNL     1       1.801   5.716  17.744  0.00  0.00    +0.000 OA
ATOM     17  N   UNL     1       4.059   5.463  18.037  0.00  0.00    +0.000 N 
ATOM     18  C   UNL     1       5.385   6.002  18.296  0.00  0.00    +0.000 C 
BRANCH  17  19
ATOM     19  C   UNL     1       3.909   4.008  18.132  0.00  0.00    +0.000 C 
BRANCH  19  20
ATOM     20  C   UNL     1       3.019   3.536  19.264  0.00  0.00    +0.000 A 
ATOM     21  C   UNL     1       3.134   4.076  20.554  0.00  0.00    +0.000 A 
ATOM     22  C   UNL     1       2.285   3.667  21.585  0.00  0.00    +0.000 A 
ATOM     23  C   UNL     1       1.296   2.721  21.337  0.00  0.00    +0.000 A 
ATOM     24  C   UNL     1       1.148   2.193  20.057  0.00  0.00    +0.000 A 
ATOM     25  C   UNL     1       2.003   2.598  19.027  0.00  0.00    +0.000 A 
ENDBRANCH  19  20
ENDBRANCH  17  19
ENDBRANCH  14  15
ENDBRANCH  11  14
TORSDOF 4
ENDMDL
MODEL 4
REMARK VINA RESULT:      -7.4      0.572      1.136
REMARK  Name = 
REMARK  6 active torsions:
REMARK  status: ('A' for Active; 'I' for Inactive)
REMARK    1  A    between atoms: C_1  and  C_2
REMARK    2  A    between atoms: C_11  and  C_12
REMARK    3  A    between atoms: C_12  and  C_13
REMARK    4  A    between atoms: N_15  and  C_16
REMARK    5  A    between atoms: N_15  and  C_17
REMARK    6  A    between atoms: C_17  and  C_18
REMARK                            x       y       z     vdW  Elec       q    Type
REMARK                         _______ _______ _______ _____ _____    ______ ____
ROOT
ATOM      1  C   UNL     1       6.487   3.799  14.651  0.00  0.00    +0.000 C 
ATOM      2  C   UNL     1       5.774   4.714  15.603  0.00  0.00    +0.000 A 
ATOM      3  C   UNL     1       6.195   6.037  15.787  0.00  0.00    +0.000 A 
ATOM      4  C   UNL     1       5.508   6.887  16.658  0.00  0.00    +0.000 A 
ATOM      5  C   UNL     1       4.397   6.421  17.355  0.00  0.00    +0.000 A 
ATOM      6  C   UNL     1       4.010   5.083  17.219  0.00  0.00    +0.000 A 
ATOM      7  C   UNL     1       4.677   4.239  16.333  0.00  0.00    +0.000 A 
ATOM      8  N   UNL     1       2.997   4.562  18.027  0.00  0.00    +0.000 N 
ATOM      9  C   UNL     1       2.313   5.365  18.904  0.00  0.00    +0.000 C 
ATOM     10  O   UNL     1       1.541   4.896  19.732  0.00  0.00    +0.000 OA
ATOM     11  C   UNL     1       2.493   6.866  18.627  0.00  0.00    +0.000 C 
ATOM     12  O   UNL     1       3.772   7.312  18.191  0.00  0.00    +0.000 OA
ATOM     13  H   UNL     1       2.839   3.566  18.088  0.00  0.00    +0.000 HD
ENDROOT
BRANCH  11  14
ATOM     14  C   UNL     1       1.980   7.692  19.808  0.00  0.00    +0.000 C 
BRANCH  14  15
ATOM     15  C   UNL     1       1.379   9.018  19.371  0.00  0.00    +0.000 C 
ATOM     16  O   UNL     1       1.768   9.571  18.340  0.00  0.00    +0.000 OA
ATOM     17  N   UNL     1       0.339   9.546  20.130  0.00  0.00    +0.000 N 
ATOM     18  C   UNL     1      -0.128   8.985  21.389  0.00  0.00    +0.000 C 
BRANCH  17  19
ATOM     19  C   UNL     1      -0.185  10.865  19.761  0.00  0.00    +0.000 C 
BRANCH  19  20
ATOM     20  C   UNL     1      -1.493  10.835  18.998  0.00  0.00    +0.000 A 
ATOM     21  C   UNL     1      -2.533  11.728  19.298  0.00  0.00    +0.000 A 
ATOM     22  C   UNL     1      -3.722  11.722  18.565  0.00  0.00    +0.000 A 
ATOM     23  C   UNL     1      -3.883  10.832  17.508  0.00  0.00    +0.000 A 
ATOM     24  C   UNL     1      -2.853   9.956  17.177  0.00  0.00    +0.000 A 
ATOM     25  C   UNL     1      -1.665   9.957  17.916  0.00  0.00    +0.000 A 
ENDBRANCH  19  20
ENDBRANCH  17  19
ENDBRANCH  14  15
ENDBRANCH  11  14
TORSDOF 4
ENDMDL
MODEL 5
REMARK VINA RESULT:      -7.2      5.227      8.593
REMARK  Name = 
REMARK  6 active torsions:
REMARK  status: ('A' for Active; 'I' for Inactive)
REMARK    1  A    between atoms: C_1  and  C_2
REMARK    2  A    between atoms: C_11  and  C_12
REMARK    3  A    between atoms: C_12  and  C_13
REMARK    4  A    between atoms: N_15  and  C_16
REMARK    5  A    between atoms: N_15  and  C_17
REMARK    6  A    between atoms: C_17  and  C_18
REMARK                            x       y       z     vdW  Elec       q    Type
REMARK                         _______ _______ _______ _____ _____    ______ ____
ROOT
ATOM      1  C   UNL     1       1.121   2.626  18.794  0.00  0.00    +0.000 C 
ATOM      2  C   UNL     1       2.146   3.676  18.481  0.00  0.00    +0.000 A 
ATOM      3  C   UNL     1       1.766   4.990  18.175  0.00  0.00    +0.000 A 
ATOM      4  C   UNL     1       2.731   5.965  17.909  0.00  0.00    +0.000 A 
ATOM      5  C   UNL     1       4.083   5.635  17.942  0.00  0.00    +0.000 A 
ATOM      6  C   UNL     1       4.464   4.311  18.187  0.00  0.00    +0.000 A 
ATOM      7  C   UNL     1       3.506   3.341  18.478  0.00  0.00    +0.000 A 
ATOM      8  N   UNL     1       5.803   3.934  18.069  0.00  0.00    +0.000 N 
ATOM      9  C   UNL     1       6.774   4.864  17.793  0.00  0.00    +0.000 C 
ATOM     10  O   UNL     1       7.922   4.529  17.526  0.00  0.00    +0.000 OA
ATOM     11  C   UNL     1       6.314   6.313  18.016  0.00  0.00    +0.000 C 
ATOM     12  O   UNL     1       4.973   6.644  17.671  0.00  0.00    +0.000 OA
ATOM     13  H   UNL     1       6.071   2.961  18.046  0.00  0.00    +0.000 HD
ENDROOT
BRANCH  11  14
ATOM     14  C   UNL     1       7.313   7.291  17.394  0.00  0.00    +0.000 C 
BRANCH  14  15
ATOM     15  C   UNL     1       8.205   7.948  18.436  0.00  0.00    +0.000 C 
ATOM     16  O   UNL     1       8.803   7.263  19.268  0.00  0.00    +0.000 OA
ATOM     17  N   UNL     1       8.374   9.328  18.373  0.00  0.00    +0.000 N 
ATOM     18  C   UNL     1       7.654  10.205  17.463  0.00  0.00    +0.000 C 
BRANCH  17  19
ATOM     19  C   UNL     1       9.165   9.975  19.426  0.00  0.00    +0.000 C 
BRANCH  19  20
ATOM     20  C   UNL     1      10.161  11.001  18.927  0.00  0.00    +0.000 A 
ATOM     21  C   UNL     1      11.264  11.384  19.707  0.00  0.00    +0.000 A 
ATOM     22  C   UNL     1      12.202  12.301  19.226  0.00  0.00    +0.000 A 
ATOM     23  C   UNL     1      12.060  12.838  17.951  0.00  0.00    +0.000 A 
ATOM     24  C   UNL     1      10.987  12.451  17.152  0.00  0.00    +0.000 A 
ATOM     25  C   UNL     1      10.044  11.538  17.636  0.00  0.00    +0.000 A 
ENDBRANCH  19  20
ENDBRANCH  17  19
ENDBRANCH  14  15
ENDBRANCH  11  14
TORSDOF 4
ENDMDL
MODEL 6
REMARK VINA RESULT:      -7.1      2.234      3.369
REMARK  Name = 
REMARK  6 active torsions:
REMARK  status: ('A' for Active; 'I' for Inactive)
REMARK    1  A    between atoms: C_1  and  C_2
REMARK    2  A    between atoms: C_11  and  C_12
REMARK    3  A    between atoms: C_12  and  C_13
REMARK    4  A    between atoms: N_15  and  C_16
REMARK    5  A    between atoms: N_15  and  C_17
REMARK    6  A    between atoms: C_17  and  C_18
REMARK                            x       y       z     vdW  Elec       q    Type
REMARK                         _______ _______ _______ _____ _____    ______ ____
ROOT
ATOM      1  C   UNL     1       4.130   2.313  19.750  0.00  0.00    +0.000 C 
ATOM      2  C   UNL     1       3.824   3.703  19.276  0.00  0.00    +0.000 A 
ATOM      3  C   UNL     1       4.302   4.168  18.043  0.00  0.00    +0.000 A 
ATOM      4  C   UNL     1       3.990   5.457  17.600  0.00  0.00    +0.000 A 
ATOM      5  C   UNL     1       3.202   6.292  18.387  0.00  0.00    +0.000 A 
ATOM      6  C   UNL     1       2.774   5.853  19.645  0.00  0.00    +0.000 A 
ATOM      7  C   UNL     1       3.061   4.560  20.079  0.00  0.00    +0.000 A 
ATOM      8  N   UNL     1       2.117   6.733  20.507  0.00  0.00    +0.000 N 
ATOM      9  C   UNL     1       1.810   8.010  20.110  0.00  0.00    +0.000 C 
ATOM     10  O   UNL     1       1.385   8.841  20.903  0.00  0.00    +0.000 OA
ATOM     11  C   UNL     1       1.896   8.215  18.589  0.00  0.00    +0.000 C 
ATOM     12  O   UNL     1       2.936   7.542  17.887  0.00  0.00    +0.000 OA
ATOM     13  H   UNL     1       1.978   6.502  21.481  0.00  0.00    +0.000 HD
ENDROOT
BRANCH  11  14
ATOM     14  C   UNL     1       1.859   9.706  18.249  0.00  0.00    +0.000 C 
BRANCH  14  15
ATOM     15  C   UNL     1       0.474  10.307  18.429  0.00  0.00    +0.000 C 
ATOM     16  O   UNL     1      -0.520   9.728  17.986  0.00  0.00    +0.000 OA
ATOM     17  N   UNL     1       0.364  11.485  19.161  0.00  0.00    +0.000 N 
ATOM     18  C   UNL     1       1.494  12.255  19.657  0.00  0.00    +0.000 C 
BRANCH  17  19
ATOM     19  C   UNL     1      -0.958  12.113  19.265  0.00  0.00    +0.000 C 
BRANCH  19  20
ATOM     20  C   UNL     1      -1.535  12.145  20.665  0.00  0.00    +0.000 A 
ATOM     21  C   UNL     1      -1.053  11.294  21.671  0.00  0.00    +0.000 A 
ATOM     22  C   UNL     1      -1.561  11.356  22.971  0.00  0.00    +0.000 A 
ATOM     23  C   UNL     1      -2.550  12.281  23.289  0.00  0.00    +0.000 A 
ATOM     24  C   UNL     1      -3.023  13.151  22.310  0.00  0.00    +0.000 A 
ATOM     25  C   UNL     1      -2.519  13.085  21.007  0.00  0.00    +0.000 A 
ENDBRANCH  19  20
ENDBRANCH  17  19
ENDBRANCH  14  15
ENDBRANCH  11  14
TORSDOF 4
ENDMDL
MODEL 7
REMARK VINA RESULT:      -7.1      2.198      8.124
REMARK  Name = 
REMARK  6 active torsions:
REMARK  status: ('A' for Active; 'I' for Inactive)
REMARK    1  A    between atoms: C_1  and  C_2
REMARK    2  A    between atoms: C_11  and  C_12
REMARK    3  A    between atoms: C_12  and  C_13
REMARK    4  A    between atoms: N_15  and  C_16
REMARK    5  A    between atoms: N_15  and  C_17
REMARK    6  A    between atoms: C_17  and  C_18
REMARK                            x       y       z     vdW  Elec       q    Type
REMARK                         _______ _______ _______ _____ _____    ______ ____
ROOT
ATOM      1  C   UNL     1      -5.543  12.248  17.901  0.00  0.00    +0.000 C 
ATOM      2  C   UNL     1      -4.221  11.561  18.083  0.00  0.00    +0.000 A 
ATOM      3  C   UNL     1      -3.903  10.402  17.364  0.00  0.00    +0.000 A 
ATOM      4  C   UNL     1      -2.658   9.785  17.523  0.00  0.00    +0.000 A 
ATOM      5  C   UNL     1      -1.725  10.319  18.406  0.00  0.00    +0.000 A 
ATOM      6  C   UNL     1      -2.062  11.441  19.171  0.00  0.00    +0.000 A 
ATOM      7  C   UNL     1      -3.291  12.074  18.997  0.00  0.00    +0.000 A 
ATOM      8  N   UNL     1      -1.197  11.893  20.170  0.00  0.00    +0.000 N 
ATOM      9  C   UNL     1       0.025  11.300  20.364  0.00  0.00    +0.000 C 
ATOM     10  O   UNL     1       0.722  11.573  21.334  0.00  0.00    +0.000 OA
ATOM     11  C   UNL     1       0.472  10.419  19.186  0.00  0.00    +0.000 C 
ATOM     12  O   UNL     1      -0.525   9.661  18.510  0.00  0.00    +0.000 OA
ATOM     13  H   UNL     1      -1.501  12.566  20.858  0.00  0.00    +0.000 HD
ENDROOT
BRANCH  11  14
ATOM     14  C   UNL     1       1.664   9.550  19.592  0.00  0.00    +0.000 C 
BRANCH  14  15
ATOM     15  C   UNL     1       2.069   8.575  18.499  0.00  0.00    +0.000 C 
ATOM     16  O   UNL     1       2.236   8.967  17.342  0.00  0.00    +0.000 OA
ATOM     17  N   UNL     1       2.309   7.252  18.859  0.00  0.00    +0.000 N 
ATOM     18  C   UNL     1       2.073   6.705  20.186  0.00  0.00    +0.000 C 
BRANCH  17  19
ATOM     19  C   UNL     1       2.618   6.291  17.795  0.00  0.00    +0.000 C 
BRANCH  19  20
ATOM     20  C   UNL     1       2.613   4.841  18.231  0.00  0.00    +0.000 A 
ATOM     21  C   UNL     1       1.480   4.032  18.059  0.00  0.00    +0.000 A 
ATOM     22  C   UNL     1       1.494   2.685  18.427  0.00  0.00    +0.000 A 
ATOM     23  C   UNL     1       2.649   2.120  18.958  0.00  0.00    +0.000 A 
ATOM     24  C   UNL     1       3.792   2.900  19.112  0.00  0.00    +0.000 A 
ATOM     25  C   UNL     1       3.776   4.251  18.751  0.00  0.00    +0.000 A 
ENDBRANCH  19  20
ENDBRANCH  17  19
ENDBRANCH  14  15
ENDBRANCH  11  14
TORSDOF 4
ENDMDL
MODEL 8
REMARK VINA RESULT:      -7.0      2.451      8.362
REMARK  Name = 
REMARK  6 active torsions:
REMARK  status: ('A' for Active; 'I' for Inactive)
REMARK    1  A    between atoms: C_1  and  C_2
REMARK    2  A    between atoms: C_11  and  C_12
REMARK    3  A    between atoms: C_12  and  C_13
REMARK    4  A    between atoms: N_15  and  C_16
REMARK    5  A    between atoms: N_15  and  C_17
REMARK    6  A    between atoms: C_17  and  C_18
REMARK                            x       y       z     vdW  Elec       q    Type
REMARK                         _______ _______ _______ _____ _____    ______ ____
ROOT
ATOM      1  C   UNL     1      -0.389  10.317  23.299  0.00  0.00    +0.000 C 
ATOM      2  C   UNL     1       0.172   9.712  22.046  0.00  0.00    +0.000 A 
ATOM      3  C   UNL     1       0.021  10.347  20.806  0.00  0.00    +0.000 A 
ATOM      4  C   UNL     1       0.570   9.786  19.649  0.00  0.00    +0.000 A 
ATOM      5  C   UNL     1       1.271   8.586  19.721  0.00  0.00    +0.000 A 
ATOM      6  C   UNL     1       1.372   7.919  20.947  0.00  0.00    +0.000 A 
ATOM      7  C   UNL     1       0.848   8.486  22.108  0.00  0.00    +0.000 A 
ATOM      8  N   UNL     1       1.935   6.642  21.006  0.00  0.00    +0.000 N 
ATOM      9  C   UNL     1       2.468   6.057  19.885  0.00  0.00    +0.000 C 
ATOM     10  O   UNL     1       2.815   4.881  19.882  0.00  0.00    +0.000 OA
ATOM     11  C   UNL     1       2.725   7.049  18.740  0.00  0.00    +0.000 C 
ATOM     12  O   UNL     1       1.782   8.096  18.545  0.00  0.00    +0.000 OA
ATOM     13  H   UNL     1       1.839   6.068  21.830  0.00  0.00    +0.000 HD
ENDROOT
BRANCH  11  14
ATOM     14  C   UNL     1       3.011   6.297  17.438  0.00  0.00    +0.000 C 
BRANCH  14  15
ATOM     15  C   UNL     1       4.498   6.185  17.147  0.00  0.00    +0.000 C 
ATOM     16  O   UNL     1       5.213   7.190  17.153  0.00  0.00    +0.000 OA
ATOM     17  N   UNL     1       5.030   4.915  16.944  0.00  0.00    +0.000 N 
ATOM     18  C   UNL     1       4.241   3.697  16.860  0.00  0.00    +0.000 C 
BRANCH  17  19
ATOM     19  C   UNL     1       6.447   4.810  16.580  0.00  0.00    +0.000 C 
BRANCH  19  20
ATOM     20  C   UNL     1       6.708   4.626  15.099  0.00  0.00    +0.000 A 
ATOM     21  C   UNL     1       5.951   3.727  14.332  0.00  0.00    +0.000 A 
ATOM     22  C   UNL     1       6.168   3.591  12.959  0.00  0.00    +0.000 A 
ATOM     23  C   UNL     1       7.137   4.364  12.328  0.00  0.00    +0.000 A 
ATOM     24  C   UNL     1       7.881   5.280  13.067  0.00  0.00    +0.000 A 
ATOM     25  C   UNL     1       7.668   5.412  14.443  0.00  0.00    +0.000 A 
ENDBRANCH  19  20
ENDBRANCH  17  19
ENDBRANCH  14  15
ENDBRANCH  11  14
TORSDOF 4
ENDMDL
MODEL 9
REMARK VINA RESULT:      -7.0      0.911      1.142
REMARK  Name = 
REMARK  6 active torsions:
REMARK  status: ('A' for Active; 'I' for Inactive)
REMARK    1  A    between atoms: C_1  and  C_2
REMARK    2  A    between atoms: C_11  and  C_12
REMARK    3  A    between atoms: C_12  and  C_13
REMARK    4  A    between atoms: N_15  and  C_16
REMARK    5  A    between atoms: N_15  and  C_17
REMARK    6  A    between atoms: C_17  and  C_18
REMARK                            x       y       z     vdW  Elec       q    Type
REMARK                         _______ _______ _______ _____ _____    ______ ____
ROOT
ATOM      1  C   UNL     1       6.269   3.734  15.617  0.00  0.00    +0.000 C 
ATOM      2  C   UNL     1       5.470   4.809  16.293  0.00  0.00    +0.000 A 
ATOM      3  C   UNL     1       5.593   6.151  15.909  0.00  0.00    +0.000 A 
ATOM      4  C   UNL     1       4.825   7.141  16.528  0.00  0.00    +0.000 A 
ATOM      5  C   UNL     1       3.933   6.799  17.540  0.00  0.00    +0.000 A 
ATOM      6  C   UNL     1       3.851   5.469  17.968  0.00  0.00    +0.000 A 
ATOM      7  C   UNL     1       4.596   4.475  17.336  0.00  0.00    +0.000 A 
ATOM      8  N   UNL     1       3.078   5.139  19.083  0.00  0.00    +0.000 N 
ATOM      9  C   UNL     1       2.325   6.090  19.724  0.00  0.00    +0.000 C 
ATOM     10  O   UNL     1       1.774   5.855  20.793  0.00  0.00    +0.000 OA
ATOM     11  C   UNL     1       2.124   7.370  18.898  0.00  0.00    +0.000 C 
ATOM     12  O   UNL     1       3.212   7.824  18.102  0.00  0.00    +0.000 OA
ATOM     13  H   UNL     1       3.160   4.235  19.524  0.00  0.00    +0.000 HD
ENDROOT
BRANCH  11  14
ATOM     14  C   UNL     1       1.563   8.490  19.778  0.00  0.00    +0.000 C 
BRANCH  14  15
ATOM     15  C   UNL     1       0.890   9.584  18.966  0.00  0.00    +0.000 C 
ATOM     16  O   UNL     1       0.602   9.395  17.782  0.00  0.00    +0.000 OA
ATOM     17  N   UNL     1       0.552  10.766  19.617  0.00  0.00    +0.000 N 
ATOM     18  C   UNL     1       0.916  11.083  20.989  0.00  0.00    +0.000 C 
BRANCH  17  19
ATOM     19  C   UNL     1      -0.020  11.855  18.818  0.00  0.00    +0.000 C 
BRANCH  19  20
ATOM     20  C   UNL     1      -1.529  11.968  18.892  0.00  0.00    +0.000 A 
ATOM     21  C   UNL     1      -2.352  11.390  17.913  0.00  0.00    +0.000 A 
ATOM     22  C   UNL     1      -3.743  11.462  18.007  0.00  0.00    +0.000 A 
ATOM     23  C   UNL     1      -4.335  12.102  19.091  0.00  0.00    +0.000 A 
ATOM     24  C   UNL     1      -3.537  12.659  20.086  0.00  0.00    +0.000 A 
ATOM     25  C   UNL     1      -2.143  12.592  19.989  0.00  0.00    +0.000 A 
ENDBRANCH  19  20
ENDBRANCH  17  19
ENDBRANCH  14  15
ENDBRANCH  11  14
TORSDOF 4
ENDMDL
