MODEL 1
REMARK VINA RESULT:      -8.7      0.000      0.000
REMARK  Name = 
REMARK  9 active torsions:
REMARK  status: ('A' for Active; 'I' for Inactive)
REMARK    1  A    between atoms: C_1  and  C_2
REMARK    2  A    between atoms: C_2  and  O_3
REMARK    3  A    between atoms: O_3  and  C_4
REMARK    4  A    between atoms: C_8  and  C_9
REMARK    5  A    between atoms: C_11  and  C_12
REMARK    6  A    between atoms: C_12  and  N_13
REMARK    7  A    between atoms: N_13  and  C_14
REMARK    8  A    between atoms: C_14  and  C_15
REMARK    9  A    between atoms: C_14  and  C_16
REMARK                            x       y       z     vdW  Elec       q    Type
REMARK                         _______ _______ _______ _____ _____    ______ ____
ROOT
ATOM      1  C   UNL     1       6.527   5.894  16.421  0.00  0.00    +0.000 C 
ENDROOT
BRANCH   1   4
ATOM      2  C   UNL     1       8.152   8.575  18.076  0.00  0.00    +0.000 A 
ATOM      3  N   UNL     1       7.437   8.135  17.061  0.00  0.00    +0.000 NA
ATOM      4  C   UNL     1       7.293   6.793  17.318  0.00  0.00    +0.000 A 
ATOM      5  C   UNL     1       7.945   6.477  18.489  0.00  0.00    +0.000 A 
ATOM      6  O   UNL     1       8.516   7.605  18.974  0.00  0.00    +0.000 OA
BRANCH   2  11
ATOM      7  C   UNL     1       9.721  11.473  19.837  0.00  0.00    +0.000 A 
ATOM      8  C   UNL     1       9.383  12.525  18.973  0.00  0.00    +0.000 A 
ATOM      9  C   UNL     1       8.712  12.270  17.781  0.00  0.00    +0.000 A 
ATOM     10  C   UNL     1       8.349  10.974  17.448  0.00  0.00    +0.000 A 
ATOM     11  C   UNL     1       8.634   9.917  18.329  0.00  0.00    +0.000 A 
ATOM     12  C   UNL     1       9.339  10.153  19.523  0.00  0.00    +0.000 A 
BRANCH   7  13
ATOM     13  O   UNL     1      10.320  11.842  21.008  0.00  0.00    +0.000 OA
BRANCH  13  15
ATOM     14  C   UNL     1       8.630  12.157  22.665  0.00  0.00    +0.000 C 
ATOM     15  C   UNL     1       9.647  12.848  21.772  0.00  0.00    +0.000 C 
ENDBRANCH  13  15
ENDBRANCH   7  13
ENDBRANCH   2  11
ENDBRANCH   1   4
BRANCH   1  16
ATOM     16  N   UNL     1       5.090   6.205  16.401  0.00  0.00    +0.000 NA
ATOM     17  H   UNL     1       4.845   6.545  15.472  0.00  0.00    +0.000 HD
BRANCH  16  18
ATOM     18  C   UNL     1       4.224   5.052  16.731  0.00  0.00    +0.000 C 
ATOM     19  C   UNL     1       5.143   3.834  17.012  0.00  0.00    +0.000 C 
BRANCH  18  20
ATOM     20  C   UNL     1       3.251   5.389  17.881  0.00  0.00    +0.000 A 
ATOM     21  C   UNL     1       3.367   6.682  18.436  0.00  0.00    +0.000 A 
ATOM     22  C   UNL     1       2.639   7.080  19.552  0.00  0.00    +0.000 A 
ATOM     23  C   UNL     1       1.836   6.157  20.201  0.00  0.00    +0.000 A 
ATOM     24  C   UNL     1       1.728   4.850  19.725  0.00  0.00    +0.000 A 
ATOM     25  C   UNL     1       1.090   3.901  20.541  0.00  0.00    +0.000 A 
ATOM     26  C   UNL     1       0.993   2.576  20.148  0.00  0.00    +0.000 A 
ATOM     27  C   UNL     1       1.270   2.246  18.835  0.00  0.00    +0.000 A 
ATOM     28  C   UNL     1       1.936   3.175  18.017  0.00  0.00    +0.000 A 
ATOM     29  C   UNL     1       2.320   4.461  18.490  0.00  0.00    +0.000 A 
ENDBRANCH  18  20
ENDBRANCH  16  18
ENDBRANCH   1  16
TORSDOF 7
ENDMDL
MODEL 2
REMARK VINA RESULT:      -7.7      4.847      7.794
REMARK  Name = 
REMARK  9 active torsions:
REMARK  status: ('A' for Active; 'I' for Inactive)
REMARK    1  A    between atoms: C_1  and  C_2
REMARK    2  A    between atoms: C_2  and  O_3
REMARK    3  A    between atoms: O_3  and  C_4
REMARK    4  A    between atoms: C_8  and  C_9
REMARK    5  A    between atoms: C_11  and  C_12
REMARK    6  A    between atoms: C_12  and  N_13
REMARK    7  A    between atoms: N_13  and  C_14
REMARK    8  A    between atoms: C_14  and  C_15
REMARK    9  A    between atoms: C_14  and  C_16
REMARK                            x       y       z     vdW  Elec       q    Type
REMARK                         _______ _______ _______ _____ _____    ______ ____
ROOT
ATOM      1  C   UNL     1       1.482   7.065  20.633  0.00  0.00    +0.000 C 
ENDROOT
BRANCH   1   4
ATOM      2  C   UNL     1       4.017   6.488  18.224  0.00  0.00    +0.000 A 
ATOM      3  N   UNL     1       3.468   6.195  19.385  0.00  0.00    +0.000 NA
ATOM      4  C   UNL     1       2.404   7.060  19.471  0.00  0.00    +0.000 A 
ATOM      5  C   UNL     1       2.363   7.853  18.346  0.00  0.00    +0.000 A 
ATOM      6  O   UNL     1       3.402   7.510  17.548  0.00  0.00    +0.000 OA
BRANCH   2  11
ATOM      7  C   UNL     1       6.338   5.209  15.589  0.00  0.00    +0.000 A 
ATOM      8  C   UNL     1       7.328   4.604  16.377  0.00  0.00    +0.000 A 
ATOM      9  C   UNL     1       7.271   4.684  17.765  0.00  0.00    +0.000 A 
ATOM     10  C   UNL     1       6.221   5.344  18.383  0.00  0.00    +0.000 A 
ATOM     11  C   UNL     1       5.194   5.910  17.608  0.00  0.00    +0.000 A 
ATOM     12  C   UNL     1       5.252   5.864  16.203  0.00  0.00    +0.000 A 
BRANCH   7  13
ATOM     13  O   UNL     1       6.455   5.013  14.242  0.00  0.00    +0.000 OA
BRANCH  13  15
ATOM     14  C   UNL     1       6.451   3.622  12.302  0.00  0.00    +0.000 C 
ATOM     15  C   UNL     1       5.992   3.754  13.745  0.00  0.00    +0.000 C 
ENDBRANCH  13  15
ENDBRANCH   7  13
ENDBRANCH   2  11
ENDBRANCH   1   4
BRANCH   1  16
ATOM     16  N   UNL     1       1.514   8.333  21.377  0.00  0.00    +0.000 NA
ATOM     17  H   UNL     1       2.235   8.928  20.973  0.00  0.00    +0.000 HD
BRANCH  16  18
ATOM     18  C   UNL     1       0.229   9.064  21.367  0.00  0.00    +0.000 C 
ATOM     19  C   UNL     1      -0.196   9.298  22.841  0.00  0.00    +0.000 C 
BRANCH  18  20
ATOM     20  C   UNL     1       0.321  10.354  20.524  0.00  0.00    +0.000 A 
ATOM     21  C   UNL     1       1.097  11.401  21.069  0.00  0.00    +0.000 A 
ATOM     22  C   UNL     1       1.170  12.657  20.477  0.00  0.00    +0.000 A 
ATOM     23  C   UNL     1       0.392  12.928  19.364  0.00  0.00    +0.000 A 
ATOM     24  C   UNL     1      -0.434  11.945  18.818  0.00  0.00    +0.000 A 
ATOM     25  C   UNL     1      -1.365  12.334  17.840  0.00  0.00    +0.000 A 
ATOM     26  C   UNL     1      -2.246  11.415  17.293  0.00  0.00    +0.000 A 
ATOM     27  C   UNL     1      -2.020  10.067  17.499  0.00  0.00    +0.000 A 
ATOM     28  C   UNL     1      -1.113   9.664  18.495  0.00  0.00    +0.000 A 
ATOM     29  C   UNL     1      -0.399  10.603  19.291  0.00  0.00    +0.000 A 
ENDBRANCH  18  20
ENDBRANCH  16  18
ENDBRANCH   1  16
TORSDOF 7
ENDMDL
MODEL 3
REMARK VINA RESULT:      -7.7      4.780      8.157
REMARK  Name = 
REMARK  9 active torsions:
REMARK  status: ('A' for Active; 'I' for Inactive)
REMARK    1  A    between atoms: C_1  and  C_2
REMARK    2  A    between atoms: C_2  and  O_3
REMARK    3  A    between atoms: O_3  and  C_4
REMARK    4  A    between atoms: C_8  and  C_9
REMARK    5  A    between atoms: C_11  and  C_12
REMARK    6  A    between atoms: C_12  and  N_13
REMARK    7  A    between atoms: N_13  and  C_14
REMARK    8  A    between atoms: C_14  and  C_15
REMARK    9  A    between atoms: C_14  and  C_16
REMARK                            x       y       z     vdW  Elec       q    Type
REMARK                         _______ _______ _______ _____ _____    ______ ____
ROOT
ATOM      1  C   UNL     1       6.597   4.508  17.892  0.00  0.00    +0.000 C 
ENDROOT
BRANCH   1   4
ATOM      2  C   UNL     1       5.992   4.224  14.411  0.00  0.00    +0.000 A 
ATOM      3  N   UNL     1       6.170   3.648  15.582  0.00  0.00    +0.000 NA
ATOM      4  C   UNL     1       6.369   4.703  16.440  0.00  0.00    +0.000 A 
ATOM      5  C   UNL     1       6.310   5.884  15.736  0.00  0.00    +0.000 A 
ATOM      6  O   UNL     1       6.088   5.592  14.432  0.00  0.00    +0.000 OA
BRANCH   2  11
ATOM      7  C   UNL     1       4.256   3.187  11.268  0.00  0.00    +0.000 A 
ATOM      8  C   UNL     1       5.169   2.255  10.755  0.00  0.00    +0.000 A 
ATOM      9  C   UNL     1       6.383   2.028  11.398  0.00  0.00    +0.000 A 
ATOM     10  C   UNL     1       6.689   2.706  12.568  0.00  0.00    +0.000 A 
ATOM     11  C   UNL     1       5.761   3.603  13.123  0.00  0.00    +0.000 A 
ATOM     12  C   UNL     1       4.543   3.866  12.470  0.00  0.00    +0.000 A 
BRANCH   7  13
ATOM     13  O   UNL     1       3.070   3.283  10.596  0.00  0.00    +0.000 OA
BRANCH  13  15
ATOM     14  C   UNL     1       2.132   4.986   9.210  0.00  0.00    +0.000 C 
ATOM     15  C   UNL     1       3.135   3.846   9.282  0.00  0.00    +0.000 C 
ENDBRANCH  13  15
ENDBRANCH   7  13
ENDBRANCH   2  11
ENDBRANCH   1   4
BRANCH   1  16
ATOM     16  N   UNL     1       5.612   3.605  18.505  0.00  0.00    +0.000 NA
ATOM     17  H   UNL     1       5.652   3.720  19.517  0.00  0.00    +0.000 HD
BRANCH  16  18
ATOM     18  C   UNL     1       4.224   3.838  18.052  0.00  0.00    +0.000 C 
ATOM     19  C   UNL     1       3.568   2.455  17.799  0.00  0.00    +0.000 C 
BRANCH  18  20
ATOM     20  C   UNL     1       3.450   4.734  19.043  0.00  0.00    +0.000 A 
ATOM     21  C   UNL     1       2.907   4.085  20.174  0.00  0.00    +0.000 A 
ATOM     22  C   UNL     1       2.088   4.743  21.085  0.00  0.00    +0.000 A 
ATOM     23  C   UNL     1       1.715   6.053  20.838  0.00  0.00    +0.000 A 
ATOM     24  C   UNL     1       2.180   6.723  19.705  0.00  0.00    +0.000 A 
ATOM     25  C   UNL     1       1.595   7.959  19.383  0.00  0.00    +0.000 A 
ATOM     26  C   UNL     1       1.979   8.652  18.245  0.00  0.00    +0.000 A 
ATOM     27  C   UNL     1       3.130   8.266  17.584  0.00  0.00    +0.000 A 
ATOM     28  C   UNL     1       3.707   7.018  17.875  0.00  0.00    +0.000 A 
ATOM     29  C   UNL     1       3.156   6.139  18.849  0.00  0.00    +0.000 A 
ENDBRANCH  18  20
ENDBRANCH  16  18
ENDBRANCH   1  16
TORSDOF 7
ENDMDL
MODEL 4
REMARK VINA RESULT:      -7.7      5.913      8.892
REMARK  Name = 
REMARK  9 active torsions:
REMARK  status: ('A' for Active; 'I' for Inactive)
REMARK    1  A    between atoms: C_1  and  C_2
REMARK    2  A    between atoms: C_2  and  O_3
REMARK    3  A    between atoms: O_3  and  C_4
REMARK    4  A    between atoms: C_8  and  C_9
REMARK    5  A    between atoms: C_11  and  C_12
REMARK    6  A    between atoms: C_12  and  N_13
REMARK    7  A    between atoms: N_13  and  C_14
REMARK    8  A    between atoms: C_14  and  C_15
REMARK    9  A    between atoms: C_14  and  C_16
REMARK                            x       y       z     vdW  Elec       q    Type
REMARK                         _______ _______ _______ _____ _____    ______ ____
ROOT
ATOM      1  C   UNL     1       0.752  10.216  20.216  0.00  0.00    +0.000 C 
ENDROOT
BRANCH   1   4
ATOM      2  C   UNL     1       2.239   7.119  19.343  0.00  0.00    +0.000 A 
ATOM      3  N   UNL     1       1.891   8.345  19.008  0.00  0.00    +0.000 NA
ATOM      4  C   UNL     1       1.289   8.836  20.142  0.00  0.00    +0.000 A 
ATOM      5  C   UNL     1       1.293   7.868  21.120  0.00  0.00    +0.000 A 
ATOM      6  O   UNL     1       1.881   6.757  20.616  0.00  0.00    +0.000 OA
BRANCH   2  11
ATOM      7  C   UNL     1       4.721   5.513  17.057  0.00  0.00    +0.000 A 
ATOM      8  C   UNL     1       4.083   4.295  16.785  0.00  0.00    +0.000 A 
ATOM      9  C   UNL     1       2.882   3.972  17.411  0.00  0.00    +0.000 A 
ATOM     10  C   UNL     1       2.293   4.865  18.292  0.00  0.00    +0.000 A 
ATOM     11  C   UNL     1       2.894   6.112  18.534  0.00  0.00    +0.000 A 
ATOM     12  C   UNL     1       4.123   6.441  17.933  0.00  0.00    +0.000 A 
BRANCH   7  13
ATOM     13  O   UNL     1       5.858   5.757  16.339  0.00  0.00    +0.000 OA
BRANCH  13  15
ATOM     14  C   UNL     1       7.597   4.633  17.530  0.00  0.00    +0.000 C 
ATOM     15  C   UNL     1       6.787   4.673  16.244  0.00  0.00    +0.000 C 
ENDBRANCH  13  15
ENDBRANCH   7  13
ENDBRANCH   2  11
ENDBRANCH   1   4
BRANCH   1  16
ATOM     16  N   UNL     1      -0.700  10.273  19.989  0.00  0.00    +0.000 NA
ATOM     17  H   UNL     1      -1.171  10.205  20.890  0.00  0.00    +0.000 HD
BRANCH  16  18
ATOM     18  C   UNL     1      -1.150  11.504  19.306  0.00  0.00    +0.000 C 
ATOM     19  C   UNL     1       0.101  12.201  18.709  0.00  0.00    +0.000 C 
BRANCH  18  20
ATOM     20  C   UNL     1      -2.259  11.204  18.275  0.00  0.00    +0.000 A 
ATOM     21  C   UNL     1      -1.853  10.529  17.102  0.00  0.00    +0.000 A 
ATOM     22  C   UNL     1      -2.719  10.299  16.039  0.00  0.00    +0.000 A 
ATOM     23  C   UNL     1      -4.001  10.822  16.085  0.00  0.00    +0.000 A 
ATOM     24  C   UNL     1      -4.435  11.544  17.198  0.00  0.00    +0.000 A 
ATOM     25  C   UNL     1      -5.651  12.241  17.099  0.00  0.00    +0.000 A 
ATOM     26  C   UNL     1      -6.114  13.014  18.151  0.00  0.00    +0.000 A 
ATOM     27  C   UNL     1      -5.526  12.874  19.394  0.00  0.00    +0.000 A 
ATOM     28  C   UNL     1      -4.294  12.205  19.502  0.00  0.00    +0.000 A 
ATOM     29  C   UNL     1      -3.636  11.645  18.371  0.00  0.00    +0.000 A 
ENDBRANCH  18  20
ENDBRANCH  16  18
ENDBRANCH   1  16
TORSDOF 7
ENDMDL
MODEL 5
REMARK VINA RESULT:      -7.7      4.648      7.458
REMARK  Name = 
REMARK  9 active torsions:
REMARK  status: ('A' for Active; 'I' for Inactive)
REMARK    1  A    between atoms: C_1  and  C_2
REMARK    2  A    between atoms: C_2  and  O_3
REMARK    3  A    between atoms: O_3  and  C_4
REMARK    4  A    between atoms: C_8  and  C_9
REMARK    5  A    between atoms: C_11  and  C_12
REMARK    6  A    between atoms: C_12  and  N_13
REMARK    7  A    between atoms: N_13  and  C_14
REMARK    8  A    between atoms: C_14  and  C_15
REMARK    9  A    between atoms: C_14  and  C_16
REMARK                            x       y       z     vdW  Elec       q    Type
REMARK                         _______ _______ _______ _____ _____    ______ ____
ROOT
ATOM      1  C   UNL     1       3.258   7.034  17.862  0.00  0.00    +0.000 C 
ENDROOT
BRANCH   1   4
ATOM      2  C   UNL     1       1.161   9.225  19.698  0.00  0.00    +0.000 A 
ATOM      3  N   UNL     1       1.905   8.138  19.653  0.00  0.00    +0.000 NA
ATOM      4  C   UNL     1       2.357   8.103  18.356  0.00  0.00    +0.000 A 
ATOM      5  C   UNL     1       1.852   9.181  17.665  0.00  0.00    +0.000 A 
ATOM      6  O   UNL     1       1.069   9.897  18.506  0.00  0.00    +0.000 OA
BRANCH   2  11
ATOM      7  C   UNL     1      -0.448  11.698  21.991  0.00  0.00    +0.000 A 
ATOM      8  C   UNL     1      -0.842  10.865  23.047  0.00  0.00    +0.000 A 
ATOM      9  C   UNL     1      -0.648   9.488  22.970  0.00  0.00    +0.000 A 
ATOM     10  C   UNL     1      -0.041   8.931  21.856  0.00  0.00    +0.000 A 
ATOM     11  C   UNL     1       0.406   9.759  20.812  0.00  0.00    +0.000 A 
ATOM     12  C   UNL     1       0.191  11.149  20.861  0.00  0.00    +0.000 A 
BRANCH   7  13
ATOM     13  O   UNL     1      -0.625  13.037  22.198  0.00  0.00    +0.000 OA
BRANCH  13  15
ATOM     14  C   UNL     1      -2.753  13.986  22.717  0.00  0.00    +0.000 C 
ATOM     15  C   UNL     1      -1.474  13.399  23.291  0.00  0.00    +0.000 C 
ENDBRANCH  13  15
ENDBRANCH   7  13
ENDBRANCH   2  11
ENDBRANCH   1   4
BRANCH   1  16
ATOM     16  N   UNL     1       2.625   5.707  17.875  0.00  0.00    +0.000 NA
ATOM     17  H   UNL     1       2.516   5.391  16.912  0.00  0.00    +0.000 HD
BRANCH  16  18
ATOM     18  C   UNL     1       3.386   4.689  18.629  0.00  0.00    +0.000 C 
ATOM     19  C   UNL     1       2.762   3.303  18.318  0.00  0.00    +0.000 C 
BRANCH  18  20
ATOM     20  C   UNL     1       4.899   4.782  18.333  0.00  0.00    +0.000 A 
ATOM     21  C   UNL     1       5.716   5.216  19.400  0.00  0.00    +0.000 A 
ATOM     22  C   UNL     1       7.076   5.459  19.243  0.00  0.00    +0.000 A 
ATOM     23  C   UNL     1       7.641   5.360  17.982  0.00  0.00    +0.000 A 
ATOM     24  C   UNL     1       6.865   4.988  16.883  0.00  0.00    +0.000 A 
ATOM     25  C   UNL     1       7.426   5.125  15.603  0.00  0.00    +0.000 A 
ATOM     26  C   UNL     1       6.692   4.818  14.469  0.00  0.00    +0.000 A 
ATOM     27  C   UNL     1       5.512   4.112  14.607  0.00  0.00    +0.000 A 
ATOM     28  C   UNL     1       4.924   3.994  15.878  0.00  0.00    +0.000 A 
ATOM     29  C   UNL     1       5.516   4.563  17.041  0.00  0.00    +0.000 A 
ENDBRANCH  18  20
ENDBRANCH  16  18
ENDBRANCH   1  16
TORSDOF 7
ENDMDL
MODEL 6
REMARK VINA RESULT:      -7.6      5.887      9.032
REMARK  Name = 
REMARK  9 active torsions:
REMARK  status: ('A' for Active; 'I' for Inactive)
REMARK    1  A    between atoms: C_1  and  C_2
REMARK    2  A    between atoms: C_2  and  O_3
REMARK    3  A    between atoms: O_3  and  C_4
REMARK    4  A    between atoms: C_8  and  C_9
REMARK    5  A    between atoms: C_11  and  C_12
REMARK    6  A    between atoms: C_12  and  N_13
REMARK    7  A    between atoms: N_13  and  C_14
REMARK    8  A    between atoms: C_14  and  C_15
REMARK    9  A    between atoms: C_14  and  C_16
REMARK                            x       y       z     vdW  Elec       q    Type
REMARK                         _______ _______ _______ _____ _____    ______ ____
ROOT
ATOM      1  C   UNL     1       0.380  10.548  20.635  0.00  0.00    +0.000 C 
ENDROOT
BRANCH   1   4
ATOM      2  C   UNL     1       2.042   7.658  19.429  0.00  0.00    +0.000 A 
ATOM      3  N   UNL     1       1.615   8.888  19.228  0.00  0.00    +0.000 NA
ATOM      4  C   UNL     1       0.999   9.219  20.411  0.00  0.00    +0.000 A 
ATOM      5  C   UNL     1       1.076   8.156  21.282  0.00  0.00    +0.000 A 
ATOM      6  O   UNL     1       1.723   7.142  20.659  0.00  0.00    +0.000 OA
BRANCH   2  11
ATOM      7  C   UNL     1       3.181   4.532  17.729  0.00  0.00    +0.000 A 
ATOM      8  C   UNL     1       4.231   5.025  16.941  0.00  0.00    +0.000 A 
ATOM      9  C   UNL     1       4.510   6.388  16.910  0.00  0.00    +0.000 A 
ATOM     10  C   UNL     1       3.767   7.269  17.679  0.00  0.00    +0.000 A 
ATOM     11  C   UNL     1       2.746   6.784  18.515  0.00  0.00    +0.000 A 
ATOM     12  C   UNL     1       2.431   5.412  18.534  0.00  0.00    +0.000 A 
BRANCH   7  13
ATOM     13  O   UNL     1       3.036   3.173  17.736  0.00  0.00    +0.000 OA
BRANCH  13  15
ATOM     14  C   UNL     1       4.183   2.413  19.687  0.00  0.00    +0.000 C 
ATOM     15  C   UNL     1       2.829   2.567  19.015  0.00  0.00    +0.000 C 
ENDBRANCH  13  15
ENDBRANCH   7  13
ENDBRANCH   2  11
ENDBRANCH   1   4
BRANCH   1  16
ATOM     16  N   UNL     1       0.484  11.427  19.460  0.00  0.00    +0.000 NA
ATOM     17  H   UNL     1       0.652  10.850  18.638  0.00  0.00    +0.000 HD
BRANCH  16  18
ATOM     18  C   UNL     1      -0.718  12.255  19.225  0.00  0.00    +0.000 C 
ATOM     19  C   UNL     1      -0.271  13.542  18.483  0.00  0.00    +0.000 C 
BRANCH  18  20
ATOM     20  C   UNL     1      -1.820  11.456  18.497  0.00  0.00    +0.000 A 
ATOM     21  C   UNL     1      -1.378  10.527  17.529  0.00  0.00    +0.000 A 
ATOM     22  C   UNL     1      -2.262   9.825  16.715  0.00  0.00    +0.000 A 
ATOM     23  C   UNL     1      -3.616  10.105  16.787  0.00  0.00    +0.000 A 
ATOM     24  C   UNL     1      -4.099  11.054  17.688  0.00  0.00    +0.000 A 
ATOM     25  C   UNL     1      -5.438  11.462  17.562  0.00  0.00    +0.000 A 
ATOM     26  C   UNL     1      -5.965  12.436  18.395  0.00  0.00    +0.000 A 
ATOM     27  C   UNL     1      -5.262  12.800  19.528  0.00  0.00    +0.000 A 
ATOM     28  C   UNL     1      -3.912  12.424  19.651  0.00  0.00    +0.000 A 
ATOM     29  C   UNL     1      -3.246  11.659  18.654  0.00  0.00    +0.000 A 
ENDBRANCH  18  20
ENDBRANCH  16  18
ENDBRANCH   1  16
TORSDOF 7
ENDMDL
MODEL 7
REMARK VINA RESULT:      -7.6      5.970      9.156
REMARK  Name = 
REMARK  9 active torsions:
REMARK  status: ('A' for Active; 'I' for Inactive)
REMARK    1  A    between atoms: C_1  and  C_2
REMARK    2  A    between atoms: C_2  and  O_3
REMARK    3  A    between atoms: O_3  and  C_4
REMARK    4  A    between atoms: C_8  and  C_9
REMARK    5  A    between atoms: C_11  and  C_12
REMARK    6  A    between atoms: C_12  and  N_13
REMARK    7  A    between atoms: N_13  and  C_14
REMARK    8  A    between atoms: C_14  and  C_15
REMARK    9  A    between atoms: C_14  and  C_16
REMARK                            x       y       z     vdW  Elec       q    Type
REMARK                         _______ _______ _______ _____ _____    ______ ____
ROOT
ATOM      1  C   UNL     1       1.371  10.556  18.439  0.00  0.00    +0.000 C 
ENDROOT
BRANCH   1   4
ATOM      2  C   UNL     1       2.365   7.158  18.621  0.00  0.00    +0.000 A 
ATOM      3  N   UNL     1       2.203   8.256  17.912  0.00  0.00    +0.000 NA
ATOM      4  C   UNL     1       1.693   9.158  18.815  0.00  0.00    +0.000 A 
ATOM      5  C   UNL     1       1.561   8.553  20.044  0.00  0.00    +0.000 A 
ATOM      6  O   UNL     1       1.969   7.266  19.930  0.00  0.00    +0.000 OA
BRANCH   2  11
ATOM      7  C   UNL     1       4.694   4.518  17.369  0.00  0.00    +0.000 A 
ATOM      8  C   UNL     1       3.800   3.464  17.133  0.00  0.00    +0.000 A 
ATOM      9  C   UNL     1       2.453   3.596  17.458  0.00  0.00    +0.000 A 
ATOM     10  C   UNL     1       1.978   4.782  17.996  0.00  0.00    +0.000 A 
ATOM     11  C   UNL     1       2.852   5.865  18.189  0.00  0.00    +0.000 A 
ATOM     12  C   UNL     1       4.222   5.738  17.894  0.00  0.00    +0.000 A 
BRANCH   7  13
ATOM     13  O   UNL     1       5.978   4.306  16.954  0.00  0.00    +0.000 OA
BRANCH  13  15
ATOM     14  C   UNL     1       5.883   4.975  14.664  0.00  0.00    +0.000 C 
ATOM     15  C   UNL     1       6.137   3.819  15.618  0.00  0.00    +0.000 C 
ENDBRANCH  13  15
ENDBRANCH   7  13
ENDBRANCH   2  11
ENDBRANCH   1   4
BRANCH   1  16
ATOM     16  N   UNL     1       0.016  10.697  17.886  0.00  0.00    +0.000 NA
ATOM     17  H   UNL     1      -0.429   9.781  17.882  0.00  0.00    +0.000 HD
BRANCH  16  18
ATOM     18  C   UNL     1      -0.840  11.642  18.635  0.00  0.00    +0.000 C 
ATOM     19  C   UNL     1      -0.286  13.072  18.403  0.00  0.00    +0.000 C 
BRANCH  18  20
ATOM     20  C   UNL     1      -2.328  11.471  18.262  0.00  0.00    +0.000 A 
ATOM     21  C   UNL     1      -2.592  10.842  17.025  0.00  0.00    +0.000 A 
ATOM     22  C   UNL     1      -3.878  10.730  16.509  0.00  0.00    +0.000 A 
ATOM     23  C   UNL     1      -4.932  11.328  17.178  0.00  0.00    +0.000 A 
ATOM     24  C   UNL     1      -4.718  12.009  18.377  0.00  0.00    +0.000 A 
ATOM     25  C   UNL     1      -5.769  12.785  18.892  0.00  0.00    +0.000 A 
ATOM     26  C   UNL     1      -5.604  13.524  20.053  0.00  0.00    +0.000 A 
ATOM     27  C   UNL     1      -4.506  13.274  20.854  0.00  0.00    +0.000 A 
ATOM     28  C   UNL     1      -3.434  12.525  20.340  0.00  0.00    +0.000 A 
ATOM     29  C   UNL     1      -3.448  11.992  19.020  0.00  0.00    +0.000 A 
ENDBRANCH  18  20
ENDBRANCH  16  18
ENDBRANCH   1  16
TORSDOF 7
ENDMDL
MODEL 8
REMARK VINA RESULT:      -7.5      1.280      1.523
REMARK  Name = 
REMARK  9 active torsions:
REMARK  status: ('A' for Active; 'I' for Inactive)
REMARK    1  A    between atoms: C_1  and  C_2
REMARK    2  A    between atoms: C_2  and  O_3
REMARK    3  A    between atoms: O_3  and  C_4
REMARK    4  A    between atoms: C_8  and  C_9
REMARK    5  A    between atoms: C_11  and  C_12
REMARK    6  A    between atoms: C_12  and  N_13
REMARK    7  A    between atoms: N_13  and  C_14
REMARK    8  A    between atoms: C_14  and  C_15
REMARK    9  A    between atoms: C_14  and  C_16
REMARK                            x       y       z     vdW  Elec       q    Type
REMARK                         _______ _______ _______ _____ _____    ______ ____
ROOT
ATOM      1  C   UNL     1       6.578   6.183  16.785  0.00  0.00    +0.000 C 
ENDROOT
BRANCH   1   4
ATOM      2  C   UNL     1       8.222   9.077  18.004  0.00  0.00    +0.000 A 
ATOM      3  N   UNL     1       7.463   8.503  17.094  0.00  0.00    +0.000 NA
ATOM      4  C   UNL     1       7.370   7.199  17.519  0.00  0.00    +0.000 A 
ATOM      5  C   UNL     1       8.094   7.042  18.679  0.00  0.00    +0.000 A 
ATOM      6  O   UNL     1       8.662   8.232  18.990  0.00  0.00    +0.000 OA
BRANCH   2  11
ATOM      7  C   UNL     1      10.225  12.074  18.989  0.00  0.00    +0.000 A 
ATOM      8  C   UNL     1       9.474  13.101  18.400  0.00  0.00    +0.000 A 
ATOM      9  C   UNL     1       8.361  12.804  17.619  0.00  0.00    +0.000 A 
ATOM     10  C   UNL     1       7.970  11.486  17.437  0.00  0.00    +0.000 A 
ATOM     11  C   UNL     1       8.682  10.449  18.064  0.00  0.00    +0.000 A 
ATOM     12  C   UNL     1       9.827  10.731  18.831  0.00  0.00    +0.000 A 
BRANCH   7  13
ATOM     13  O   UNL     1      11.257  12.480  19.787  0.00  0.00    +0.000 OA
BRANCH  13  15
ATOM     14  C   UNL     1      12.292  14.619  19.546  0.00  0.00    +0.000 C 
ATOM     15  C   UNL     1      12.333  13.157  19.130  0.00  0.00    +0.000 C 
ENDBRANCH  13  15
ENDBRANCH   7  13
ENDBRANCH   2  11
ENDBRANCH   1   4
BRANCH   1  16
ATOM     16  N   UNL     1       5.139   6.484  16.774  0.00  0.00    +0.000 NA
ATOM     17  H   UNL     1       4.899   6.882  15.867  0.00  0.00    +0.000 HD
BRANCH  16  18
ATOM     18  C   UNL     1       4.280   5.307  17.022  0.00  0.00    +0.000 C 
ATOM     19  C   UNL     1       5.203   4.071  17.185  0.00  0.00    +0.000 C 
BRANCH  18  20
ATOM     20  C   UNL     1       3.326   5.545  18.212  0.00  0.00    +0.000 A 
ATOM     21  C   UNL     1       2.992   6.891  18.481  0.00  0.00    +0.000 A 
ATOM     22  C   UNL     1       2.240   7.262  19.591  0.00  0.00    +0.000 A 
ATOM     23  C   UNL     1       1.877   6.298  20.516  0.00  0.00    +0.000 A 
ATOM     24  C   UNL     1       2.229   4.961  20.325  0.00  0.00    +0.000 A 
ATOM     25  C   UNL     1       2.038   4.069  21.393  0.00  0.00    +0.000 A 
ATOM     26  C   UNL     1       2.411   2.739  21.284  0.00  0.00    +0.000 A 
ATOM     27  C   UNL     1       2.707   2.228  20.034  0.00  0.00    +0.000 A 
ATOM     28  C   UNL     1       2.930   3.111  18.964  0.00  0.00    +0.000 A 
ATOM     29  C   UNL     1       2.842   4.523  19.117  0.00  0.00    +0.000 A 
ENDBRANCH  18  20
ENDBRANCH  16  18
ENDBRANCH   1  16
TORSDOF 7
ENDMDL
MODEL 9
REMARK VINA RESULT:      -7.5      5.991      8.338
REMARK  Name = 
REMARK  9 active torsions:
REMARK  status: ('A' for Active; 'I' for Inactive)
REMARK    1  A    between atoms: C_1  and  C_2
REMARK    2  A    between atoms: C_2  and  O_3
REMARK    3  A    between atoms: O_3  and  C_4
REMARK    4  A    between atoms: C_8  and  C_9
REMARK    5  A    between atoms: C_11  and  C_12
REMARK    6  A    between atoms: C_12  and  N_13
REMARK    7  A    between atoms: N_13  and  C_14
REMARK    8  A    between atoms: C_14  and  C_15
REMARK    9  A    between atoms: C_14  and  C_16
REMARK                            x       y       z     vdW  Elec       q    Type
REMARK                         _______ _______ _______ _____ _____    ______ ____
ROOT
ATOM      1  C   UNL     1       1.127   7.387  20.912  0.00  0.00    +0.000 C 
ENDROOT
BRANCH   1   4
ATOM      2  C   UNL     1      -0.265  10.557  21.674  0.00  0.00    +0.000 A 
ATOM      3  N   UNL     1      -0.163   9.530  20.855  0.00  0.00    +0.000 NA
ATOM      4  C   UNL     1       0.728   8.695  21.486  0.00  0.00    +0.000 A 
ATOM      5  C   UNL     1       1.136   9.268  22.669  0.00  0.00    +0.000 A 
ATOM      6  O   UNL     1       0.523  10.469  22.793  0.00  0.00    +0.000 OA
BRANCH   2  11
ATOM      7  C   UNL     1      -3.038  13.026  22.097  0.00  0.00    +0.000 A 
ATOM      8  C   UNL     1      -2.722  13.955  21.096  0.00  0.00    +0.000 A 
ATOM      9  C   UNL     1      -1.562  13.811  20.340  0.00  0.00    +0.000 A 
ATOM     10  C   UNL     1      -0.720  12.731  20.555  0.00  0.00    +0.000 A 
ATOM     11  C   UNL     1      -1.051  11.763  21.518  0.00  0.00    +0.000 A 
ATOM     12  C   UNL     1      -2.204  11.910  22.312  0.00  0.00    +0.000 A 
BRANCH   7  13
ATOM     13  O   UNL     1      -4.231  13.226  22.733  0.00  0.00    +0.000 OA
BRANCH  13  15
ATOM     14  C   UNL     1      -4.704  12.407  24.926  0.00  0.00    +0.000 C 
ATOM     15  C   UNL     1      -4.156  13.573  24.119  0.00  0.00    +0.000 C 
ENDBRANCH  13  15
ENDBRANCH   7  13
ENDBRANCH   2  11
ENDBRANCH   1   4
BRANCH   1  16
ATOM     16  N   UNL     1       2.368   7.467  20.127  0.00  0.00    +0.000 NA
ATOM     17  H   UNL     1       3.036   6.800  20.509  0.00  0.00    +0.000 HD
BRANCH  16  18
ATOM     18  C   UNL     1       2.183   7.188  18.687  0.00  0.00    +0.000 C 
ATOM     19  C   UNL     1       2.627   8.448  17.898  0.00  0.00    +0.000 C 
BRANCH  18  20
ATOM     20  C   UNL     1       2.907   5.891  18.266  0.00  0.00    +0.000 A 
ATOM     21  C   UNL     1       4.019   6.048  17.411  0.00  0.00    +0.000 A 
ATOM     22  C   UNL     1       4.691   4.963  16.859  0.00  0.00    +0.000 A 
ATOM     23  C   UNL     1       4.208   3.684  17.078  0.00  0.00    +0.000 A 
ATOM     24  C   UNL     1       3.079   3.477  17.872  0.00  0.00    +0.000 A 
ATOM     25  C   UNL     1       2.500   2.197  17.876  0.00  0.00    +0.000 A 
ATOM     26  C   UNL     1       1.351   1.939  18.605  0.00  0.00    +0.000 A 
ATOM     27  C   UNL     1       0.936   2.860  19.549  0.00  0.00    +0.000 A 
ATOM     28  C   UNL     1       1.485   4.154  19.536  0.00  0.00    +0.000 A 
ATOM     29  C   UNL     1       2.475   4.547  18.592  0.00  0.00    +0.000 A 
ENDBRANCH  18  20
ENDBRANCH  16  18
ENDBRANCH   1  16
TORSDOF 7
ENDMDL
