MODEL 1
REMARK VINA RESULT:      -6.7      0.000      0.000
REMARK  Name = 
REMARK  5 active torsions:
REMARK  status: ('A' for Active; 'I' for Inactive)
REMARK    1  A    between atoms: C_1  and  O_2
REMARK    2  A    between atoms: O_2  and  C_3
REMARK    3  A    between atoms: C_6  and  C_7
REMARK    4  A    between atoms: C_12  and  C_13
REMARK    5  A    between atoms: N_22  and  C_23
REMARK                            x       y       z     vdW  Elec       q    Type
REMARK                         _______ _______ _______ _____ _____    ______ ____
ROOT
ATOM      1  C   UNL     1       1.536   7.532  20.169  0.00  0.00    +0.000 C 
ATOM      2  C   UNL     1       1.259   6.301  20.611  0.00  0.00    +0.000 C 
ATOM      3  C   UNL     1       1.718   5.068  19.920  0.00  0.00    +0.000 C 
ATOM      4  O   UNL     1       2.483   4.301  20.864  0.00  0.00    +0.000 OA
ATOM      5  N   UNL     1       3.820   4.228  20.430  0.00  0.00    +0.000 NA
ATOM      6  C   UNL     1       3.883   4.744  19.241  0.00  0.00    +0.000 C 
ATOM      7  C   UNL     1       2.592   5.269  18.707  0.00  0.00    +0.000 C 
ATOM      8  C   UNL     1       2.646   6.687  18.176  0.00  0.00    +0.000 C 
ATOM      9  O   UNL     1       3.049   6.886  17.025  0.00  0.00    +0.000 OA
ATOM     10  N   UNL     1       2.266   7.732  19.011  0.00  0.00    +0.000 N 
ATOM     11  C   UNL     1       2.560   9.088  18.550  0.00  0.00    +0.000 C 
ENDROOT
BRANCH   1  15
ATOM     12  C   UNL     1      -0.312  10.724  22.350  0.00  0.00    +0.000 A 
ATOM     13  C   UNL     1       0.515   9.810  23.007  0.00  0.00    +0.000 A 
ATOM     14  C   UNL     1       1.150   8.785  22.300  0.00  0.00    +0.000 A 
ATOM     15  C   UNL     1       0.953   8.658  20.922  0.00  0.00    +0.000 A 
ATOM     16  C   UNL     1       0.114   9.571  20.266  0.00  0.00    +0.000 A 
ATOM     17  C   UNL     1      -0.517  10.599  20.976  0.00  0.00    +0.000 A 
BRANCH  12  19
ATOM     18  C   UNL     1      -2.301  11.853  22.962  0.00  0.00    +0.000 C 
ATOM     19  O   UNL     1      -0.904  11.659  23.155  0.00  0.00    +0.000 OA
ENDBRANCH  12  19
ENDBRANCH   1  15
BRANCH   6  20
ATOM     20  C   UNL     1       5.148   4.778  18.469  0.00  0.00    +0.000 A 
ATOM     21  C   UNL     1       6.311   5.346  18.998  0.00  0.00    +0.000 A 
ATOM     22  C   UNL     1       7.504   5.314  18.271  0.00  0.00    +0.000 A 
ATOM     23  C   UNL     1       7.531   4.743  17.002  0.00  0.00    +0.000 A 
ATOM     24  C   UNL     1       6.365   4.215  16.450  0.00  0.00    +0.000 A 
ATOM     25  C   UNL     1       5.174   4.236  17.179  0.00  0.00    +0.000 A 
ENDBRANCH   6  20
TORSDOF 3
ENDMDL
MODEL 2
REMARK VINA RESULT:      -6.6      3.241      5.291
REMARK  Name = 
REMARK  5 active torsions:
REMARK  status: ('A' for Active; 'I' for Inactive)
REMARK    1  A    between atoms: C_1  and  O_2
REMARK    2  A    between atoms: O_2  and  C_3
REMARK    3  A    between atoms: C_6  and  C_7
REMARK    4  A    between atoms: C_12  and  C_13
REMARK    5  A    between atoms: N_22  and  C_23
REMARK                            x       y       z     vdW  Elec       q    Type
REMARK                         _______ _______ _______ _____ _____    ______ ____
ROOT
ATOM      1  C   UNL     1       4.595   5.464  17.727  0.00  0.00    +0.000 C 
ATOM      2  C   UNL     1       5.847   5.932  17.666  0.00  0.00    +0.000 C 
ATOM      3  C   UNL     1       6.916   5.286  16.862  0.00  0.00    +0.000 C 
ATOM      4  O   UNL     1       7.422   6.268  15.944  0.00  0.00    +0.000 OA
ATOM      5  N   UNL     1       7.129   5.868  14.626  0.00  0.00    +0.000 NA
ATOM      6  C   UNL     1       6.639   4.668  14.672  0.00  0.00    +0.000 C 
ATOM      7  C   UNL     1       6.503   4.090  16.041  0.00  0.00    +0.000 C 
ATOM      8  C   UNL     1       5.137   3.522  16.366  0.00  0.00    +0.000 C 
ATOM      9  O   UNL     1       4.855   2.377  15.999  0.00  0.00    +0.000 OA
ATOM     10  N   UNL     1       4.222   4.319  17.046  0.00  0.00    +0.000 N 
ATOM     11  C   UNL     1       2.847   3.829  17.126  0.00  0.00    +0.000 C 
ENDROOT
BRANCH   1  15
ATOM     12  C   UNL     1       1.751   7.477  20.222  0.00  0.00    +0.000 A 
ATOM     13  C   UNL     1       2.303   6.259  20.626  0.00  0.00    +0.000 A 
ATOM     14  C   UNL     1       3.257   5.610  19.836  0.00  0.00    +0.000 A 
ATOM     15  C   UNL     1       3.662   6.172  18.622  0.00  0.00    +0.000 A 
ATOM     16  C   UNL     1       3.098   7.390  18.213  0.00  0.00    +0.000 A 
ATOM     17  C   UNL     1       2.146   8.040  19.008  0.00  0.00    +0.000 A 
BRANCH  12  19
ATOM     18  C   UNL     1       1.220   9.086  21.874  0.00  0.00    +0.000 C 
ATOM     19  O   UNL     1       0.803   7.995  21.061  0.00  0.00    +0.000 OA
ENDBRANCH  12  19
ENDBRANCH   1  15
BRANCH   6  20
ATOM     20  C   UNL     1       6.269   3.926  13.443  0.00  0.00    +0.000 A 
ATOM     21  C   UNL     1       7.226   3.237  12.691  0.00  0.00    +0.000 A 
ATOM     22  C   UNL     1       6.841   2.499  11.570  0.00  0.00    +0.000 A 
ATOM     23  C   UNL     1       5.506   2.471  11.177  0.00  0.00    +0.000 A 
ATOM     24  C   UNL     1       4.553   3.192  11.896  0.00  0.00    +0.000 A 
ATOM     25  C   UNL     1       4.934   3.923  13.024  0.00  0.00    +0.000 A 
ENDBRANCH   6  20
TORSDOF 3
ENDMDL
MODEL 3
REMARK VINA RESULT:      -6.6      2.731      4.550
REMARK  Name = 
REMARK  5 active torsions:
REMARK  status: ('A' for Active; 'I' for Inactive)
REMARK    1  A    between atoms: C_1  and  O_2
REMARK    2  A    between atoms: O_2  and  C_3
REMARK    3  A    between atoms: C_6  and  C_7
REMARK    4  A    between atoms: C_12  and  C_13
REMARK    5  A    between atoms: N_22  and  C_23
REMARK                            x       y       z     vdW  Elec       q    Type
REMARK                         _______ _______ _______ _____ _____    ______ ____
ROOT
ATOM      1  C   UNL     1       4.145   5.758  18.485  0.00  0.00    +0.000 C 
ATOM      2  C   UNL     1       5.389   6.126  18.811  0.00  0.00    +0.000 C 
ATOM      3  C   UNL     1       6.600   5.518  18.203  0.00  0.00    +0.000 C 
ATOM      4  O   UNL     1       7.367   6.578  17.610  0.00  0.00    +0.000 OA
ATOM      5  N   UNL     1       7.406   6.401  16.214  0.00  0.00    +0.000 NA
ATOM      6  C   UNL     1       6.869   5.251  15.942  0.00  0.00    +0.000 C 
ATOM      7  C   UNL     1       6.361   4.492  17.123  0.00  0.00    +0.000 C 
ATOM      8  C   UNL     1       4.935   3.998  17.004  0.00  0.00    +0.000 C 
ATOM      9  O   UNL     1       4.708   2.945  16.398  0.00  0.00    +0.000 OA
ATOM     10  N   UNL     1       3.911   4.760  17.557  0.00  0.00    +0.000 N 
ATOM     11  C   UNL     1       2.542   4.378  17.214  0.00  0.00    +0.000 C 
ENDROOT
BRANCH   1  15
ATOM     12  C   UNL     1       1.057   7.667  20.762  0.00  0.00    +0.000 A 
ATOM     13  C   UNL     1       1.608   8.308  19.650  0.00  0.00    +0.000 A 
ATOM     14  C   UNL     1       2.593   7.681  18.880  0.00  0.00    +0.000 A 
ATOM     15  C   UNL     1       3.044   6.403  19.224  0.00  0.00    +0.000 A 
ATOM     16  C   UNL     1       2.496   5.766  20.348  0.00  0.00    +0.000 A 
ATOM     17  C   UNL     1       1.507   6.395  21.114  0.00  0.00    +0.000 A 
BRANCH  12  19
ATOM     18  C   UNL     1       0.640   9.242  22.479  0.00  0.00    +0.000 C 
ATOM     19  O   UNL     1       0.129   8.396  21.455  0.00  0.00    +0.000 OA
ENDBRANCH  12  19
ENDBRANCH   1  15
BRANCH   6  20
ATOM     20  C   UNL     1       6.796   4.729  14.557  0.00  0.00    +0.000 A 
ATOM     21  C   UNL     1       5.857   3.758  14.191  0.00  0.00    +0.000 A 
ATOM     22  C   UNL     1       5.773   3.326  12.866  0.00  0.00    +0.000 A 
ATOM     23  C   UNL     1       6.645   3.837  11.908  0.00  0.00    +0.000 A 
ATOM     24  C   UNL     1       7.612   4.771  12.275  0.00  0.00    +0.000 A 
ATOM     25  C   UNL     1       7.692   5.213  13.597  0.00  0.00    +0.000 A 
ENDBRANCH   6  20
TORSDOF 3
ENDMDL
MODEL 4
REMARK VINA RESULT:      -6.6      2.954      9.288
REMARK  Name = 
REMARK  5 active torsions:
REMARK  status: ('A' for Active; 'I' for Inactive)
REMARK    1  A    between atoms: C_1  and  O_2
REMARK    2  A    between atoms: O_2  and  C_3
REMARK    3  A    between atoms: C_6  and  C_7
REMARK    4  A    between atoms: C_12  and  C_13
REMARK    5  A    between atoms: N_22  and  C_23
REMARK                            x       y       z     vdW  Elec       q    Type
REMARK                         _______ _______ _______ _____ _____    ______ ____
ROOT
ATOM      1  C   UNL     1       0.636  10.769  19.522  0.00  0.00    +0.000 C 
ATOM      2  C   UNL     1       1.424  11.758  19.957  0.00  0.00    +0.000 C 
ATOM      3  C   UNL     1       0.916  13.114  20.287  0.00  0.00    +0.000 C 
ATOM      4  O   UNL     1       1.273  13.392  21.651  0.00  0.00    +0.000 OA
ATOM      5  N   UNL     1       0.103  13.505  22.426  0.00  0.00    +0.000 NA
ATOM      6  C   UNL     1      -0.913  13.478  21.620  0.00  0.00    +0.000 C 
ATOM      7  C   UNL     1      -0.575  13.314  20.176  0.00  0.00    +0.000 C 
ATOM      8  C   UNL     1      -1.325  12.207  19.463  0.00  0.00    +0.000 C 
ATOM      9  O   UNL     1      -2.462  12.427  19.034  0.00  0.00    +0.000 OA
ATOM     10  N   UNL     1      -0.721  10.961  19.335  0.00  0.00    +0.000 N 
ATOM     11  C   UNL     1      -1.563   9.863  18.862  0.00  0.00    +0.000 C 
ENDROOT
BRANCH   1  15
ATOM     12  C   UNL     1       2.705   7.155  18.508  0.00  0.00    +0.000 A 
ATOM     13  C   UNL     1       2.131   7.306  19.774  0.00  0.00    +0.000 A 
ATOM     14  C   UNL     1       1.425   8.467  20.104  0.00  0.00    +0.000 A 
ATOM     15  C   UNL     1       1.294   9.498  19.169  0.00  0.00    +0.000 A 
ATOM     16  C   UNL     1       1.880   9.348  17.903  0.00  0.00    +0.000 A 
ATOM     17  C   UNL     1       2.583   8.183  17.574  0.00  0.00    +0.000 A 
BRANCH  12  19
ATOM     18  C   UNL     1       4.064   5.469  19.462  0.00  0.00    +0.000 C 
ATOM     19  O   UNL     1       3.400   5.992  18.318  0.00  0.00    +0.000 OA
ENDBRANCH  12  19
ENDBRANCH   1  15
BRANCH   6  20
ATOM     20  C   UNL     1      -2.304  13.628  22.110  0.00  0.00    +0.000 A 
ATOM     21  C   UNL     1      -2.903  12.655  22.918  0.00  0.00    +0.000 A 
ATOM     22  C   UNL     1      -4.194  12.849  23.413  0.00  0.00    +0.000 A 
ATOM     23  C   UNL     1      -4.904  13.998  23.078  0.00  0.00    +0.000 A 
ATOM     24  C   UNL     1      -4.331  14.951  22.237  0.00  0.00    +0.000 A 
ATOM     25  C   UNL     1      -3.036  14.765  21.749  0.00  0.00    +0.000 A 
ENDBRANCH   6  20
TORSDOF 3
ENDMDL
MODEL 5
REMARK VINA RESULT:      -6.5      3.289      9.467
REMARK  Name = 
REMARK  5 active torsions:
REMARK  status: ('A' for Active; 'I' for Inactive)
REMARK    1  A    between atoms: C_1  and  O_2
REMARK    2  A    between atoms: O_2  and  C_3
REMARK    3  A    between atoms: C_6  and  C_7
REMARK    4  A    between atoms: C_12  and  C_13
REMARK    5  A    between atoms: N_22  and  C_23
REMARK                            x       y       z     vdW  Elec       q    Type
REMARK                         _______ _______ _______ _____ _____    ______ ____
ROOT
ATOM      1  C   UNL     1       0.551  11.044  19.681  0.00  0.00    +0.000 C 
ATOM      2  C   UNL     1       1.291  12.068  20.121  0.00  0.00    +0.000 C 
ATOM      3  C   UNL     1       0.715  13.385  20.494  0.00  0.00    +0.000 C 
ATOM      4  O   UNL     1       1.090  13.653  21.855  0.00  0.00    +0.000 OA
ATOM      5  N   UNL     1      -0.065  13.681  22.660  0.00  0.00    +0.000 NA
ATOM      6  C   UNL     1      -1.098  13.613  21.879  0.00  0.00    +0.000 C 
ATOM      7  C   UNL     1      -0.788  13.500  20.423  0.00  0.00    +0.000 C 
ATOM      8  C   UNL     1      -1.490  12.368  19.702  0.00  0.00    +0.000 C 
ATOM      9  O   UNL     1      -2.649  12.530  19.306  0.00  0.00    +0.000 OA
ATOM     10  N   UNL     1      -0.819  11.162  19.531  0.00  0.00    +0.000 N 
ATOM     11  C   UNL     1      -1.608  10.027  19.052  0.00  0.00    +0.000 C 
ENDROOT
BRANCH   1  15
ATOM     12  C   UNL     1       2.495   7.408  18.516  0.00  0.00    +0.000 A 
ATOM     13  C   UNL     1       2.358   8.456  17.602  0.00  0.00    +0.000 A 
ATOM     14  C   UNL     1       1.756   9.659  17.981  0.00  0.00    +0.000 A 
ATOM     15  C   UNL     1       1.272   9.822  19.283  0.00  0.00    +0.000 A 
ATOM     16  C   UNL     1       1.401   8.763  20.195  0.00  0.00    +0.000 A 
ATOM     17  C   UNL     1       2.009   7.562  19.813  0.00  0.00    +0.000 A 
BRANCH  12  19
ATOM     18  C   UNL     1       2.272   5.092  18.078  0.00  0.00    +0.000 C 
ATOM     19  O   UNL     1       3.068   6.270  18.016  0.00  0.00    +0.000 OA
ENDBRANCH  12  19
ENDBRANCH   1  15
BRANCH   6  20
ATOM     20  C   UNL     1      -2.483  13.671  22.405  0.00  0.00    +0.000 A 
ATOM     21  C   UNL     1      -2.996  12.658  23.222  0.00  0.00    +0.000 A 
ATOM     22  C   UNL     1      -4.284  12.766  23.751  0.00  0.00    +0.000 A 
ATOM     23  C   UNL     1      -5.075  13.869  23.441  0.00  0.00    +0.000 A 
ATOM     24  C   UNL     1      -4.587  14.860  22.591  0.00  0.00    +0.000 A 
ATOM     25  C   UNL     1      -3.295  14.760  22.069  0.00  0.00    +0.000 A 
ENDBRANCH   6  20
TORSDOF 3
ENDMDL
MODEL 6
REMARK VINA RESULT:      -6.5      2.789      4.618
REMARK  Name = 
REMARK  5 active torsions:
REMARK  status: ('A' for Active; 'I' for Inactive)
REMARK    1  A    between atoms: C_1  and  O_2
REMARK    2  A    between atoms: O_2  and  C_3
REMARK    3  A    between atoms: C_6  and  C_7
REMARK    4  A    between atoms: C_12  and  C_13
REMARK    5  A    between atoms: N_22  and  C_23
REMARK                            x       y       z     vdW  Elec       q    Type
REMARK                         _______ _______ _______ _____ _____    ______ ____
ROOT
ATOM      1  C   UNL     1       4.204   5.572  18.456  0.00  0.00    +0.000 C 
ATOM      2  C   UNL     1       5.446   5.947  18.781  0.00  0.00    +0.000 C 
ATOM      3  C   UNL     1       6.658   5.384  18.134  0.00  0.00    +0.000 C 
ATOM      4  O   UNL     1       7.400   6.479  17.574  0.00  0.00    +0.000 OA
ATOM      5  N   UNL     1       7.423   6.357  16.171  0.00  0.00    +0.000 NA
ATOM      6  C   UNL     1       6.902   5.211  15.861  0.00  0.00    +0.000 C 
ATOM      7  C   UNL     1       6.422   4.398  17.017  0.00  0.00    +0.000 C 
ATOM      8  C   UNL     1       5.002   3.884  16.896  0.00  0.00    +0.000 C 
ATOM      9  O   UNL     1       4.785   2.853  16.252  0.00  0.00    +0.000 OA
ATOM     10  N   UNL     1       3.974   4.607  17.492  0.00  0.00    +0.000 N 
ATOM     11  C   UNL     1       2.607   4.216  17.151  0.00  0.00    +0.000 C 
ENDROOT
BRANCH   1  15
ATOM     12  C   UNL     1       1.112   7.325  20.850  0.00  0.00    +0.000 A 
ATOM     13  C   UNL     1       1.700   8.056  19.815  0.00  0.00    +0.000 A 
ATOM     14  C   UNL     1       2.686   7.483  19.006  0.00  0.00    +0.000 A 
ATOM     15  C   UNL     1       3.102   6.168  19.233  0.00  0.00    +0.000 A 
ATOM     16  C   UNL     1       2.517   5.439  20.280  0.00  0.00    +0.000 A 
ATOM     17  C   UNL     1       1.528   6.015  21.085  0.00  0.00    +0.000 A 
BRANCH  12  19
ATOM     18  C   UNL     1       0.360   9.417  21.663  0.00  0.00    +0.000 C 
ATOM     19  O   UNL     1       0.186   8.006  21.592  0.00  0.00    +0.000 OA
ENDBRANCH  12  19
ENDBRANCH   1  15
BRANCH   6  20
ATOM     20  C   UNL     1       6.819   4.742  14.457  0.00  0.00    +0.000 A 
ATOM     21  C   UNL     1       7.732   5.175  13.488  0.00  0.00    +0.000 A 
ATOM     22  C   UNL     1       7.666   4.674  12.186  0.00  0.00    +0.000 A 
ATOM     23  C   UNL     1       6.671   3.764  11.839  0.00  0.00    +0.000 A 
ATOM     24  C   UNL     1       5.731   3.362  12.787  0.00  0.00    +0.000 A 
ATOM     25  C   UNL     1       5.801   3.854  14.093  0.00  0.00    +0.000 A 
ENDBRANCH   6  20
TORSDOF 3
ENDMDL
MODEL 7
REMARK VINA RESULT:      -6.5      2.955      9.505
REMARK  Name = 
REMARK  5 active torsions:
REMARK  status: ('A' for Active; 'I' for Inactive)
REMARK    1  A    between atoms: C_1  and  O_2
REMARK    2  A    between atoms: O_2  and  C_3
REMARK    3  A    between atoms: C_6  and  C_7
REMARK    4  A    between atoms: C_12  and  C_13
REMARK    5  A    between atoms: N_22  and  C_23
REMARK                            x       y       z     vdW  Elec       q    Type
REMARK                         _______ _______ _______ _____ _____    ______ ____
ROOT
ATOM      1  C   UNL     1       0.499  11.095  19.804  0.00  0.00    +0.000 C 
ATOM      2  C   UNL     1       1.235  12.106  20.279  0.00  0.00    +0.000 C 
ATOM      3  C   UNL     1       0.655  13.415  20.675  0.00  0.00    +0.000 C 
ATOM      4  O   UNL     1       1.010  13.649  22.047  0.00  0.00    +0.000 OA
ATOM      5  N   UNL     1      -0.158  13.662  22.835  0.00  0.00    +0.000 NA
ATOM      6  C   UNL     1      -1.179  13.615  22.036  0.00  0.00    +0.000 C 
ATOM      7  C   UNL     1      -0.845  13.536  20.583  0.00  0.00    +0.000 C 
ATOM      8  C   UNL     1      -1.539  12.423  19.824  0.00  0.00    +0.000 C 
ATOM      9  O   UNL     1      -2.691  12.598  19.414  0.00  0.00    +0.000 OA
ATOM     10  N   UNL     1      -0.868  11.220  19.635  0.00  0.00    +0.000 N 
ATOM     11  C   UNL     1      -1.652  10.099  19.117  0.00  0.00    +0.000 C 
ENDROOT
BRANCH   1  15
ATOM     12  C   UNL     1       2.453   7.480  18.588  0.00  0.00    +0.000 A 
ATOM     13  C   UNL     1       2.302   8.536  17.686  0.00  0.00    +0.000 A 
ATOM     14  C   UNL     1       1.696   9.732  18.081  0.00  0.00    +0.000 A 
ATOM     15  C   UNL     1       1.224   9.880  19.388  0.00  0.00    +0.000 A 
ATOM     16  C   UNL     1       1.367   8.814  20.290  0.00  0.00    +0.000 A 
ATOM     17  C   UNL     1       1.978   7.620  19.892  0.00  0.00    +0.000 A 
BRANCH  12  19
ATOM     18  C   UNL     1       3.901   5.642  18.946  0.00  0.00    +0.000 C 
ATOM     19  O   UNL     1       3.028   6.350  18.074  0.00  0.00    +0.000 OA
ENDBRANCH  12  19
ENDBRANCH   1  15
BRANCH   6  20
ATOM     20  C   UNL     1      -2.571  13.665  22.541  0.00  0.00    +0.000 A 
ATOM     21  C   UNL     1      -3.447  14.691  22.169  0.00  0.00    +0.000 A 
ATOM     22  C   UNL     1      -4.770  14.682  22.615  0.00  0.00    +0.000 A 
ATOM     23  C   UNL     1      -5.216  13.667  23.458  0.00  0.00    +0.000 A 
ATOM     24  C   UNL     1      -4.337  12.666  23.868  0.00  0.00    +0.000 A 
ATOM     25  C   UNL     1      -3.015  12.667  23.416  0.00  0.00    +0.000 A 
ENDBRANCH   6  20
TORSDOF 3
ENDMDL
MODEL 8
REMARK VINA RESULT:      -6.5      2.944      9.402
REMARK  Name = 
REMARK  5 active torsions:
REMARK  status: ('A' for Active; 'I' for Inactive)
REMARK    1  A    between atoms: C_1  and  O_2
REMARK    2  A    between atoms: O_2  and  C_3
REMARK    3  A    between atoms: C_6  and  C_7
REMARK    4  A    between atoms: C_12  and  C_13
REMARK    5  A    between atoms: N_22  and  C_23
REMARK                            x       y       z     vdW  Elec       q    Type
REMARK                         _______ _______ _______ _____ _____    ______ ____
ROOT
ATOM      1  C   UNL     1       0.549  10.920  19.620  0.00  0.00    +0.000 C 
ATOM      2  C   UNL     1       1.323  11.915  20.066  0.00  0.00    +0.000 C 
ATOM      3  C   UNL     1       0.794  13.258  20.418  0.00  0.00    +0.000 C 
ATOM      4  O   UNL     1       1.153  13.522  21.784  0.00  0.00    +0.000 OA
ATOM      5  N   UNL     1      -0.016  13.604  22.566  0.00  0.00    +0.000 NA
ATOM      6  C   UNL     1      -1.035  13.572  21.764  0.00  0.00    +0.000 C 
ATOM      7  C   UNL     1      -0.701  13.434  20.316  0.00  0.00    +0.000 C 
ATOM      8  C   UNL     1      -1.435  12.326  19.589  0.00  0.00    +0.000 C 
ATOM      9  O   UNL     1      -2.578  12.533  19.169  0.00  0.00    +0.000 OA
ATOM     10  N   UNL     1      -0.811  11.092  19.440  0.00  0.00    +0.000 N 
ATOM     11  C   UNL     1      -1.637   9.987  18.955  0.00  0.00    +0.000 C 
ENDROOT
BRANCH   1  15
ATOM     12  C   UNL     1       2.673   7.356  18.546  0.00  0.00    +0.000 A 
ATOM     13  C   UNL     1       2.095   7.475  19.812  0.00  0.00    +0.000 A 
ATOM     14  C   UNL     1       1.371   8.620  20.162  0.00  0.00    +0.000 A 
ATOM     15  C   UNL     1       1.228   9.665  19.245  0.00  0.00    +0.000 A 
ATOM     16  C   UNL     1       1.818   9.547  17.978  0.00  0.00    +0.000 A 
ATOM     17  C   UNL     1       2.539   8.399  17.630  0.00  0.00    +0.000 A 
BRANCH  12  19
ATOM     18  C   UNL     1       4.268   6.216  17.220  0.00  0.00    +0.000 C 
ATOM     19  O   UNL     1       3.386   6.207  18.336  0.00  0.00    +0.000 OA
ENDBRANCH  12  19
ENDBRANCH   1  15
BRANCH   6  20
ATOM     20  C   UNL     1      -2.426  13.692  22.262  0.00  0.00    +0.000 A 
ATOM     21  C   UNL     1      -3.249  14.758  21.881  0.00  0.00    +0.000 A 
ATOM     22  C   UNL     1      -4.574  14.815  22.319  0.00  0.00    +0.000 A 
ATOM     23  C   UNL     1      -5.073  13.827  23.163  0.00  0.00    +0.000 A 
ATOM     24  C   UNL     1      -4.246  12.786  23.583  0.00  0.00    +0.000 A 
ATOM     25  C   UNL     1      -2.923  12.720  23.138  0.00  0.00    +0.000 A 
ENDBRANCH   6  20
TORSDOF 3
ENDMDL
MODEL 9
REMARK VINA RESULT:      -6.5      0.169      1.374
REMARK  Name = 
REMARK  5 active torsions:
REMARK  status: ('A' for Active; 'I' for Inactive)
REMARK    1  A    between atoms: C_1  and  O_2
REMARK    2  A    between atoms: O_2  and  C_3
REMARK    3  A    between atoms: C_6  and  C_7
REMARK    4  A    between atoms: C_12  and  C_13
REMARK    5  A    between atoms: N_22  and  C_23
REMARK                            x       y       z     vdW  Elec       q    Type
REMARK                         _______ _______ _______ _____ _____    ______ ____
ROOT
ATOM      1  C   UNL     1       1.467   7.410  20.193  0.00  0.00    +0.000 C 
ATOM      2  C   UNL     1       1.204   6.170  20.621  0.00  0.00    +0.000 C 
ATOM      3  C   UNL     1       1.706   4.952  19.935  0.00  0.00    +0.000 C 
ATOM      4  O   UNL     1       2.463   4.194  20.892  0.00  0.00    +0.000 OA
ATOM      5  N   UNL     1       3.812   4.152  20.490  0.00  0.00    +0.000 NA
ATOM      6  C   UNL     1       3.893   4.676  19.306  0.00  0.00    +0.000 C 
ATOM      7  C   UNL     1       2.604   5.179  18.745  0.00  0.00    +0.000 C 
ATOM      8  C   UNL     1       2.642   6.600  18.223  0.00  0.00    +0.000 C 
ATOM      9  O   UNL     1       3.068   6.815  17.084  0.00  0.00    +0.000 OA
ATOM     10  N   UNL     1       2.220   7.632  19.055  0.00  0.00    +0.000 N 
ATOM     11  C   UNL     1       2.497   8.997  18.609  0.00  0.00    +0.000 C 
ENDROOT
BRANCH   1  15
ATOM     12  C   UNL     1      -0.189  10.705  22.377  0.00  0.00    +0.000 A 
ATOM     13  C   UNL     1      -0.375  10.612  20.995  0.00  0.00    +0.000 A 
ATOM     14  C   UNL     1       0.132   9.524  20.278  0.00  0.00    +0.000 A 
ATOM     15  C   UNL     1       0.843   8.519  20.939  0.00  0.00    +0.000 A 
ATOM     16  C   UNL     1       1.038   8.619  22.325  0.00  0.00    +0.000 A 
ATOM     17  C   UNL     1       0.525   9.708  23.041  0.00  0.00    +0.000 A 
BRANCH  12  19
ATOM     18  C   UNL     1      -2.111  11.851  23.148  0.00  0.00    +0.000 C 
ATOM     19  O   UNL     1      -0.700  11.832  22.960  0.00  0.00    +0.000 OA
ENDBRANCH  12  19
ENDBRANCH   1  15
BRANCH   6  20
ATOM     20  C   UNL     1       5.175   4.742  18.565  0.00  0.00    +0.000 A 
ATOM     21  C   UNL     1       5.296   4.227  17.270  0.00  0.00    +0.000 A 
ATOM     22  C   UNL     1       6.500   4.353  16.573  0.00  0.00    +0.000 A 
ATOM     23  C   UNL     1       7.595   4.965  17.177  0.00  0.00    +0.000 A 
ATOM     24  C   UNL     1       7.495   5.440  18.484  0.00  0.00    +0.000 A 
ATOM     25  C   UNL     1       6.289   5.324  19.179  0.00  0.00    +0.000 A 
ENDBRANCH   6  20
TORSDOF 3
ENDMDL
