MODEL 1
REMARK VINA RESULT:      -6.9      0.000      0.000
REMARK  Name = 
REMARK  4 active torsions:
REMARK  status: ('A' for Active; 'I' for Inactive)
REMARK    1  A    between atoms: C_1  and  C_2
REMARK    2  A    between atoms: C_5  and  C_6
REMARK    3  A    between atoms: C_7  and  C_8
REMARK    4  A    between atoms: C_9  and  S_10
REMARK                            x       y       z     vdW  Elec       q    Type
REMARK                         _______ _______ _______ _____ _____    ______ ____
ROOT
ATOM      1  C   UNL     1       8.865   9.210  18.942  0.00  0.00    +0.000 C 
ATOM      2  C   UNL     1       8.152   8.964  17.830  0.00  0.00    +0.000 C 
ENDROOT
BRANCH   1   7
ATOM      3  C   UNL     1      10.951  14.476  20.217  0.00  0.00    +0.000 C 
ATOM      4  C   UNL     1      10.427  13.110  19.881  0.00  0.00    +0.000 A 
ATOM      5  C   UNL     1      10.246  12.706  18.555  0.00  0.00    +0.000 A 
ATOM      6  C   UNL     1       9.743  11.430  18.263  0.00  0.00    +0.000 A 
ATOM      7  C   UNL     1       9.423  10.531  19.290  0.00  0.00    +0.000 A 
ATOM      8  C   UNL     1       9.598  10.949  20.616  0.00  0.00    +0.000 A 
ATOM      9  C   UNL     1      10.100  12.221  20.907  0.00  0.00    +0.000 A 
ENDBRANCH   1   7
BRANCH   2  10
ATOM     10  C   UNL     1       7.605   7.666  17.499  0.00  0.00    +0.000 C 
ATOM     11  C   UNL     1       7.766   6.605  18.303  0.00  0.00    +0.000 C 
BRANCH  11  12
ATOM     12  S   UNL     1       7.083   5.079  17.862  0.00  0.00    +0.000 S 
ATOM     13  O   UNL     1       8.032   4.330  17.061  0.00  0.00    +0.000 OA
ATOM     14  O   UNL     1       6.450   4.492  19.025  0.00  0.00    +0.000 OA
ATOM     15  F   UNL     1       5.889   5.420  16.872  0.00  0.00    +0.000 F 
ENDBRANCH  11  12
ENDBRANCH   2  10
TORSDOF 3
ENDMDL
MODEL 2
REMARK VINA RESULT:      -6.9      0.189      1.252
REMARK  Name = 
REMARK  4 active torsions:
REMARK  status: ('A' for Active; 'I' for Inactive)
REMARK    1  A    between atoms: C_1  and  C_2
REMARK    2  A    between atoms: C_5  and  C_6
REMARK    3  A    between atoms: C_7  and  C_8
REMARK    4  A    between atoms: C_9  and  S_10
REMARK                            x       y       z     vdW  Elec       q    Type
REMARK                         _______ _______ _______ _____ _____    ______ ____
ROOT
ATOM      1  C   UNL     1       8.851   9.353  18.954  0.00  0.00    +0.000 C 
ATOM      2  C   UNL     1       8.180   9.062  17.828  0.00  0.00    +0.000 C 
ENDROOT
BRANCH   1   7
ATOM      3  C   UNL     1      11.289  14.472  20.204  0.00  0.00    +0.000 C 
ATOM      4  C   UNL     1      10.643  13.155  19.886  0.00  0.00    +0.000 A 
ATOM      5  C   UNL     1      10.138  12.329  20.894  0.00  0.00    +0.000 A 
ATOM      6  C   UNL     1       9.551  11.096  20.576  0.00  0.00    +0.000 A 
ATOM      7  C   UNL     1       9.446  10.671  19.244  0.00  0.00    +0.000 A 
ATOM      8  C   UNL     1       9.965  11.501  18.241  0.00  0.00    +0.000 A 
ATOM      9  C   UNL     1      10.551  12.731  18.558  0.00  0.00    +0.000 A 
ENDBRANCH   1   7
BRANCH   2  10
ATOM     10  C   UNL     1       7.595   7.767  17.555  0.00  0.00    +0.000 C 
ATOM     11  C   UNL     1       7.847   6.700  18.328  0.00  0.00    +0.000 C 
BRANCH  11  12
ATOM     12  S   UNL     1       7.114   5.178  17.960  0.00  0.00    +0.000 S 
ATOM     13  O   UNL     1       8.030   4.368  17.181  0.00  0.00    +0.000 OA
ATOM     14  O   UNL     1       6.478   4.659  19.154  0.00  0.00    +0.000 OA
ATOM     15  F   UNL     1       5.918   5.512  16.971  0.00  0.00    +0.000 F 
ENDBRANCH  11  12
ENDBRANCH   2  10
TORSDOF 3
ENDMDL
MODEL 3
REMARK VINA RESULT:      -6.6      1.059      1.713
REMARK  Name = 
REMARK  4 active torsions:
REMARK  status: ('A' for Active; 'I' for Inactive)
REMARK    1  A    between atoms: C_1  and  C_2
REMARK    2  A    between atoms: C_5  and  C_6
REMARK    3  A    between atoms: C_7  and  C_8
REMARK    4  A    between atoms: C_9  and  S_10
REMARK                            x       y       z     vdW  Elec       q    Type
REMARK                         _______ _______ _______ _____ _____    ______ ____
ROOT
ATOM      1  C   UNL     1       8.915   9.528  18.915  0.00  0.00    +0.000 C 
ATOM      2  C   UNL     1       8.288   9.157  17.787  0.00  0.00    +0.000 C 
ENDROOT
BRANCH   1   7
ATOM      3  C   UNL     1      11.824  14.496  19.669  0.00  0.00    +0.000 C 
ATOM      4  C   UNL     1      11.058  13.219  19.480  0.00  0.00    +0.000 A 
ATOM      5  C   UNL     1      10.603  12.475  20.572  0.00  0.00    +0.000 A 
ATOM      6  C   UNL     1       9.900  11.278  20.373  0.00  0.00    +0.000 A 
ATOM      7  C   UNL     1       9.629  10.809  19.080  0.00  0.00    +0.000 A 
ATOM      8  C   UNL     1      10.098  11.556  17.992  0.00  0.00    +0.000 A 
ATOM      9  C   UNL     1      10.799  12.750  18.189  0.00  0.00    +0.000 A 
ENDBRANCH   1   7
BRANCH   2  10
ATOM     10  C   UNL     1       7.586   7.900  17.635  0.00  0.00    +0.000 C 
ATOM     11  C   UNL     1       7.855   6.842  18.414  0.00  0.00    +0.000 C 
BRANCH  11  12
ATOM     12  S   UNL     1       6.979   5.367  18.195  0.00  0.00    +0.000 S 
ATOM     13  O   UNL     1       5.874   5.585  17.282  0.00  0.00    +0.000 OA
ATOM     14  O   UNL     1       7.921   4.285  17.995  0.00  0.00    +0.000 OA
ATOM     15  F   UNL     1       6.300   5.066  19.598  0.00  0.00    +0.000 F 
ENDBRANCH  11  12
ENDBRANCH   2  10
TORSDOF 3
ENDMDL
MODEL 4
REMARK VINA RESULT:      -6.6      0.908      1.716
REMARK  Name = 
REMARK  4 active torsions:
REMARK  status: ('A' for Active; 'I' for Inactive)
REMARK    1  A    between atoms: C_1  and  C_2
REMARK    2  A    between atoms: C_5  and  C_6
REMARK    3  A    between atoms: C_7  and  C_8
REMARK    4  A    between atoms: C_9  and  S_10
REMARK                            x       y       z     vdW  Elec       q    Type
REMARK                         _______ _______ _______ _____ _____    ______ ____
ROOT
ATOM      1  C   UNL     1       8.866   9.124  18.822  0.00  0.00    +0.000 C 
ATOM      2  C   UNL     1       8.042   8.828  17.804  0.00  0.00    +0.000 C 
ENDROOT
BRANCH   1   7
ATOM      3  C   UNL     1      10.688  14.446  20.259  0.00  0.00    +0.000 C 
ATOM      4  C   UNL     1      10.201  13.074  19.894  0.00  0.00    +0.000 A 
ATOM      5  C   UNL     1       9.938  12.111  20.873  0.00  0.00    +0.000 A 
ATOM      6  C   UNL     1       9.497  10.830  20.510  0.00  0.00    +0.000 A 
ATOM      7  C   UNL     1       9.300  10.492  19.164  0.00  0.00    +0.000 A 
ATOM      8  C   UNL     1       9.576  11.460  18.190  0.00  0.00    +0.000 A 
ATOM      9  C   UNL     1      10.016  12.738  18.551  0.00  0.00    +0.000 A 
ENDBRANCH   1   7
BRANCH   2  10
ATOM     10  C   UNL     1       7.618   7.483  17.479  0.00  0.00    +0.000 C 
ATOM     11  C   UNL     1       7.382   6.567  18.431  0.00  0.00    +0.000 C 
BRANCH  11  12
ATOM     12  S   UNL     1       6.870   4.977  17.986  0.00  0.00    +0.000 S 
ATOM     13  O   UNL     1       6.308   4.303  19.141  0.00  0.00    +0.000 OA
ATOM     14  O   UNL     1       6.151   5.046  16.731  0.00  0.00    +0.000 OA
ATOM     15  F   UNL     1       8.202   4.180  17.653  0.00  0.00    +0.000 F 
ENDBRANCH  11  12
ENDBRANCH   2  10
TORSDOF 3
ENDMDL
MODEL 5
REMARK VINA RESULT:      -6.5      1.070      1.284
REMARK  Name = 
REMARK  4 active torsions:
REMARK  status: ('A' for Active; 'I' for Inactive)
REMARK    1  A    between atoms: C_1  and  C_2
REMARK    2  A    between atoms: C_5  and  C_6
REMARK    3  A    between atoms: C_7  and  C_8
REMARK    4  A    between atoms: C_9  and  S_10
REMARK                            x       y       z     vdW  Elec       q    Type
REMARK                         _______ _______ _______ _____ _____    ______ ____
ROOT
ATOM      1  C   UNL     1       9.085   9.529  18.860  0.00  0.00    +0.000 C 
ATOM      2  C   UNL     1       8.304   8.803  18.045  0.00  0.00    +0.000 C 
ENDROOT
BRANCH   1   7
ATOM      3  C   UNL     1      10.171  15.178  18.071  0.00  0.00    +0.000 C 
ATOM      4  C   UNL     1       9.894  13.714  18.258  0.00  0.00    +0.000 A 
ATOM      5  C   UNL     1       8.793  13.099  17.657  0.00  0.00    +0.000 A 
ATOM      6  C   UNL     1       8.545  11.733  17.856  0.00  0.00    +0.000 A 
ATOM      7  C   UNL     1       9.400  10.955  18.649  0.00  0.00    +0.000 A 
ATOM      8  C   UNL     1      10.495  11.583  19.257  0.00  0.00    +0.000 A 
ATOM      9  C   UNL     1      10.742  12.946  19.059  0.00  0.00    +0.000 A 
ENDBRANCH   1   7
BRANCH   2  10
ATOM     10  C   UNL     1       7.997   7.405  18.262  0.00  0.00    +0.000 C 
ATOM     11  C   UNL     1       7.343   6.674  17.347  0.00  0.00    +0.000 C 
BRANCH  11  12
ATOM     12  S   UNL     1       7.010   5.006  17.656  0.00  0.00    +0.000 S 
ATOM     13  O   UNL     1       8.065   4.184  17.094  0.00  0.00    +0.000 OA
ATOM     14  O   UNL     1       6.591   4.856  19.034  0.00  0.00    +0.000 OA
ATOM     15  F   UNL     1       5.721   4.665  16.795  0.00  0.00    +0.000 F 
ENDBRANCH  11  12
ENDBRANCH   2  10
TORSDOF 3
ENDMDL
MODEL 6
REMARK VINA RESULT:      -6.4      5.942      7.094
REMARK  Name = 
REMARK  4 active torsions:
REMARK  status: ('A' for Active; 'I' for Inactive)
REMARK    1  A    between atoms: C_1  and  C_2
REMARK    2  A    between atoms: C_5  and  C_6
REMARK    3  A    between atoms: C_7  and  C_8
REMARK    4  A    between atoms: C_9  and  S_10
REMARK                            x       y       z     vdW  Elec       q    Type
REMARK                         _______ _______ _______ _____ _____    ______ ____
ROOT
ATOM      1  C   UNL     1       3.259   6.905  17.996  0.00  0.00    +0.000 C 
ATOM      2  C   UNL     1       4.114   7.283  17.032  0.00  0.00    +0.000 C 
ENDROOT
BRANCH   1   7
ATOM      3  C   UNL     1      -0.353  10.516  20.757  0.00  0.00    +0.000 C 
ATOM      4  C   UNL     1       0.569   9.570  20.044  0.00  0.00    +0.000 A 
ATOM      5  C   UNL     1       1.147   8.481  20.704  0.00  0.00    +0.000 A 
ATOM      6  C   UNL     1       2.016   7.617  20.023  0.00  0.00    +0.000 A 
ATOM      7  C   UNL     1       2.314   7.818  18.667  0.00  0.00    +0.000 A 
ATOM      8  C   UNL     1       1.739   8.918  18.018  0.00  0.00    +0.000 A 
ATOM      9  C   UNL     1       0.872   9.780  18.697  0.00  0.00    +0.000 A 
ENDBRANCH   1   7
BRANCH   2  10
ATOM     10  C   UNL     1       5.034   6.379  16.375  0.00  0.00    +0.000 C 
ATOM     11  C   UNL     1       6.057   5.812  17.032  0.00  0.00    +0.000 C 
BRANCH  11  12
ATOM     12  S   UNL     1       7.121   4.733  16.200  0.00  0.00    +0.000 S 
ATOM     13  O   UNL     1       7.546   5.331  14.950  0.00  0.00    +0.000 OA
ATOM     14  O   UNL     1       8.080   4.196  17.144  0.00  0.00    +0.000 OA
ATOM     15  F   UNL     1       6.222   3.494  15.779  0.00  0.00    +0.000 F 
ENDBRANCH  11  12
ENDBRANCH   2  10
TORSDOF 3
ENDMDL
MODEL 7
REMARK VINA RESULT:      -6.3      1.726      2.065
REMARK  Name = 
REMARK  4 active torsions:
REMARK  status: ('A' for Active; 'I' for Inactive)
REMARK    1  A    between atoms: C_1  and  C_2
REMARK    2  A    between atoms: C_5  and  C_6
REMARK    3  A    between atoms: C_7  and  C_8
REMARK    4  A    between atoms: C_9  and  S_10
REMARK                            x       y       z     vdW  Elec       q    Type
REMARK                         _______ _______ _______ _____ _____    ______ ____
ROOT
ATOM      1  C   UNL     1       8.996   9.755  18.669  0.00  0.00    +0.000 C 
ATOM      2  C   UNL     1       8.391   8.906  17.821  0.00  0.00    +0.000 C 
ENDROOT
BRANCH   1   7
ATOM      3  C   UNL     1      11.074  14.933  17.063  0.00  0.00    +0.000 C 
ATOM      4  C   UNL     1      10.541  13.598  17.494  0.00  0.00    +0.000 A 
ATOM      5  C   UNL     1      11.391  12.587  17.952  0.00  0.00    +0.000 A 
ATOM      6  C   UNL     1      10.874  11.343  18.338  0.00  0.00    +0.000 A 
ATOM      7  C   UNL     1       9.496  11.089  18.285  0.00  0.00    +0.000 A 
ATOM      8  C   UNL     1       8.653  12.104  17.815  0.00  0.00    +0.000 A 
ATOM      9  C   UNL     1       9.168  13.345  17.430  0.00  0.00    +0.000 A 
ENDBRANCH   1   7
BRANCH   2  10
ATOM     10  C   UNL     1       7.899   7.601  18.208  0.00  0.00    +0.000 C 
ATOM     11  C   UNL     1       7.285   6.789  17.334  0.00  0.00    +0.000 C 
BRANCH  11  12
ATOM     12  S   UNL     1       6.725   5.237  17.848  0.00  0.00    +0.000 S 
ATOM     13  O   UNL     1       6.840   5.127  19.289  0.00  0.00    +0.000 OA
ATOM     14  O   UNL     1       5.483   4.934  17.166  0.00  0.00    +0.000 OA
ATOM     15  F   UNL     1       7.774   4.195  17.271  0.00  0.00    +0.000 F 
ENDBRANCH  11  12
ENDBRANCH   2  10
TORSDOF 3
ENDMDL
MODEL 8
REMARK VINA RESULT:      -6.3      4.836      7.502
REMARK  Name = 
REMARK  4 active torsions:
REMARK  status: ('A' for Active; 'I' for Inactive)
REMARK    1  A    between atoms: C_1  and  C_2
REMARK    2  A    between atoms: C_5  and  C_6
REMARK    3  A    between atoms: C_7  and  C_8
REMARK    4  A    between atoms: C_9  and  S_10
REMARK                            x       y       z     vdW  Elec       q    Type
REMARK                         _______ _______ _______ _____ _____    ______ ____
ROOT
ATOM      1  C   UNL     1       8.238   7.935  18.221  0.00  0.00    +0.000 C 
ATOM      2  C   UNL     1       8.071   9.214  17.850  0.00  0.00    +0.000 C 
ENDROOT
BRANCH   1   7
ATOM      3  C   UNL     1       4.526   3.712  16.770  0.00  0.00    +0.000 C 
ATOM      4  C   UNL     1       5.474   4.810  17.156  0.00  0.00    +0.000 A 
ATOM      5  C   UNL     1       5.236   6.139  16.793  0.00  0.00    +0.000 A 
ATOM      6  C   UNL     1       6.141   7.147  17.153  0.00  0.00    +0.000 A 
ATOM      7  C   UNL     1       7.294   6.849  17.892  0.00  0.00    +0.000 A 
ATOM      8  C   UNL     1       7.530   5.513  18.241  0.00  0.00    +0.000 A 
ATOM      9  C   UNL     1       6.627   4.507  17.883  0.00  0.00    +0.000 A 
ENDBRANCH   1   7
BRANCH   2  10
ATOM     10  C   UNL     1       9.005  10.272  18.174  0.00  0.00    +0.000 C 
ATOM     11  C   UNL     1       9.383  10.519  19.437  0.00  0.00    +0.000 C 
BRANCH  11  12
ATOM     12  S   UNL     1      10.508  11.789  19.766  0.00  0.00    +0.000 S 
ATOM     13  O   UNL     1      11.834  11.395  19.329  0.00  0.00    +0.000 OA
ATOM     14  O   UNL     1       9.926  13.052  19.360  0.00  0.00    +0.000 OA
ATOM     15  F   UNL     1      10.604  11.871  21.348  0.00  0.00    +0.000 F 
ENDBRANCH  11  12
ENDBRANCH   2  10
TORSDOF 3
ENDMDL
MODEL 9
REMARK VINA RESULT:      -6.2      1.524      1.861
REMARK  Name = 
REMARK  4 active torsions:
REMARK  status: ('A' for Active; 'I' for Inactive)
REMARK    1  A    between atoms: C_1  and  C_2
REMARK    2  A    between atoms: C_5  and  C_6
REMARK    3  A    between atoms: C_7  and  C_8
REMARK    4  A    between atoms: C_9  and  S_10
REMARK                            x       y       z     vdW  Elec       q    Type
REMARK                         _______ _______ _______ _____ _____    ______ ____
ROOT
ATOM      1  C   UNL     1       9.437  10.068  18.567  0.00  0.00    +0.000 C 
ATOM      2  C   UNL     1       8.431   9.391  17.989  0.00  0.00    +0.000 C 
ENDROOT
BRANCH   1   7
ATOM      3  C   UNL     1      10.877  15.511  17.148  0.00  0.00    +0.000 C 
ATOM      4  C   UNL     1      10.515  14.105  17.529  0.00  0.00    +0.000 A 
ATOM      5  C   UNL     1      11.455  13.071  17.479  0.00  0.00    +0.000 A 
ATOM      6  C   UNL     1      11.092  11.763  17.827  0.00  0.00    +0.000 A 
ATOM      7  C   UNL     1       9.786  11.464  18.241  0.00  0.00    +0.000 A 
ATOM      8  C   UNL     1       8.848  12.504  18.277  0.00  0.00    +0.000 A 
ATOM      9  C   UNL     1       9.210  13.810  17.931  0.00  0.00    +0.000 A 
ENDBRANCH   1   7
BRANCH   2  10
ATOM     10  C   UNL     1       8.092   8.022  18.318  0.00  0.00    +0.000 C 
ATOM     11  C   UNL     1       7.631   7.167  17.395  0.00  0.00    +0.000 C 
BRANCH  11  12
ATOM     12  S   UNL     1       7.250   5.541  17.842  0.00  0.00    +0.000 S 
ATOM     13  O   UNL     1       7.677   4.632  16.795  0.00  0.00    +0.000 OA
ATOM     14  O   UNL     1       7.628   5.330  19.224  0.00  0.00    +0.000 OA
ATOM     15  F   UNL     1       5.664   5.460  17.834  0.00  0.00    +0.000 F 
ENDBRANCH  11  12
ENDBRANCH   2  10
TORSDOF 3
ENDMDL
