MODEL 1
REMARK VINA RESULT:      -7.4      0.000      0.000
REMARK  Name = 
REMARK  6 active torsions:
REMARK  status: ('A' for Active; 'I' for Inactive)
REMARK    1  A    between atoms: C_1  and  C_2
REMARK    2  A    between atoms: C_2  and  C_3
REMARK    3  A    between atoms: C_3  and  C_4
REMARK    4  A    between atoms: C_4  and  C_5
REMARK    5  A    between atoms: C_5  and  N_6
REMARK    6  A    between atoms: C_10  and  C_11
REMARK                            x       y       z     vdW  Elec       q    Type
REMARK                         _______ _______ _______ _____ _____    ______ ____
ROOT
ATOM      1  N   UNL     1       7.481   6.930  17.210  0.00  0.00    +0.000 N 
ATOM      2  C   UNL     1       6.601   5.912  17.522  0.00  0.00    +0.000 C 
ATOM      3  O   UNL     1       6.276   5.694  18.689  0.00  0.00    +0.000 OA
ATOM      4  N   UNL     1       6.154   5.175  16.439  0.00  0.00    +0.000 N 
ATOM      5  C   UNL     1       5.086   4.321  16.420  0.00  0.00    +0.000 A 
ATOM      6  C   UNL     1       5.082   3.746  15.227  0.00  0.00    +0.000 A 
ATOM      7  O   UNL     1       6.129   4.124  14.399  0.00  0.00    +0.000 OA
ATOM      8  C   UNL     1       6.805   5.027  15.215  0.00  0.00    +0.000 A 
ATOM      9  O   UNL     1       7.821   5.613  14.844  0.00  0.00    +0.000 OA
ATOM     10  H   UNL     1       7.739   7.067  16.238  0.00  0.00    +0.000 HD
ENDROOT
BRANCH   5  11
ATOM     11  C   UNL     1       4.080   4.126  17.451  0.00  0.00    +0.000 A 
ATOM     12  C   UNL     1       4.058   2.949  18.209  0.00  0.00    +0.000 A 
ATOM     13  C   UNL     1       3.000   2.696  19.086  0.00  0.00    +0.000 A 
ATOM     14  C   UNL     1       1.974   3.629  19.231  0.00  0.00    +0.000 A 
ATOM     15  C   UNL     1       2.006   4.819  18.505  0.00  0.00    +0.000 A 
ATOM     16  C   UNL     1       3.053   5.064  17.614  0.00  0.00    +0.000 A 
ENDBRANCH   5  11
BRANCH   1  17
ATOM     17  C   UNL     1       8.135   7.735  18.219  0.00  0.00    +0.000 C 
BRANCH  17  18
ATOM     18  C   UNL     1       8.165   9.225  17.870  0.00  0.00    +0.000 C 
BRANCH  18  19
ATOM     19  C   UNL     1       9.031  10.036  18.840  0.00  0.00    +0.000 C 
BRANCH  19  21
ATOM     20  C   UNL     1      10.666  11.614  17.763  0.00  0.00    +0.000 C 
ATOM     21  C   UNL     1       9.266  11.459  18.333  0.00  0.00    +0.000 C 
ENDBRANCH  19  21
ENDBRANCH  18  19
ENDBRANCH  17  18
ENDBRANCH   1  17
TORSDOF 5
ENDMDL
MODEL 2
REMARK VINA RESULT:      -7.3      3.568      5.544
REMARK  Name = 
REMARK  6 active torsions:
REMARK  status: ('A' for Active; 'I' for Inactive)
REMARK    1  A    between atoms: C_1  and  C_2
REMARK    2  A    between atoms: C_2  and  C_3
REMARK    3  A    between atoms: C_3  and  C_4
REMARK    4  A    between atoms: C_4  and  C_5
REMARK    5  A    between atoms: C_5  and  N_6
REMARK    6  A    between atoms: C_10  and  C_11
REMARK                            x       y       z     vdW  Elec       q    Type
REMARK                         _______ _______ _______ _____ _____    ______ ____
ROOT
ATOM      1  N   UNL     1       5.704   4.769  16.281  0.00  0.00    +0.000 N 
ATOM      2  C   UNL     1       4.523   4.573  16.970  0.00  0.00    +0.000 C 
ATOM      3  O   UNL     1       4.029   3.450  17.072  0.00  0.00    +0.000 OA
ATOM      4  N   UNL     1       3.959   5.722  17.498  0.00  0.00    +0.000 N 
ATOM      5  C   UNL     1       2.975   5.785  18.447  0.00  0.00    +0.000 A 
ATOM      6  C   UNL     1       2.656   7.063  18.578  0.00  0.00    +0.000 A 
ATOM      7  O   UNL     1       3.345   7.920  17.732  0.00  0.00    +0.000 OA
ATOM      8  C   UNL     1       4.159   7.024  17.044  0.00  0.00    +0.000 A 
ATOM      9  O   UNL     1       4.952   7.391  16.179  0.00  0.00    +0.000 OA
ATOM     10  H   UNL     1       6.069   5.712  16.203  0.00  0.00    +0.000 HD
ENDROOT
BRANCH   5  11
ATOM     11  C   UNL     1       2.428   4.696  19.240  0.00  0.00    +0.000 A 
ATOM     12  C   UNL     1       1.389   3.903  18.739  0.00  0.00    +0.000 A 
ATOM     13  C   UNL     1       0.761   2.964  19.561  0.00  0.00    +0.000 A 
ATOM     14  C   UNL     1       1.185   2.792  20.877  0.00  0.00    +0.000 A 
ATOM     15  C   UNL     1       2.243   3.553  21.374  0.00  0.00    +0.000 A 
ATOM     16  C   UNL     1       2.859   4.507  20.559  0.00  0.00    +0.000 A 
ENDBRANCH   5  11
BRANCH   1  17
ATOM     17  C   UNL     1       6.380   3.705  15.570  0.00  0.00    +0.000 C 
BRANCH  17  18
ATOM     18  C   UNL     1       6.498   3.969  14.067  0.00  0.00    +0.000 C 
BRANCH  18  19
ATOM     19  C   UNL     1       5.163   3.795  13.336  0.00  0.00    +0.000 C 
BRANCH  19  21
ATOM     20  C   UNL     1       4.067   3.205  11.150  0.00  0.00    +0.000 C 
ATOM     21  C   UNL     1       5.353   3.156  11.959  0.00  0.00    +0.000 C 
ENDBRANCH  19  21
ENDBRANCH  18  19
ENDBRANCH  17  18
ENDBRANCH   1  17
TORSDOF 5
ENDMDL
MODEL 3
REMARK VINA RESULT:      -7.3      0.249      1.107
REMARK  Name = 
REMARK  6 active torsions:
REMARK  status: ('A' for Active; 'I' for Inactive)
REMARK    1  A    between atoms: C_1  and  C_2
REMARK    2  A    between atoms: C_2  and  C_3
REMARK    3  A    between atoms: C_3  and  C_4
REMARK    4  A    between atoms: C_4  and  C_5
REMARK    5  A    between atoms: C_5  and  N_6
REMARK    6  A    between atoms: C_10  and  C_11
REMARK                            x       y       z     vdW  Elec       q    Type
REMARK                         _______ _______ _______ _____ _____    ______ ____
ROOT
ATOM      1  N   UNL     1       7.471   6.929  17.197  0.00  0.00    +0.000 N 
ATOM      2  C   UNL     1       6.586   5.924  17.536  0.00  0.00    +0.000 C 
ATOM      3  O   UNL     1       6.257   5.741  18.708  0.00  0.00    +0.000 OA
ATOM      4  N   UNL     1       6.137   5.158  16.473  0.00  0.00    +0.000 N 
ATOM      5  C   UNL     1       5.065   4.310  16.476  0.00  0.00    +0.000 A 
ATOM      6  C   UNL     1       5.061   3.701  15.300  0.00  0.00    +0.000 A 
ATOM      7  O   UNL     1       6.111   4.050  14.464  0.00  0.00    +0.000 OA
ATOM      8  C   UNL     1       6.790   4.973  15.256  0.00  0.00    +0.000 A 
ATOM      9  O   UNL     1       7.809   5.543  14.870  0.00  0.00    +0.000 OA
ATOM     10  H   UNL     1       7.732   7.036  16.223  0.00  0.00    +0.000 HD
ENDROOT
BRANCH   5  11
ATOM     11  C   UNL     1       4.056   4.149  17.510  0.00  0.00    +0.000 A 
ATOM     12  C   UNL     1       3.053   5.110  17.681  0.00  0.00    +0.000 A 
ATOM     13  C   UNL     1       2.183   5.034  18.772  0.00  0.00    +0.000 A 
ATOM     14  C   UNL     1       2.292   3.983  19.681  0.00  0.00    +0.000 A 
ATOM     15  C   UNL     1       3.266   3.002  19.499  0.00  0.00    +0.000 A 
ATOM     16  C   UNL     1       4.149   3.088  18.419  0.00  0.00    +0.000 A 
ENDBRANCH   5  11
BRANCH   1  17
ATOM     17  C   UNL     1       8.127   7.759  18.184  0.00  0.00    +0.000 C 
BRANCH  17  18
ATOM     18  C   UNL     1       8.106   9.247  17.826  0.00  0.00    +0.000 C 
BRANCH  18  19
ATOM     19  C   UNL     1       9.038  10.076  18.715  0.00  0.00    +0.000 C 
BRANCH  19  21
ATOM     20  C   UNL     1      10.878  11.638  18.009  0.00  0.00    +0.000 C 
ATOM     21  C   UNL     1       9.374  11.425  18.078  0.00  0.00    +0.000 C 
ENDBRANCH  19  21
ENDBRANCH  18  19
ENDBRANCH  17  18
ENDBRANCH   1  17
TORSDOF 5
ENDMDL
MODEL 4
REMARK VINA RESULT:      -7.3      3.889      6.504
REMARK  Name = 
REMARK  6 active torsions:
REMARK  status: ('A' for Active; 'I' for Inactive)
REMARK    1  A    between atoms: C_1  and  C_2
REMARK    2  A    between atoms: C_2  and  C_3
REMARK    3  A    between atoms: C_3  and  C_4
REMARK    4  A    between atoms: C_4  and  C_5
REMARK    5  A    between atoms: C_5  and  N_6
REMARK    6  A    between atoms: C_10  and  C_11
REMARK                            x       y       z     vdW  Elec       q    Type
REMARK                         _______ _______ _______ _____ _____    ______ ____
ROOT
ATOM      1  N   UNL     1       2.293   6.545  20.250  0.00  0.00    +0.000 N 
ATOM      2  C   UNL     1       2.944   5.898  19.218  0.00  0.00    +0.000 C 
ATOM      3  O   UNL     1       3.243   6.497  18.185  0.00  0.00    +0.000 OA
ATOM      4  N   UNL     1       3.201   4.556  19.441  0.00  0.00    +0.000 N 
ATOM      5  C   UNL     1       4.065   3.764  18.735  0.00  0.00    +0.000 A 
ATOM      6  C   UNL     1       3.921   2.534  19.205  0.00  0.00    +0.000 A 
ATOM      7  O   UNL     1       2.958   2.403  20.195  0.00  0.00    +0.000 OA
ATOM      8  C   UNL     1       2.507   3.715  20.308  0.00  0.00    +0.000 A 
ATOM      9  O   UNL     1       1.629   4.040  21.106  0.00  0.00    +0.000 OA
ATOM     10  H   UNL     1       2.047   6.012  21.077  0.00  0.00    +0.000 HD
ENDROOT
BRANCH   5  11
ATOM     11  C   UNL     1       5.031   4.171  17.727  0.00  0.00    +0.000 A 
ATOM     12  C   UNL     1       4.733   4.045  16.365  0.00  0.00    +0.000 A 
ATOM     13  C   UNL     1       5.717   4.287  15.404  0.00  0.00    +0.000 A 
ATOM     14  C   UNL     1       6.995   4.683  15.797  0.00  0.00    +0.000 A 
ATOM     15  C   UNL     1       7.290   4.845  17.149  0.00  0.00    +0.000 A 
ATOM     16  C   UNL     1       6.312   4.584  18.113  0.00  0.00    +0.000 A 
ENDBRANCH   5  11
BRANCH   1  17
ATOM     17  C   UNL     1       1.846   7.918  20.153  0.00  0.00    +0.000 C 
BRANCH  17  18
ATOM     18  C   UNL     1       0.726   8.254  21.141  0.00  0.00    +0.000 C 
BRANCH  18  19
ATOM     19  C   UNL     1       1.135   9.339  22.142  0.00  0.00    +0.000 C 
BRANCH  19  21
ATOM     20  C   UNL     1      -0.891  10.527  23.041  0.00  0.00    +0.000 C 
ATOM     21  C   UNL     1       0.142   9.442  23.300  0.00  0.00    +0.000 C 
ENDBRANCH  19  21
ENDBRANCH  18  19
ENDBRANCH  17  18
ENDBRANCH   1  17
TORSDOF 5
ENDMDL
MODEL 5
REMARK VINA RESULT:      -7.2      1.064      1.179
REMARK  Name = 
REMARK  6 active torsions:
REMARK  status: ('A' for Active; 'I' for Inactive)
REMARK    1  A    between atoms: C_1  and  C_2
REMARK    2  A    between atoms: C_2  and  C_3
REMARK    3  A    between atoms: C_3  and  C_4
REMARK    4  A    between atoms: C_4  and  C_5
REMARK    5  A    between atoms: C_5  and  N_6
REMARK    6  A    between atoms: C_10  and  C_11
REMARK                            x       y       z     vdW  Elec       q    Type
REMARK                         _______ _______ _______ _____ _____    ______ ____
ROOT
ATOM      1  N   UNL     1       7.459   6.830  17.792  0.00  0.00    +0.000 N 
ATOM      2  C   UNL     1       6.649   5.841  18.316  0.00  0.00    +0.000 C 
ATOM      3  O   UNL     1       6.537   5.694  19.533  0.00  0.00    +0.000 OA
ATOM      4  N   UNL     1       6.015   5.048  17.374  0.00  0.00    +0.000 N 
ATOM      5  C   UNL     1       4.959   4.207  17.596  0.00  0.00    +0.000 A 
ATOM      6  C   UNL     1       4.741   3.564  16.459  0.00  0.00    +0.000 A 
ATOM      7  O   UNL     1       5.624   3.882  15.437  0.00  0.00    +0.000 OA
ATOM      8  C   UNL     1       6.436   4.823  16.065  0.00  0.00    +0.000 A 
ATOM      9  O   UNL     1       7.369   5.374  15.485  0.00  0.00    +0.000 OA
ATOM     10  H   UNL     1       7.540   6.907  16.784  0.00  0.00    +0.000 HD
ENDROOT
BRANCH   5  11
ATOM     11  C   UNL     1       4.154   4.083  18.800  0.00  0.00    +0.000 A 
ATOM     12  C   UNL     1       4.229   2.930  19.591  0.00  0.00    +0.000 A 
ATOM     13  C   UNL     1       3.342   2.746  20.654  0.00  0.00    +0.000 A 
ATOM     14  C   UNL     1       2.395   3.724  20.951  0.00  0.00    +0.000 A 
ATOM     15  C   UNL     1       2.335   4.891  20.191  0.00  0.00    +0.000 A 
ATOM     16  C   UNL     1       3.209   5.067  19.115  0.00  0.00    +0.000 A 
ENDBRANCH   5  11
BRANCH   1  17
ATOM     17  C   UNL     1       8.285   7.683  18.619  0.00  0.00    +0.000 C 
BRANCH  17  18
ATOM     18  C   UNL     1       8.359   9.124  18.107  0.00  0.00    +0.000 C 
BRANCH  18  19
ATOM     19  C   UNL     1       9.149  10.040  19.047  0.00  0.00    +0.000 C 
BRANCH  19  21
ATOM     20  C   UNL     1       8.883  12.235  17.850  0.00  0.00    +0.000 C 
ATOM     21  C   UNL     1       9.862  11.155  18.282  0.00  0.00    +0.000 C 
ENDBRANCH  19  21
ENDBRANCH  18  19
ENDBRANCH  17  18
ENDBRANCH   1  17
TORSDOF 5
ENDMDL
MODEL 6
REMARK VINA RESULT:      -7.1      3.884      6.389
REMARK  Name = 
REMARK  6 active torsions:
REMARK  status: ('A' for Active; 'I' for Inactive)
REMARK    1  A    between atoms: C_1  and  C_2
REMARK    2  A    between atoms: C_2  and  C_3
REMARK    3  A    between atoms: C_3  and  C_4
REMARK    4  A    between atoms: C_4  and  C_5
REMARK    5  A    between atoms: C_5  and  N_6
REMARK    6  A    between atoms: C_10  and  C_11
REMARK                            x       y       z     vdW  Elec       q    Type
REMARK                         _______ _______ _______ _____ _____    ______ ____
ROOT
ATOM      1  N   UNL     1       2.360   6.576  20.352  0.00  0.00    +0.000 N 
ATOM      2  C   UNL     1       3.001   5.886  19.341  0.00  0.00    +0.000 C 
ATOM      3  O   UNL     1       3.213   6.414  18.250  0.00  0.00    +0.000 OA
ATOM      4  N   UNL     1       3.351   4.583  19.656  0.00  0.00    +0.000 N 
ATOM      5  C   UNL     1       4.228   3.787  18.972  0.00  0.00    +0.000 A 
ATOM      6  C   UNL     1       4.182   2.594  19.545  0.00  0.00    +0.000 A 
ATOM      7  O   UNL     1       3.277   2.489  20.590  0.00  0.00    +0.000 OA
ATOM      8  C   UNL     1       2.751   3.778  20.622  0.00  0.00    +0.000 A 
ATOM      9  O   UNL     1       1.893   4.115  21.436  0.00  0.00    +0.000 OA
ATOM     10  H   UNL     1       2.186   6.099  21.230  0.00  0.00    +0.000 HD
ENDROOT
BRANCH   5  11
ATOM     11  C   UNL     1       5.118   4.166  17.887  0.00  0.00    +0.000 A 
ATOM     12  C   UNL     1       4.766   3.911  16.556  0.00  0.00    +0.000 A 
ATOM     13  C   UNL     1       5.687   4.130  15.529  0.00  0.00    +0.000 A 
ATOM     14  C   UNL     1       6.954   4.631  15.823  0.00  0.00    +0.000 A 
ATOM     15  C   UNL     1       7.302   4.921  17.141  0.00  0.00    +0.000 A 
ATOM     16  C   UNL     1       6.388   4.684  18.171  0.00  0.00    +0.000 A 
ENDBRANCH   5  11
BRANCH   1  17
ATOM     17  C   UNL     1       1.824   7.908  20.170  0.00  0.00    +0.000 C 
BRANCH  17  18
ATOM     18  C   UNL     1       1.116   8.444  21.416  0.00  0.00    +0.000 C 
BRANCH  18  19
ATOM     19  C   UNL     1      -0.123   9.277  21.073  0.00  0.00    +0.000 C 
BRANCH  19  21
ATOM     20  C   UNL     1      -1.043  10.314  18.974  0.00  0.00    +0.000 C 
ATOM     21  C   UNL     1       0.147  10.241  19.917  0.00  0.00    +0.000 C 
ENDBRANCH  19  21
ENDBRANCH  18  19
ENDBRANCH  17  18
ENDBRANCH   1  17
TORSDOF 5
ENDMDL
MODEL 7
REMARK VINA RESULT:      -7.1      2.857      5.622
REMARK  Name = 
REMARK  6 active torsions:
REMARK  status: ('A' for Active; 'I' for Inactive)
REMARK    1  A    between atoms: C_1  and  C_2
REMARK    2  A    between atoms: C_2  and  C_3
REMARK    3  A    between atoms: C_3  and  C_4
REMARK    4  A    between atoms: C_4  and  C_5
REMARK    5  A    between atoms: C_5  and  N_6
REMARK    6  A    between atoms: C_10  and  C_11
REMARK                            x       y       z     vdW  Elec       q    Type
REMARK                         _______ _______ _______ _____ _____    ______ ____
ROOT
ATOM      1  N   UNL     1       5.898   4.516  15.109  0.00  0.00    +0.000 N 
ATOM      2  C   UNL     1       5.226   4.668  16.307  0.00  0.00    +0.000 C 
ATOM      3  O   UNL     1       4.025   4.414  16.394  0.00  0.00    +0.000 OA
ATOM      4  N   UNL     1       6.001   5.134  17.356  0.00  0.00    +0.000 N 
ATOM      5  C   UNL     1       5.678   5.101  18.684  0.00  0.00    +0.000 A 
ATOM      6  C   UNL     1       6.642   5.746  19.324  0.00  0.00    +0.000 A 
ATOM      7  O   UNL     1       7.627   6.276  18.503  0.00  0.00    +0.000 OA
ATOM      8  C   UNL     1       7.174   5.879  17.248  0.00  0.00    +0.000 A 
ATOM      9  O   UNL     1       7.784   6.150  16.216  0.00  0.00    +0.000 OA
ATOM     10  H   UNL     1       6.884   4.753  15.074  0.00  0.00    +0.000 HD
ENDROOT
BRANCH   5  11
ATOM     11  C   UNL     1       4.557   4.423  19.315  0.00  0.00    +0.000 A 
ATOM     12  C   UNL     1       4.540   3.027  19.423  0.00  0.00    +0.000 A 
ATOM     13  C   UNL     1       3.396   2.371  19.883  0.00  0.00    +0.000 A 
ATOM     14  C   UNL     1       2.274   3.106  20.264  0.00  0.00    +0.000 A 
ATOM     15  C   UNL     1       2.295   4.498  20.193  0.00  0.00    +0.000 A 
ATOM     16  C   UNL     1       3.432   5.155  19.714  0.00  0.00    +0.000 A 
ENDBRANCH   5  11
BRANCH   1  17
ATOM     17  C   UNL     1       5.232   4.144  13.880  0.00  0.00    +0.000 C 
BRANCH  17  18
ATOM     18  C   UNL     1       6.140   3.383  12.912  0.00  0.00    +0.000 C 
BRANCH  18  19
ATOM     19  C   UNL     1       5.559   3.312  11.497  0.00  0.00    +0.000 C 
BRANCH  19  21
ATOM     20  C   UNL     1       3.416   3.809  10.278  0.00  0.00    +0.000 C 
ATOM     21  C   UNL     1       4.035   3.185  11.518  0.00  0.00    +0.000 C 
ENDBRANCH  19  21
ENDBRANCH  18  19
ENDBRANCH  17  18
ENDBRANCH   1  17
TORSDOF 5
ENDMDL
MODEL 8
REMARK VINA RESULT:      -7.1      3.327      5.783
REMARK  Name = 
REMARK  6 active torsions:
REMARK  status: ('A' for Active; 'I' for Inactive)
REMARK    1  A    between atoms: C_1  and  C_2
REMARK    2  A    between atoms: C_2  and  C_3
REMARK    3  A    between atoms: C_3  and  C_4
REMARK    4  A    between atoms: C_4  and  C_5
REMARK    5  A    between atoms: C_5  and  N_6
REMARK    6  A    between atoms: C_10  and  C_11
REMARK                            x       y       z     vdW  Elec       q    Type
REMARK                         _______ _______ _______ _____ _____    ______ ____
ROOT
ATOM      1  N   UNL     1       5.909   4.105  14.980  0.00  0.00    +0.000 N 
ATOM      2  C   UNL     1       5.062   4.259  16.061  0.00  0.00    +0.000 C 
ATOM      3  O   UNL     1       3.846   4.361  15.901  0.00  0.00    +0.000 OA
ATOM      4  N   UNL     1       5.692   4.307  17.293  0.00  0.00    +0.000 N 
ATOM      5  C   UNL     1       5.099   4.164  18.517  0.00  0.00    +0.000 A 
ATOM      6  C   UNL     1       6.040   4.389  19.422  0.00  0.00    +0.000 A 
ATOM      7  O   UNL     1       7.279   4.725  18.897  0.00  0.00    +0.000 OA
ATOM      8  C   UNL     1       7.014   4.679  17.531  0.00  0.00    +0.000 A 
ATOM      9  O   UNL     1       7.877   4.916  16.688  0.00  0.00    +0.000 OA
ATOM     10  H   UNL     1       6.907   4.043  15.151  0.00  0.00    +0.000 HD
ENDROOT
BRANCH   5  11
ATOM     11  C   UNL     1       3.733   3.758  18.806  0.00  0.00    +0.000 A 
ATOM     12  C   UNL     1       2.789   4.696  19.241  0.00  0.00    +0.000 A 
ATOM     13  C   UNL     1       1.527   4.277  19.668  0.00  0.00    +0.000 A 
ATOM     14  C   UNL     1       1.191   2.925  19.637  0.00  0.00    +0.000 A 
ATOM     15  C   UNL     1       2.113   1.988  19.173  0.00  0.00    +0.000 A 
ATOM     16  C   UNL     1       3.383   2.403  18.764  0.00  0.00    +0.000 A 
ENDBRANCH   5  11
BRANCH   1  17
ATOM     17  C   UNL     1       5.443   4.142  13.611  0.00  0.00    +0.000 C 
BRANCH  17  18
ATOM     18  C   UNL     1       6.212   3.191  12.690  0.00  0.00    +0.000 C 
BRANCH  18  19
ATOM     19  C   UNL     1       5.364   2.706  11.510  0.00  0.00    +0.000 C 
BRANCH  19  21
ATOM     20  C   UNL     1       3.463   3.653  10.163  0.00  0.00    +0.000 C 
ATOM     21  C   UNL     1       3.949   3.285  11.555  0.00  0.00    +0.000 C 
ENDBRANCH  19  21
ENDBRANCH  18  19
ENDBRANCH  17  18
ENDBRANCH   1  17
TORSDOF 5
ENDMDL
MODEL 9
REMARK VINA RESULT:      -7.1      3.633      5.231
REMARK  Name = 
REMARK  6 active torsions:
REMARK  status: ('A' for Active; 'I' for Inactive)
REMARK    1  A    between atoms: C_1  and  C_2
REMARK    2  A    between atoms: C_2  and  C_3
REMARK    3  A    between atoms: C_3  and  C_4
REMARK    4  A    between atoms: C_4  and  C_5
REMARK    5  A    between atoms: C_5  and  N_6
REMARK    6  A    between atoms: C_10  and  C_11
REMARK                            x       y       z     vdW  Elec       q    Type
REMARK                         _______ _______ _______ _____ _____    ______ ____
ROOT
ATOM      1  N   UNL     1       6.144   4.013  18.535  0.00  0.00    +0.000 N 
ATOM      2  C   UNL     1       5.154   4.835  19.038  0.00  0.00    +0.000 C 
ATOM      3  O   UNL     1       5.290   6.058  19.043  0.00  0.00    +0.000 OA
ATOM      4  N   UNL     1       4.044   4.173  19.536  0.00  0.00    +0.000 N 
ATOM      5  C   UNL     1       2.826   4.725  19.820  0.00  0.00    +0.000 A 
ATOM      6  C   UNL     1       2.097   3.769  20.376  0.00  0.00    +0.000 A 
ATOM      7  O   UNL     1       2.757   2.560  20.540  0.00  0.00    +0.000 OA
ATOM      8  C   UNL     1       4.008   2.861  20.006  0.00  0.00    +0.000 A 
ATOM      9  O   UNL     1       4.914   2.032  19.953  0.00  0.00    +0.000 OA
ATOM     10  H   UNL     1       6.003   3.009  18.566  0.00  0.00    +0.000 HD
ENDROOT
BRANCH   5  11
ATOM     11  C   UNL     1       2.357   6.065  19.504  0.00  0.00    +0.000 A 
ATOM     12  C   UNL     1       2.416   6.547  18.191  0.00  0.00    +0.000 A 
ATOM     13  C   UNL     1       2.114   7.884  17.918  0.00  0.00    +0.000 A 
ATOM     14  C   UNL     1       1.725   8.737  18.950  0.00  0.00    +0.000 A 
ATOM     15  C   UNL     1       1.630   8.256  20.255  0.00  0.00    +0.000 A 
ATOM     16  C   UNL     1       1.950   6.924  20.532  0.00  0.00    +0.000 A 
ENDBRANCH   5  11
BRANCH   1  17
ATOM     17  C   UNL     1       7.419   4.518  18.072  0.00  0.00    +0.000 C 
BRANCH  17  18
ATOM     18  C   UNL     1       7.399   4.935  16.600  0.00  0.00    +0.000 C 
BRANCH  18  19
ATOM     19  C   UNL     1       6.498   4.036  15.748  0.00  0.00    +0.000 C 
BRANCH  19  21
ATOM     20  C   UNL     1       5.236   6.202  15.542  0.00  0.00    +0.000 C 
ATOM     21  C   UNL     1       5.523   4.854  14.900  0.00  0.00    +0.000 C 
ENDBRANCH  19  21
ENDBRANCH  18  19
ENDBRANCH  17  18
ENDBRANCH   1  17
TORSDOF 5
ENDMDL
