MODEL 1
REMARK VINA RESULT:      -6.1      0.000      0.000
REMARK  Name = 
REMARK  5 active torsions:
REMARK  status: ('A' for Active; 'I' for Inactive)
REMARK    1  A    between atoms: N_1  and  C_2
REMARK    2  A    between atoms: C_2  and  C_3
REMARK    3  A    between atoms: C_3  and  C_4
REMARK    4  A    between atoms: C_4  and  N_5
REMARK    5  A    between atoms: C_8  and  C_9
REMARK                            x       y       z     vdW  Elec       q    Type
REMARK                         _______ _______ _______ _____ _____    ______ ____
ROOT
ATOM      1  N   UNL     1       1.980   3.196  18.605  0.00  0.00    +0.000 N 
ATOM      2  C   UNL     1       2.896   2.287  18.148  0.00  0.00    +0.000 A 
ATOM      3  C   UNL     1       3.977   2.695  17.368  0.00  0.00    +0.000 A 
ATOM      4  C   UNL     1       4.146   4.056  17.059  0.00  0.00    +0.000 A 
ATOM      5  C   UNL     1       3.176   4.966  17.532  0.00  0.00    +0.000 A 
ATOM      6  C   UNL     1       2.104   4.516  18.289  0.00  0.00    +0.000 A 
ENDROOT
BRANCH   4   7
ATOM      7  C   UNL     1       5.329   4.543  16.289  0.00  0.00    +0.000 A 
ATOM      8  C   UNL     1       6.225   5.484  16.835  0.00  0.00    +0.000 A 
ATOM      9  C   UNL     1       7.326   5.911  16.078  0.00  0.00    +0.000 A 
ATOM     10  N   UNL     1       7.514   5.440  14.821  0.00  0.00    +0.000 NA
ATOM     11  C   UNL     1       6.661   4.547  14.257  0.00  0.00    +0.000 A 
ATOM     12  C   UNL     1       5.563   4.079  14.985  0.00  0.00    +0.000 A 
ENDBRANCH   4   7
BRANCH   1  13
ATOM     13  C   UNL     1       0.913   2.770  19.519  0.00  0.00    +0.000 C 
BRANCH  13  14
ATOM     14  C   UNL     1       0.835   3.532  20.847  0.00  0.00    +0.000 C 
BRANCH  14  15
ATOM     15  C   UNL     1       2.187   3.675  21.549  0.00  0.00    +0.000 C 
BRANCH  15  16
ATOM     16  N   UNL     1       2.664   2.359  21.963  0.00  0.00    +0.000 NA
ATOM     17  H   UNL     1       3.640   2.444  22.321  0.00  0.00    +0.000 HD
ATOM     18  H   UNL     1       2.669   1.714  21.139  0.00  0.00    +0.000 HD
ENDBRANCH  15  16
ENDBRANCH  14  15
ENDBRANCH  13  14
ENDBRANCH   1  13
TORSDOF 5
ENDMDL
MODEL 2
REMARK VINA RESULT:      -6.0      1.455      6.749
REMARK  Name = 
REMARK  5 active torsions:
REMARK  status: ('A' for Active; 'I' for Inactive)
REMARK    1  A    between atoms: N_1  and  C_2
REMARK    2  A    between atoms: C_2  and  C_3
REMARK    3  A    between atoms: C_3  and  C_4
REMARK    4  A    between atoms: C_4  and  N_5
REMARK    5  A    between atoms: C_8  and  C_9
REMARK                            x       y       z     vdW  Elec       q    Type
REMARK                         _______ _______ _______ _____ _____    ______ ____
ROOT
ATOM      1  N   UNL     1       6.061   4.619  16.410  0.00  0.00    +0.000 N 
ATOM      2  C   UNL     1       6.413   4.717  17.729  0.00  0.00    +0.000 A 
ATOM      3  C   UNL     1       5.483   4.460  18.735  0.00  0.00    +0.000 A 
ATOM      4  C   UNL     1       4.173   4.076  18.399  0.00  0.00    +0.000 A 
ATOM      5  C   UNL     1       3.836   4.000  17.031  0.00  0.00    +0.000 A 
ATOM      6  C   UNL     1       4.786   4.282  16.060  0.00  0.00    +0.000 A 
ENDROOT
BRANCH   4   7
ATOM      7  C   UNL     1       3.168   3.721  19.446  0.00  0.00    +0.000 A 
ATOM      8  C   UNL     1       3.487   2.849  20.506  0.00  0.00    +0.000 A 
ATOM      9  C   UNL     1       2.514   2.546  21.470  0.00  0.00    +0.000 A 
ATOM     10  N   UNL     1       1.268   3.070  21.370  0.00  0.00    +0.000 NA
ATOM     11  C   UNL     1       0.921   3.899  20.353  0.00  0.00    +0.000 A 
ATOM     12  C   UNL     1       1.866   4.244  19.383  0.00  0.00    +0.000 A 
ENDBRANCH   4   7
BRANCH   1  13
ATOM     13  C   UNL     1       7.076   4.779  15.362  0.00  0.00    +0.000 C 
BRANCH  13  14
ATOM     14  C   UNL     1       6.648   4.355  13.952  0.00  0.00    +0.000 C 
BRANCH  14  15
ATOM     15  C   UNL     1       7.507   4.967  12.844  0.00  0.00    +0.000 C 
BRANCH  15  16
ATOM     16  N   UNL     1       8.550   5.797  13.438  0.00  0.00    +0.000 NA
ATOM     17  H   UNL     1       9.193   6.132  12.686  0.00  0.00    +0.000 HD
ATOM     18  H   UNL     1       9.106   5.228  14.119  0.00  0.00    +0.000 HD
ENDBRANCH  15  16
ENDBRANCH  14  15
ENDBRANCH  13  14
ENDBRANCH   1  13
TORSDOF 5
ENDMDL
MODEL 3
REMARK VINA RESULT:      -5.9      1.454      6.766
REMARK  Name = 
REMARK  5 active torsions:
REMARK  status: ('A' for Active; 'I' for Inactive)
REMARK    1  A    between atoms: N_1  and  C_2
REMARK    2  A    between atoms: C_2  and  C_3
REMARK    3  A    between atoms: C_3  and  C_4
REMARK    4  A    between atoms: C_4  and  N_5
REMARK    5  A    between atoms: C_8  and  C_9
REMARK                            x       y       z     vdW  Elec       q    Type
REMARK                         _______ _______ _______ _____ _____    ______ ____
ROOT
ATOM      1  N   UNL     1       6.055   4.656  16.405  0.00  0.00    +0.000 N 
ATOM      2  C   UNL     1       6.430   4.686  17.721  0.00  0.00    +0.000 A 
ATOM      3  C   UNL     1       5.504   4.431  18.731  0.00  0.00    +0.000 A 
ATOM      4  C   UNL     1       4.174   4.119  18.402  0.00  0.00    +0.000 A 
ATOM      5  C   UNL     1       3.815   4.111  17.038  0.00  0.00    +0.000 A 
ATOM      6  C   UNL     1       4.762   4.390  16.063  0.00  0.00    +0.000 A 
ENDROOT
BRANCH   4   7
ATOM      7  C   UNL     1       3.170   3.768  19.451  0.00  0.00    +0.000 A 
ATOM      8  C   UNL     1       1.878   4.330  19.450  0.00  0.00    +0.000 A 
ATOM      9  C   UNL     1       0.965   3.969  20.452  0.00  0.00    +0.000 A 
ATOM     10  N   UNL     1       1.331   3.102  21.428  0.00  0.00    +0.000 NA
ATOM     11  C   UNL     1       2.572   2.555  21.469  0.00  0.00    +0.000 A 
ATOM     12  C   UNL     1       3.505   2.872  20.479  0.00  0.00    +0.000 A 
ENDBRANCH   4   7
BRANCH   1  13
ATOM     13  C   UNL     1       7.062   4.812  15.348  0.00  0.00    +0.000 C 
BRANCH  13  14
ATOM     14  C   UNL     1       6.654   4.298  13.962  0.00  0.00    +0.000 C 
BRANCH  14  15
ATOM     15  C   UNL     1       7.450   4.932  12.819  0.00  0.00    +0.000 C 
BRANCH  15  16
ATOM     16  N   UNL     1       8.503   5.779  13.368  0.00  0.00    +0.000 NA
ATOM     17  H   UNL     1       9.352   5.198  13.550  0.00  0.00    +0.000 HD
ATOM     18  H   UNL     1       8.184   6.190  14.276  0.00  0.00    +0.000 HD
ENDBRANCH  15  16
ENDBRANCH  14  15
ENDBRANCH  13  14
ENDBRANCH   1  13
TORSDOF 5
ENDMDL
MODEL 4
REMARK VINA RESULT:      -5.9      2.635      6.602
REMARK  Name = 
REMARK  5 active torsions:
REMARK  status: ('A' for Active; 'I' for Inactive)
REMARK    1  A    between atoms: N_1  and  C_2
REMARK    2  A    between atoms: C_2  and  C_3
REMARK    3  A    between atoms: C_3  and  C_4
REMARK    4  A    between atoms: C_4  and  N_5
REMARK    5  A    between atoms: C_8  and  C_9
REMARK                            x       y       z     vdW  Elec       q    Type
REMARK                         _______ _______ _______ _____ _____    ______ ____
ROOT
ATOM      1  N   UNL     1       6.385   6.475  17.581  0.00  0.00    +0.000 N 
ATOM      2  C   UNL     1       5.191   6.650  16.934  0.00  0.00    +0.000 A 
ATOM      3  C   UNL     1       4.054   5.953  17.338  0.00  0.00    +0.000 A 
ATOM      4  C   UNL     1       4.121   5.074  18.433  0.00  0.00    +0.000 A 
ATOM      5  C   UNL     1       5.369   4.903  19.068  0.00  0.00    +0.000 A 
ATOM      6  C   UNL     1       6.482   5.602  18.624  0.00  0.00    +0.000 A 
ENDROOT
BRANCH   4   7
ATOM      7  C   UNL     1       2.909   4.364  18.942  0.00  0.00    +0.000 A 
ATOM      8  C   UNL     1       2.417   4.589  20.243  0.00  0.00    +0.000 A 
ATOM      9  C   UNL     1       1.274   3.904  20.679  0.00  0.00    +0.000 A 
ATOM     10  N   UNL     1       0.659   3.014  19.863  0.00  0.00    +0.000 NA
ATOM     11  C   UNL     1       1.116   2.759  18.611  0.00  0.00    +0.000 A 
ATOM     12  C   UNL     1       2.240   3.435  18.129  0.00  0.00    +0.000 A 
ENDBRANCH   4   7
BRANCH   1  13
ATOM     13  C   UNL     1       7.545   7.300  17.222  0.00  0.00    +0.000 C 
BRANCH  13  14
ATOM     14  C   UNL     1       8.250   7.999  18.390  0.00  0.00    +0.000 C 
BRANCH  14  15
ATOM     15  C   UNL     1       8.444   9.501  18.175  0.00  0.00    +0.000 C 
BRANCH  15  16
ATOM     16  N   UNL     1       9.253  10.048  19.259  0.00  0.00    +0.000 NA
ATOM     17  H   UNL     1      10.170   9.549  19.290  0.00  0.00    +0.000 HD
ATOM     18  H   UNL     1       8.764   9.897  20.172  0.00  0.00    +0.000 HD
ENDBRANCH  15  16
ENDBRANCH  14  15
ENDBRANCH  13  14
ENDBRANCH   1  13
TORSDOF 5
ENDMDL
MODEL 5
REMARK VINA RESULT:      -5.9      0.483      1.288
REMARK  Name = 
REMARK  5 active torsions:
REMARK  status: ('A' for Active; 'I' for Inactive)
REMARK    1  A    between atoms: N_1  and  C_2
REMARK    2  A    between atoms: C_2  and  C_3
REMARK    3  A    between atoms: C_3  and  C_4
REMARK    4  A    between atoms: C_4  and  N_5
REMARK    5  A    between atoms: C_8  and  C_9
REMARK                            x       y       z     vdW  Elec       q    Type
REMARK                         _______ _______ _______ _____ _____    ______ ____
ROOT
ATOM      1  N   UNL     1       2.040   3.219  18.489  0.00  0.00    +0.000 N 
ATOM      2  C   UNL     1       2.230   4.561  18.300  0.00  0.00    +0.000 A 
ATOM      3  C   UNL     1       3.338   5.031  17.597  0.00  0.00    +0.000 A 
ATOM      4  C   UNL     1       4.264   4.123  17.056  0.00  0.00    +0.000 A 
ATOM      5  C   UNL     1       4.048   2.747  17.281  0.00  0.00    +0.000 A 
ATOM      6  C   UNL     1       2.943   2.320  18.003  0.00  0.00    +0.000 A 
ENDROOT
BRANCH   4   7
ATOM      7  C   UNL     1       5.423   4.583  16.234  0.00  0.00    +0.000 A 
ATOM      8  C   UNL     1       6.365   5.500  16.739  0.00  0.00    +0.000 A 
ATOM      9  C   UNL     1       7.441   5.902  15.933  0.00  0.00    +0.000 A 
ATOM     10  N   UNL     1       7.561   5.429  14.669  0.00  0.00    +0.000 NA
ATOM     11  C   UNL     1       6.662   4.557  14.144  0.00  0.00    +0.000 A 
ATOM     12  C   UNL     1       5.587   4.115  14.920  0.00  0.00    +0.000 A 
ENDBRANCH   4   7
BRANCH   1  13
ATOM     13  C   UNL     1       0.813   2.732  19.130  0.00  0.00    +0.000 C 
BRANCH  13  14
ATOM     14  C   UNL     1       0.586   3.200  20.573  0.00  0.00    +0.000 C 
BRANCH  14  15
ATOM     15  C   UNL     1       1.457   2.468  21.595  0.00  0.00    +0.000 C 
BRANCH  15  16
ATOM     16  N   UNL     1       2.483   3.376  22.100  0.00  0.00    +0.000 NA
ATOM     17  H   UNL     1       2.842   3.961  21.314  0.00  0.00    +0.000 HD
ATOM     18  H   UNL     1       3.281   2.820  22.489  0.00  0.00    +0.000 HD
ENDBRANCH  15  16
ENDBRANCH  14  15
ENDBRANCH  13  14
ENDBRANCH   1  13
TORSDOF 5
ENDMDL
MODEL 6
REMARK VINA RESULT:      -5.9      3.338      6.666
REMARK  Name = 
REMARK  5 active torsions:
REMARK  status: ('A' for Active; 'I' for Inactive)
REMARK    1  A    between atoms: N_1  and  C_2
REMARK    2  A    between atoms: C_2  and  C_3
REMARK    3  A    between atoms: C_3  and  C_4
REMARK    4  A    between atoms: C_4  and  N_5
REMARK    5  A    between atoms: C_8  and  C_9
REMARK                            x       y       z     vdW  Elec       q    Type
REMARK                         _______ _______ _______ _____ _____    ______ ____
ROOT
ATOM      1  N   UNL     1       4.503   4.934  16.798  0.00  0.00    +0.000 N 
ATOM      2  C   UNL     1       4.834   6.257  16.691  0.00  0.00    +0.000 A 
ATOM      3  C   UNL     1       4.077   7.235  17.333  0.00  0.00    +0.000 A 
ATOM      4  C   UNL     1       2.970   6.864  18.117  0.00  0.00    +0.000 A 
ATOM      5  C   UNL     1       2.645   5.494  18.195  0.00  0.00    +0.000 A 
ATOM      6  C   UNL     1       3.414   4.553  17.525  0.00  0.00    +0.000 A 
ENDROOT
BRANCH   4   7
ATOM      7  C   UNL     1       2.177   7.874  18.880  0.00  0.00    +0.000 A 
ATOM      8  C   UNL     1       1.749   9.076  18.283  0.00  0.00    +0.000 A 
ATOM      9  C   UNL     1       1.002   9.995  19.036  0.00  0.00    +0.000 A 
ATOM     10  N   UNL     1       0.715   9.739  20.336  0.00  0.00    +0.000 NA
ATOM     11  C   UNL     1       1.127   8.600  20.947  0.00  0.00    +0.000 A 
ATOM     12  C   UNL     1       1.855   7.648  20.228  0.00  0.00    +0.000 A 
ENDBRANCH   4   7
BRANCH   1  13
ATOM     13  C   UNL     1       5.374   3.907  16.213  0.00  0.00    +0.000 C 
BRANCH  13  14
ATOM     14  C   UNL     1       6.733   4.401  15.703  0.00  0.00    +0.000 C 
BRANCH  14  15
ATOM     15  C   UNL     1       6.799   4.539  14.181  0.00  0.00    +0.000 C 
BRANCH  15  16
ATOM     16  N   UNL     1       7.818   5.522  13.825  0.00  0.00    +0.000 NA
ATOM     17  H   UNL     1       8.742   5.044  13.740  0.00  0.00    +0.000 HD
ATOM     18  H   UNL     1       7.887   6.244  14.579  0.00  0.00    +0.000 HD
ENDBRANCH  15  16
ENDBRANCH  14  15
ENDBRANCH  13  14
ENDBRANCH   1  13
TORSDOF 5
ENDMDL
MODEL 7
REMARK VINA RESULT:      -5.9      3.422      6.646
REMARK  Name = 
REMARK  5 active torsions:
REMARK  status: ('A' for Active; 'I' for Inactive)
REMARK    1  A    between atoms: N_1  and  C_2
REMARK    2  A    between atoms: C_2  and  C_3
REMARK    3  A    between atoms: C_3  and  C_4
REMARK    4  A    between atoms: C_4  and  N_5
REMARK    5  A    between atoms: C_8  and  C_9
REMARK                            x       y       z     vdW  Elec       q    Type
REMARK                         _______ _______ _______ _____ _____    ______ ____
ROOT
ATOM      1  N   UNL     1       4.489   4.999  16.894  0.00  0.00    +0.000 N 
ATOM      2  C   UNL     1       3.415   4.631  17.658  0.00  0.00    +0.000 A 
ATOM      3  C   UNL     1       2.640   5.591  18.307  0.00  0.00    +0.000 A 
ATOM      4  C   UNL     1       2.947   6.955  18.164  0.00  0.00    +0.000 A 
ATOM      5  C   UNL     1       4.069   7.302  17.382  0.00  0.00    +0.000 A 
ATOM      6  C   UNL     1       4.826   6.315  16.768  0.00  0.00    +0.000 A 
ENDROOT
BRANCH   4   7
ATOM      7  C   UNL     1       2.098   8.017  18.782  0.00  0.00    +0.000 A 
ATOM      8  C   UNL     1       1.628   9.113  18.032  0.00  0.00    +0.000 A 
ATOM      9  C   UNL     1       0.831  10.086  18.652  0.00  0.00    +0.000 A 
ATOM     10  N   UNL     1       0.533   9.985  19.970  0.00  0.00    +0.000 NA
ATOM     11  C   UNL     1       0.983   8.953  20.728  0.00  0.00    +0.000 A 
ATOM     12  C   UNL     1       1.763   7.951  20.144  0.00  0.00    +0.000 A 
ENDBRANCH   4   7
BRANCH   1  13
ATOM     13  C   UNL     1       5.226   3.990  16.124  0.00  0.00    +0.000 C 
BRANCH  13  14
ATOM     14  C   UNL     1       6.649   4.381  15.708  0.00  0.00    +0.000 C 
BRANCH  14  15
ATOM     15  C   UNL     1       6.830   4.502  14.194  0.00  0.00    +0.000 C 
BRANCH  15  16
ATOM     16  N   UNL     1       7.845   5.509  13.903  0.00  0.00    +0.000 NA
ATOM     17  H   UNL     1       7.425   6.460  14.002  0.00  0.00    +0.000 HD
ATOM     18  H   UNL     1       8.178   5.396  12.917  0.00  0.00    +0.000 HD
ENDBRANCH  15  16
ENDBRANCH  14  15
ENDBRANCH  13  14
ENDBRANCH   1  13
TORSDOF 5
ENDMDL
MODEL 8
REMARK VINA RESULT:      -5.9      4.231      4.979
REMARK  Name = 
REMARK  5 active torsions:
REMARK  status: ('A' for Active; 'I' for Inactive)
REMARK    1  A    between atoms: N_1  and  C_2
REMARK    2  A    between atoms: C_2  and  C_3
REMARK    3  A    between atoms: C_3  and  C_4
REMARK    4  A    between atoms: C_4  and  N_5
REMARK    5  A    between atoms: C_8  and  C_9
REMARK                            x       y       z     vdW  Elec       q    Type
REMARK                         _______ _______ _______ _____ _____    ______ ____
ROOT
ATOM      1  N   UNL     1       1.317   8.897  19.592  0.00  0.00    +0.000 N 
ATOM      2  C   UNL     1       1.723   9.199  18.320  0.00  0.00    +0.000 A 
ATOM      3  C   UNL     1       2.560   8.335  17.615  0.00  0.00    +0.000 A 
ATOM      4  C   UNL     1       2.979   7.129  18.203  0.00  0.00    +0.000 A 
ATOM      5  C   UNL     1       2.556   6.853  19.520  0.00  0.00    +0.000 A 
ATOM      6  C   UNL     1       1.739   7.748  20.195  0.00  0.00    +0.000 A 
ENDROOT
BRANCH   4   7
ATOM      7  C   UNL     1       3.815   6.143  17.454  0.00  0.00    +0.000 A 
ATOM      8  C   UNL     1       3.608   4.755  17.584  0.00  0.00    +0.000 A 
ATOM      9  C   UNL     1       4.414   3.865  16.859  0.00  0.00    +0.000 A 
ATOM     10  N   UNL     1       5.401   4.335  16.057  0.00  0.00    +0.000 NA
ATOM     11  C   UNL     1       5.639   5.664  15.922  0.00  0.00    +0.000 A 
ATOM     12  C   UNL     1       4.846   6.587  16.610  0.00  0.00    +0.000 A 
ENDBRANCH   4   7
BRANCH   1  13
ATOM     13  C   UNL     1       0.345   9.756  20.279  0.00  0.00    +0.000 C 
BRANCH  13  14
ATOM     14  C   UNL     1      -0.284   9.165  21.546  0.00  0.00    +0.000 C 
BRANCH  14  15
ATOM     15  C   UNL     1      -0.421  10.175  22.687  0.00  0.00    +0.000 C 
BRANCH  15  16
ATOM     16  N   UNL     1       0.120   9.601  23.915  0.00  0.00    +0.000 NA
ATOM     17  H   UNL     1      -0.075   8.575  23.929  0.00  0.00    +0.000 HD
ATOM     18  H   UNL     1      -0.350  10.038  24.742  0.00  0.00    +0.000 HD
ENDBRANCH  15  16
ENDBRANCH  14  15
ENDBRANCH  13  14
ENDBRANCH   1  13
TORSDOF 5
ENDMDL
MODEL 9
REMARK VINA RESULT:      -5.9      0.667      1.368
REMARK  Name = 
REMARK  5 active torsions:
REMARK  status: ('A' for Active; 'I' for Inactive)
REMARK    1  A    between atoms: N_1  and  C_2
REMARK    2  A    between atoms: C_2  and  C_3
REMARK    3  A    between atoms: C_3  and  C_4
REMARK    4  A    between atoms: C_4  and  N_5
REMARK    5  A    between atoms: C_8  and  C_9
REMARK                            x       y       z     vdW  Elec       q    Type
REMARK                         _______ _______ _______ _____ _____    ______ ____
ROOT
ATOM      1  N   UNL     1       1.820   3.169  18.600  0.00  0.00    +0.000 N 
ATOM      2  C   UNL     1       2.796   2.279  18.242  0.00  0.00    +0.000 A 
ATOM      3  C   UNL     1       3.905   2.696  17.508  0.00  0.00    +0.000 A 
ATOM      4  C   UNL     1       4.040   4.048  17.145  0.00  0.00    +0.000 A 
ATOM      5  C   UNL     1       3.009   4.937  17.516  0.00  0.00    +0.000 A 
ATOM      6  C   UNL     1       1.912   4.478  18.230  0.00  0.00    +0.000 A 
ENDROOT
BRANCH   4   7
ATOM      7  C   UNL     1       5.248   4.548  16.424  0.00  0.00    +0.000 A 
ATOM      8  C   UNL     1       5.529   4.156  15.100  0.00  0.00    +0.000 A 
ATOM      9  C   UNL     1       6.673   4.654  14.458  0.00  0.00    +0.000 A 
ATOM     10  N   UNL     1       7.515   5.488  15.116  0.00  0.00    +0.000 NA
ATOM     11  C   UNL     1       7.285   5.872  16.397  0.00  0.00    +0.000 A 
ATOM     12  C   UNL     1       6.146   5.416  17.066  0.00  0.00    +0.000 A 
ENDBRANCH   4   7
BRANCH   1  13
ATOM     13  C   UNL     1       0.717   2.742  19.470  0.00  0.00    +0.000 C 
BRANCH  13  14
ATOM     14  C   UNL     1       0.955   2.909  20.975  0.00  0.00    +0.000 C 
BRANCH  14  15
ATOM     15  C   UNL     1       2.391   3.305  21.325  0.00  0.00    +0.000 C 
BRANCH  15  16
ATOM     16  N   UNL     1       2.459   4.746  21.547  0.00  0.00    +0.000 NA
ATOM     17  H   UNL     1       2.830   5.209  20.688  0.00  0.00    +0.000 HD
ATOM     18  H   UNL     1       3.113   4.947  22.339  0.00  0.00    +0.000 HD
ENDBRANCH  15  16
ENDBRANCH  14  15
ENDBRANCH  13  14
ENDBRANCH   1  13
TORSDOF 5
ENDMDL
