MODEL 1
REMARK VINA RESULT:      -8.0      0.000      0.000
REMARK  Name = 
REMARK  15 active torsions:
REMARK  status: ('A' for Active; 'I' for Inactive)
REMARK    1  A    between atoms: C_1  and  C_2
REMARK    2  A    between atoms: C_2  and  C_3
REMARK    3  A    between atoms: C_3  and  N_4
REMARK    4  A    between atoms: N_4  and  C_5
REMARK    5  A    between atoms: C_5  and  C_6
REMARK    6  A    between atoms: C_8  and  C_9
REMARK    7  A    between atoms: C_9  and  O_10
REMARK    8  A    between atoms: O_10  and  C_11
REMARK    9  A    between atoms: C_12  and  C_13
REMARK   10  A    between atoms: C_13  and  C_14
REMARK   11  A    between atoms: C_17  and  C_18
REMARK   12  A    between atoms: N_26  and  C_27
REMARK   13  A    between atoms: C_27  and  C_28
REMARK   14  A    between atoms: C_27  and  C_29
REMARK   15  A    between atoms: C_27  and  C_30
REMARK                            x       y       z     vdW  Elec       q    Type
REMARK                         _______ _______ _______ _____ _____    ______ ____
ROOT
ATOM      1  C   UNL     1       2.252   6.982  19.789  0.00  0.00    +0.000 A 
ATOM      2  N   UNL     1       1.698   7.539  20.816  0.00  0.00    +0.000 NA
ATOM      3  C   UNL     1       1.255   8.844  20.715  0.00  0.00    +0.000 A 
ATOM      4  C   UNL     1       1.289   9.560  19.575  0.00  0.00    +0.000 A 
ATOM      5  C   UNL     1       1.825   8.862  18.378  0.00  0.00    +0.000 A 
ATOM      6  O   UNL     1       1.859   9.390  17.268  0.00  0.00    +0.000 OA
ATOM      7  N   UNL     1       2.317   7.602  18.580  0.00  0.00    +0.000 N 
ATOM      8  H   UNL     1       2.719   7.150  17.771  0.00  0.00    +0.000 HD
ENDROOT
BRANCH   1   9
ATOM      9  C   UNL     1       2.956   5.635  19.989  0.00  0.00    +0.000 C 
BRANCH   9  10
ATOM     10  N   UNL     1       3.047   4.613  18.937  0.00  0.00    +0.000 N 
ATOM     11  C   UNL     1       3.844   4.629  17.802  0.00  0.00    +0.000 C 
ATOM     12  O   UNL     1       3.630   3.835  16.884  0.00  0.00    +0.000 OA
ATOM     13  N   UNL     1       4.907   5.479  17.759  0.00  0.00    +0.000 N 
ATOM     14  H   UNL     1       4.942   6.270  18.395  0.00  0.00    +0.000 HD
BRANCH  13  15
ATOM     15  C   UNL     1       5.894   5.442  16.658  0.00  0.00    +0.000 C 
ATOM     16  C   UNL     1       6.297   3.999  16.292  0.00  0.00    +0.000 C 
ATOM     17  C   UNL     1       5.289   6.091  15.399  0.00  0.00    +0.000 C 
ATOM     18  C   UNL     1       7.143   6.258  17.045  0.00  0.00    +0.000 C 
ENDBRANCH  13  15
BRANCH  10  19
ATOM     19  C   UNL     1       1.834   3.794  18.760  0.00  0.00    +0.000 C 
BRANCH  19  21
ATOM     20  C   UNL     1       1.451   2.591  20.949  0.00  0.00    +0.000 C 
ATOM     21  C   UNL     1       0.989   3.708  20.030  0.00  0.00    +0.000 C 
ENDBRANCH  19  21
ENDBRANCH  10  19
ENDBRANCH   9  10
ENDBRANCH   1   9
BRANCH   3  22
ATOM     22  C   UNL     1       0.820   9.451  22.046  0.00  0.00    +0.000 C 
BRANCH  22  23
ATOM     23  O   UNL     1      -0.603   9.438  22.234  0.00  0.00    +0.000 OA
ATOM     24  C   UNL     1      -1.065  10.454  23.117  0.00  0.00    +0.000 C 
ENDBRANCH  22  23
ENDBRANCH   3  22
BRANCH   4  25
ATOM     25  C   UNL     1       0.756  10.963  19.401  0.00  0.00    +0.000 C 
BRANCH  25  26
ATOM     26  C   UNL     1      -0.724  11.071  19.089  0.00  0.00    +0.000 A 
ATOM     27  C   UNL     1      -1.535  12.002  19.756  0.00  0.00    +0.000 A 
ATOM     28  C   UNL     1      -2.871  12.176  19.386  0.00  0.00    +0.000 A 
ATOM     29  C   UNL     1      -3.427  11.441  18.336  0.00  0.00    +0.000 A 
ATOM     30  C   UNL     1      -4.831  11.694  17.872  0.00  0.00    +0.000 C 
ATOM     31  C   UNL     1      -2.635  10.487  17.689  0.00  0.00    +0.000 A 
ATOM     32  C   UNL     1      -1.296  10.309  18.057  0.00  0.00    +0.000 A 
ENDBRANCH  25  26
ENDBRANCH   4  25
TORSDOF 9
ENDMDL
MODEL 2
REMARK VINA RESULT:      -7.9      0.681      1.084
REMARK  Name = 
REMARK  15 active torsions:
REMARK  status: ('A' for Active; 'I' for Inactive)
REMARK    1  A    between atoms: C_1  and  C_2
REMARK    2  A    between atoms: C_2  and  C_3
REMARK    3  A    between atoms: C_3  and  N_4
REMARK    4  A    between atoms: N_4  and  C_5
REMARK    5  A    between atoms: C_5  and  C_6
REMARK    6  A    between atoms: C_8  and  C_9
REMARK    7  A    between atoms: C_9  and  O_10
REMARK    8  A    between atoms: O_10  and  C_11
REMARK    9  A    between atoms: C_12  and  C_13
REMARK   10  A    between atoms: C_13  and  C_14
REMARK   11  A    between atoms: C_17  and  C_18
REMARK   12  A    between atoms: N_26  and  C_27
REMARK   13  A    between atoms: C_27  and  C_28
REMARK   14  A    between atoms: C_27  and  C_29
REMARK   15  A    between atoms: C_27  and  C_30
REMARK                            x       y       z     vdW  Elec       q    Type
REMARK                         _______ _______ _______ _____ _____    ______ ____
ROOT
ATOM      1  C   UNL     1       2.034   7.268  19.860  0.00  0.00    +0.000 A 
ATOM      2  N   UNL     1       1.174   7.690  20.729  0.00  0.00    +0.000 NA
ATOM      3  C   UNL     1       0.612   8.942  20.565  0.00  0.00    +0.000 A 
ATOM      4  C   UNL     1       0.843   9.731  19.500  0.00  0.00    +0.000 A 
ATOM      5  C   UNL     1       1.746   9.179  18.456  0.00  0.00    +0.000 A 
ATOM      6  O   UNL     1       1.992   9.781  17.413  0.00  0.00    +0.000 OA
ATOM      7  N   UNL     1       2.323   7.971  18.732  0.00  0.00    +0.000 N 
ATOM      8  H   UNL     1       2.969   7.621  18.039  0.00  0.00    +0.000 HD
ENDROOT
BRANCH   1   9
ATOM      9  C   UNL     1       2.826   5.996  20.186  0.00  0.00    +0.000 C 
BRANCH   9  10
ATOM     10  N   UNL     1       3.069   4.929  19.206  0.00  0.00    +0.000 N 
ATOM     11  C   UNL     1       3.976   4.928  18.157  0.00  0.00    +0.000 C 
ATOM     12  O   UNL     1       3.892   4.080  17.267  0.00  0.00    +0.000 OA
ATOM     13  N   UNL     1       4.999   5.827  18.174  0.00  0.00    +0.000 N 
ATOM     14  H   UNL     1       4.933   6.649  18.766  0.00  0.00    +0.000 HD
BRANCH  13  15
ATOM     15  C   UNL     1       6.093   5.784  17.180  0.00  0.00    +0.000 C 
ATOM     16  C   UNL     1       7.116   6.917  17.397  0.00  0.00    +0.000 C 
ATOM     17  C   UNL     1       6.847   4.446  17.297  0.00  0.00    +0.000 C 
ATOM     18  C   UNL     1       5.511   5.863  15.754  0.00  0.00    +0.000 C 
ENDBRANCH  13  15
BRANCH  10  19
ATOM     19  C   UNL     1       1.918   4.043  18.954  0.00  0.00    +0.000 C 
BRANCH  19  21
ATOM     20  C   UNL     1       1.588   2.644  21.033  0.00  0.00    +0.000 C 
ATOM     21  C   UNL     1       1.070   3.806  20.204  0.00  0.00    +0.000 C 
ENDBRANCH  19  21
ENDBRANCH  10  19
ENDBRANCH   9  10
ENDBRANCH   1   9
BRANCH   3  22
ATOM     22  C   UNL     1      -0.217   9.406  21.759  0.00  0.00    +0.000 C 
BRANCH  22  23
ATOM     23  O   UNL     1       0.279  10.613  22.357  0.00  0.00    +0.000 OA
ATOM     24  C   UNL     1      -0.751  11.506  22.765  0.00  0.00    +0.000 C 
ENDBRANCH  22  23
ENDBRANCH   3  22
BRANCH   4  25
ATOM     25  C   UNL     1       0.201  11.076  19.245  0.00  0.00    +0.000 C 
BRANCH  25  26
ATOM     26  C   UNL     1      -1.264  11.042  18.853  0.00  0.00    +0.000 A 
ATOM     27  C   UNL     1      -2.179  11.950  19.408  0.00  0.00    +0.000 A 
ATOM     28  C   UNL     1      -3.503  11.990  18.961  0.00  0.00    +0.000 A 
ATOM     29  C   UNL     1      -3.942  11.139  17.943  0.00  0.00    +0.000 A 
ATOM     30  C   UNL     1      -5.334  11.246  17.394  0.00  0.00    +0.000 C 
ATOM     31  C   UNL     1      -3.046  10.209  17.409  0.00  0.00    +0.000 A 
ATOM     32  C   UNL     1      -1.719  10.165  17.855  0.00  0.00    +0.000 A 
ENDBRANCH  25  26
ENDBRANCH   4  25
TORSDOF 9
ENDMDL
MODEL 3
REMARK VINA RESULT:      -7.9      0.749      1.155
REMARK  Name = 
REMARK  15 active torsions:
REMARK  status: ('A' for Active; 'I' for Inactive)
REMARK    1  A    between atoms: C_1  and  C_2
REMARK    2  A    between atoms: C_2  and  C_3
REMARK    3  A    between atoms: C_3  and  N_4
REMARK    4  A    between atoms: N_4  and  C_5
REMARK    5  A    between atoms: C_5  and  C_6
REMARK    6  A    between atoms: C_8  and  C_9
REMARK    7  A    between atoms: C_9  and  O_10
REMARK    8  A    between atoms: O_10  and  C_11
REMARK    9  A    between atoms: C_12  and  C_13
REMARK   10  A    between atoms: C_13  and  C_14
REMARK   11  A    between atoms: C_17  and  C_18
REMARK   12  A    between atoms: N_26  and  C_27
REMARK   13  A    between atoms: C_27  and  C_28
REMARK   14  A    between atoms: C_27  and  C_29
REMARK   15  A    between atoms: C_27  and  C_30
REMARK                            x       y       z     vdW  Elec       q    Type
REMARK                         _______ _______ _______ _____ _____    ______ ____
ROOT
ATOM      1  C   UNL     1       1.994   7.444  19.836  0.00  0.00    +0.000 A 
ATOM      2  N   UNL     1       1.124   7.867  20.694  0.00  0.00    +0.000 NA
ATOM      3  C   UNL     1       0.567   9.120  20.525  0.00  0.00    +0.000 A 
ATOM      4  C   UNL     1       0.814   9.911  19.465  0.00  0.00    +0.000 A 
ATOM      5  C   UNL     1       1.730   9.359  18.432  0.00  0.00    +0.000 A 
ATOM      6  O   UNL     1       1.992   9.963  17.394  0.00  0.00    +0.000 OA
ATOM      7  N   UNL     1       2.301   8.149  18.714  0.00  0.00    +0.000 N 
ATOM      8  H   UNL     1       2.955   7.799  18.029  0.00  0.00    +0.000 HD
ENDROOT
BRANCH   1   9
ATOM      9  C   UNL     1       2.779   6.170  20.170  0.00  0.00    +0.000 C 
BRANCH   9  10
ATOM     10  N   UNL     1       2.984   5.079  19.208  0.00  0.00    +0.000 N 
ATOM     11  C   UNL     1       3.885   5.031  18.155  0.00  0.00    +0.000 C 
ATOM     12  O   UNL     1       3.770   4.170  17.280  0.00  0.00    +0.000 OA
ATOM     13  N   UNL     1       4.935   5.897  18.151  0.00  0.00    +0.000 N 
ATOM     14  H   UNL     1       4.898   6.732  18.729  0.00  0.00    +0.000 HD
BRANCH  13  15
ATOM     15  C   UNL     1       6.023   5.803  17.153  0.00  0.00    +0.000 C 
ATOM     16  C   UNL     1       6.740   4.438  17.207  0.00  0.00    +0.000 C 
ATOM     17  C   UNL     1       5.441   5.969  15.737  0.00  0.00    +0.000 C 
ATOM     18  C   UNL     1       7.038   6.942  17.373  0.00  0.00    +0.000 C 
ENDBRANCH  13  15
BRANCH  10  19
ATOM     19  C   UNL     1       1.804   4.225  18.977  0.00  0.00    +0.000 C 
BRANCH  19  21
ATOM     20  C   UNL     1       1.649   2.894  21.120  0.00  0.00    +0.000 C 
ATOM     21  C   UNL     1       1.006   3.962  20.254  0.00  0.00    +0.000 C 
ENDBRANCH  19  21
ENDBRANCH  10  19
ENDBRANCH   9  10
ENDBRANCH   1   9
BRANCH   3  22
ATOM     22  C   UNL     1      -0.277   9.584  21.709  0.00  0.00    +0.000 C 
BRANCH  22  23
ATOM     23  O   UNL     1       0.230  10.773  22.333  0.00  0.00    +0.000 OA
ATOM     24  C   UNL     1      -0.792  11.674  22.745  0.00  0.00    +0.000 C 
ENDBRANCH  22  23
ENDBRANCH   3  22
BRANCH   4  25
ATOM     25  C   UNL     1       0.179  11.258  19.204  0.00  0.00    +0.000 C 
BRANCH  25  26
ATOM     26  C   UNL     1      -1.267  11.226  18.750  0.00  0.00    +0.000 A 
ATOM     27  C   UNL     1      -1.709  10.277  17.816  0.00  0.00    +0.000 A 
ATOM     28  C   UNL     1      -3.063  10.179  17.486  0.00  0.00    +0.000 A 
ATOM     29  C   UNL     1      -4.010  11.012  18.088  0.00  0.00    +0.000 A 
ATOM     30  C   UNL     1      -5.476  10.844  17.810  0.00  0.00    +0.000 C 
ATOM     31  C   UNL     1      -3.574  11.983  18.994  0.00  0.00    +0.000 A 
ATOM     32  C   UNL     1      -2.218  12.084  19.327  0.00  0.00    +0.000 A 
ENDBRANCH  25  26
ENDBRANCH   4  25
TORSDOF 9
ENDMDL
MODEL 4
REMARK VINA RESULT:      -7.8      1.163      1.768
REMARK  Name = 
REMARK  15 active torsions:
REMARK  status: ('A' for Active; 'I' for Inactive)
REMARK    1  A    between atoms: C_1  and  C_2
REMARK    2  A    between atoms: C_2  and  C_3
REMARK    3  A    between atoms: C_3  and  N_4
REMARK    4  A    between atoms: N_4  and  C_5
REMARK    5  A    between atoms: C_5  and  C_6
REMARK    6  A    between atoms: C_8  and  C_9
REMARK    7  A    between atoms: C_9  and  O_10
REMARK    8  A    between atoms: O_10  and  C_11
REMARK    9  A    between atoms: C_12  and  C_13
REMARK   10  A    between atoms: C_13  and  C_14
REMARK   11  A    between atoms: C_17  and  C_18
REMARK   12  A    between atoms: N_26  and  C_27
REMARK   13  A    between atoms: C_27  and  C_28
REMARK   14  A    between atoms: C_27  and  C_29
REMARK   15  A    between atoms: C_27  and  C_30
REMARK                            x       y       z     vdW  Elec       q    Type
REMARK                         _______ _______ _______ _____ _____    ______ ____
ROOT
ATOM      1  C   UNL     1       2.214   6.929  19.595  0.00  0.00    +0.000 A 
ATOM      2  N   UNL     1       1.399   7.288  20.533  0.00  0.00    +0.000 NA
ATOM      3  C   UNL     1       0.890   8.572  20.527  0.00  0.00    +0.000 A 
ATOM      4  C   UNL     1       1.126   9.465  19.548  0.00  0.00    +0.000 A 
ATOM      5  C   UNL     1       1.973   8.996  18.421  0.00  0.00    +0.000 A 
ATOM      6  O   UNL     1       2.217   9.700  17.443  0.00  0.00    +0.000 OA
ATOM      7  N   UNL     1       2.503   7.741  18.543  0.00  0.00    +0.000 N 
ATOM      8  H   UNL     1       3.112   7.444  17.794  0.00  0.00    +0.000 HD
ENDROOT
BRANCH   1   9
ATOM      9  C   UNL     1       2.957   5.597  19.753  0.00  0.00    +0.000 C 
BRANCH   9  10
ATOM     10  N   UNL     1       3.531   4.861  18.618  0.00  0.00    +0.000 N 
ATOM     11  C   UNL     1       4.778   5.031  18.037  0.00  0.00    +0.000 C 
ATOM     12  O   UNL     1       5.024   4.526  16.939  0.00  0.00    +0.000 OA
ATOM     13  N   UNL     1       5.741   5.695  18.733  0.00  0.00    +0.000 N 
ATOM     14  H   UNL     1       5.475   6.293  19.509  0.00  0.00    +0.000 HD
BRANCH  13  15
ATOM     15  C   UNL     1       7.137   5.778  18.251  0.00  0.00    +0.000 C 
ATOM     16  C   UNL     1       7.379   7.037  17.393  0.00  0.00    +0.000 C 
ATOM     17  C   UNL     1       8.097   5.842  19.454  0.00  0.00    +0.000 C 
ATOM     18  C   UNL     1       7.490   4.512  17.444  0.00  0.00    +0.000 C 
ENDBRANCH  13  15
BRANCH  10  19
ATOM     19  C   UNL     1       2.543   4.302  17.677  0.00  0.00    +0.000 C 
BRANCH  19  21
ATOM     20  C   UNL     1       2.854   1.901  18.402  0.00  0.00    +0.000 C 
ATOM     21  C   UNL     1       1.867   3.039  18.210  0.00  0.00    +0.000 C 
ENDBRANCH  19  21
ENDBRANCH  10  19
ENDBRANCH   9  10
ENDBRANCH   1   9
BRANCH   3  22
ATOM     22  C   UNL     1       0.117   8.934  21.792  0.00  0.00    +0.000 C 
BRANCH  22  23
ATOM     23  O   UNL     1       0.469  10.221  22.321  0.00  0.00    +0.000 OA
ATOM     24  C   UNL     1      -0.635  10.922  22.883  0.00  0.00    +0.000 C 
ENDBRANCH  22  23
ENDBRANCH   3  22
BRANCH   4  25
ATOM     25  C   UNL     1       0.539  10.856  19.465  0.00  0.00    +0.000 C 
BRANCH  25  26
ATOM     26  C   UNL     1      -0.855  10.947  18.875  0.00  0.00    +0.000 A 
ATOM     27  C   UNL     1      -1.264  10.076  17.854  0.00  0.00    +0.000 A 
ATOM     28  C   UNL     1      -2.583  10.088  17.393  0.00  0.00    +0.000 A 
ATOM     29  C   UNL     1      -3.528  10.956  17.947  0.00  0.00    +0.000 A 
ATOM     30  C   UNL     1      -4.967  10.904  17.523  0.00  0.00    +0.000 C 
ATOM     31  C   UNL     1      -3.121  11.850  18.941  0.00  0.00    +0.000 A 
ATOM     32  C   UNL     1      -1.800  11.841  19.405  0.00  0.00    +0.000 A 
ENDBRANCH  25  26
ENDBRANCH   4  25
TORSDOF 9
ENDMDL
MODEL 5
REMARK VINA RESULT:      -7.7      1.004      1.225
REMARK  Name = 
REMARK  15 active torsions:
REMARK  status: ('A' for Active; 'I' for Inactive)
REMARK    1  A    between atoms: C_1  and  C_2
REMARK    2  A    between atoms: C_2  and  C_3
REMARK    3  A    between atoms: C_3  and  N_4
REMARK    4  A    between atoms: N_4  and  C_5
REMARK    5  A    between atoms: C_5  and  C_6
REMARK    6  A    between atoms: C_8  and  C_9
REMARK    7  A    between atoms: C_9  and  O_10
REMARK    8  A    between atoms: O_10  and  C_11
REMARK    9  A    between atoms: C_12  and  C_13
REMARK   10  A    between atoms: C_13  and  C_14
REMARK   11  A    between atoms: C_17  and  C_18
REMARK   12  A    between atoms: N_26  and  C_27
REMARK   13  A    between atoms: C_27  and  C_28
REMARK   14  A    between atoms: C_27  and  C_29
REMARK   15  A    between atoms: C_27  and  C_30
REMARK                            x       y       z     vdW  Elec       q    Type
REMARK                         _______ _______ _______ _____ _____    ______ ____
ROOT
ATOM      1  C   UNL     1       2.514   6.296  19.628  0.00  0.00    +0.000 A 
ATOM      2  N   UNL     1       1.950   6.906  20.620  0.00  0.00    +0.000 NA
ATOM      3  C   UNL     1       1.570   8.226  20.468  0.00  0.00    +0.000 A 
ATOM      4  C   UNL     1       1.675   8.906  19.312  0.00  0.00    +0.000 A 
ATOM      5  C   UNL     1       2.220   8.152  18.153  0.00  0.00    +0.000 A 
ATOM      6  O   UNL     1       2.316   8.647  17.032  0.00  0.00    +0.000 OA
ATOM      7  N   UNL     1       2.648   6.878  18.406  0.00  0.00    +0.000 N 
ATOM      8  H   UNL     1       3.056   6.386  17.625  0.00  0.00    +0.000 HD
ENDROOT
BRANCH   1   9
ATOM      9  C   UNL     1       3.149   4.925  19.890  0.00  0.00    +0.000 C 
BRANCH   9  10
ATOM     10  N   UNL     1       3.692   4.076  18.821  0.00  0.00    +0.000 N 
ATOM     11  C   UNL     1       4.722   4.371  17.941  0.00  0.00    +0.000 C 
ATOM     12  O   UNL     1       4.898   3.675  16.938  0.00  0.00    +0.000 OA
ATOM     13  N   UNL     1       5.575   5.387  18.246  0.00  0.00    +0.000 N 
ATOM     14  H   UNL     1       5.298   6.085  18.930  0.00  0.00    +0.000 HD
BRANCH  13  15
ATOM     15  C   UNL     1       6.788   5.658  17.444  0.00  0.00    +0.000 C 
ATOM     16  C   UNL     1       6.474   5.754  15.937  0.00  0.00    +0.000 C 
ATOM     17  C   UNL     1       7.407   6.999  17.878  0.00  0.00    +0.000 C 
ATOM     18  C   UNL     1       7.840   4.559  17.695  0.00  0.00    +0.000 C 
ENDBRANCH  13  15
BRANCH  10  19
ATOM     19  C   UNL     1       2.744   3.093  18.267  0.00  0.00    +0.000 C 
BRANCH  19  21
ATOM     20  C   UNL     1       0.391   2.366  18.836  0.00  0.00    +0.000 C 
ATOM     21  C   UNL     1       1.286   3.522  18.427  0.00  0.00    +0.000 C 
ENDBRANCH  19  21
ENDBRANCH  10  19
ENDBRANCH   9  10
ENDBRANCH   1   9
BRANCH   3  22
ATOM     22  C   UNL     1       1.116   8.888  21.766  0.00  0.00    +0.000 C 
BRANCH  22  23
ATOM     23  O   UNL     1      -0.312   8.954  21.898  0.00  0.00    +0.000 OA
ATOM     24  C   UNL     1      -0.744   9.830  22.933  0.00  0.00    +0.000 C 
ENDBRANCH  22  23
ENDBRANCH   3  22
BRANCH   4  25
ATOM     25  C   UNL     1       1.212  10.326  19.081  0.00  0.00    +0.000 C 
BRANCH  25  26
ATOM     26  C   UNL     1      -0.261  10.495  18.760  0.00  0.00    +0.000 A 
ATOM     27  C   UNL     1      -1.057  11.400  19.478  0.00  0.00    +0.000 A 
ATOM     28  C   UNL     1      -2.383  11.634  19.106  0.00  0.00    +0.000 A 
ATOM     29  C   UNL     1      -2.943  10.985  18.003  0.00  0.00    +0.000 A 
ATOM     30  C   UNL     1      -4.334  11.307  17.541  0.00  0.00    +0.000 C 
ATOM     31  C   UNL     1      -2.168  10.056  17.302  0.00  0.00    +0.000 A 
ATOM     32  C   UNL     1      -0.839   9.819  17.673  0.00  0.00    +0.000 A 
ENDBRANCH  25  26
ENDBRANCH   4  25
TORSDOF 9
ENDMDL
MODEL 6
REMARK VINA RESULT:      -7.3      1.859      3.188
REMARK  Name = 
REMARK  15 active torsions:
REMARK  status: ('A' for Active; 'I' for Inactive)
REMARK    1  A    between atoms: C_1  and  C_2
REMARK    2  A    between atoms: C_2  and  C_3
REMARK    3  A    between atoms: C_3  and  N_4
REMARK    4  A    between atoms: N_4  and  C_5
REMARK    5  A    between atoms: C_5  and  C_6
REMARK    6  A    between atoms: C_8  and  C_9
REMARK    7  A    between atoms: C_9  and  O_10
REMARK    8  A    between atoms: O_10  and  C_11
REMARK    9  A    between atoms: C_12  and  C_13
REMARK   10  A    between atoms: C_13  and  C_14
REMARK   11  A    between atoms: C_17  and  C_18
REMARK   12  A    between atoms: N_26  and  C_27
REMARK   13  A    between atoms: C_27  and  C_28
REMARK   14  A    between atoms: C_27  and  C_29
REMARK   15  A    between atoms: C_27  and  C_30
REMARK                            x       y       z     vdW  Elec       q    Type
REMARK                         _______ _______ _______ _____ _____    ______ ____
ROOT
ATOM      1  C   UNL     1       2.309   7.032  19.742  0.00  0.00    +0.000 A 
ATOM      2  N   UNL     1       1.780   7.565  20.795  0.00  0.00    +0.000 NA
ATOM      3  C   UNL     1       1.259   8.842  20.713  0.00  0.00    +0.000 A 
ATOM      4  C   UNL     1       1.191   9.550  19.570  0.00  0.00    +0.000 A 
ATOM      5  C   UNL     1       1.701   8.875  18.348  0.00  0.00    +0.000 A 
ATOM      6  O   UNL     1       1.646   9.397  17.237  0.00  0.00    +0.000 OA
ATOM      7  N   UNL     1       2.273   7.647  18.529  0.00  0.00    +0.000 N 
ATOM      8  H   UNL     1       2.656   7.212  17.701  0.00  0.00    +0.000 HD
ENDROOT
BRANCH   1   9
ATOM      9  C   UNL     1       3.098   5.728  19.909  0.00  0.00    +0.000 C 
BRANCH   9  10
ATOM     10  N   UNL     1       3.372   4.809  18.797  0.00  0.00    +0.000 N 
ATOM     11  C   UNL     1       4.369   4.906  17.838  0.00  0.00    +0.000 C 
ATOM     12  O   UNL     1       4.322   4.210  16.822  0.00  0.00    +0.000 OA
ATOM     13  N   UNL     1       5.432   5.723  18.078  0.00  0.00    +0.000 N 
ATOM     14  H   UNL     1       5.357   6.448  18.785  0.00  0.00    +0.000 HD
BRANCH  13  15
ATOM     15  C   UNL     1       6.608   5.759  17.182  0.00  0.00    +0.000 C 
ATOM     16  C   UNL     1       6.202   5.740  15.694  0.00  0.00    +0.000 C 
ATOM     17  C   UNL     1       7.409   7.050  17.431  0.00  0.00    +0.000 C 
ATOM     18  C   UNL     1       7.540   4.569  17.491  0.00  0.00    +0.000 C 
ENDBRANCH  13  15
BRANCH  10  19
ATOM     19  C   UNL     1       2.204   4.048  18.317  0.00  0.00    +0.000 C 
BRANCH  19  21
ATOM     20  C   UNL     1       0.582   2.173  18.804  0.00  0.00    +0.000 C 
ATOM     21  C   UNL     1       1.643   3.097  19.373  0.00  0.00    +0.000 C 
ENDBRANCH  19  21
ENDBRANCH  10  19
ENDBRANCH   9  10
ENDBRANCH   1   9
BRANCH   3  22
ATOM     22  C   UNL     1       0.861   9.432  22.063  0.00  0.00    +0.000 C 
BRANCH  22  23
ATOM     23  O   UNL     1      -0.553   9.388  22.305  0.00  0.00    +0.000 OA
ATOM     24  C   UNL     1      -1.030  10.490  23.067  0.00  0.00    +0.000 C 
ENDBRANCH  22  23
ENDBRANCH   3  22
BRANCH   4  25
ATOM     25  C   UNL     1       0.571  10.920  19.419  0.00  0.00    +0.000 C 
BRANCH  25  26
ATOM     26  C   UNL     1       1.534  12.090  19.487  0.00  0.00    +0.000 A 
ATOM     27  C   UNL     1       2.183  12.556  18.334  0.00  0.00    +0.000 A 
ATOM     28  C   UNL     1       2.981  13.703  18.380  0.00  0.00    +0.000 A 
ATOM     29  C   UNL     1       3.137  14.420  19.569  0.00  0.00    +0.000 A 
ATOM     30  C   UNL     1       3.912  15.705  19.600  0.00  0.00    +0.000 C 
ATOM     31  C   UNL     1       2.522  13.943  20.730  0.00  0.00    +0.000 A 
ATOM     32  C   UNL     1       1.722  12.794  20.687  0.00  0.00    +0.000 A 
ENDBRANCH  25  26
ENDBRANCH   4  25
TORSDOF 9
ENDMDL
MODEL 7
REMARK VINA RESULT:      -7.3      1.400      1.672
REMARK  Name = 
REMARK  15 active torsions:
REMARK  status: ('A' for Active; 'I' for Inactive)
REMARK    1  A    between atoms: C_1  and  C_2
REMARK    2  A    between atoms: C_2  and  C_3
REMARK    3  A    between atoms: C_3  and  N_4
REMARK    4  A    between atoms: N_4  and  C_5
REMARK    5  A    between atoms: C_5  and  C_6
REMARK    6  A    between atoms: C_8  and  C_9
REMARK    7  A    between atoms: C_9  and  O_10
REMARK    8  A    between atoms: O_10  and  C_11
REMARK    9  A    between atoms: C_12  and  C_13
REMARK   10  A    between atoms: C_13  and  C_14
REMARK   11  A    between atoms: C_17  and  C_18
REMARK   12  A    between atoms: N_26  and  C_27
REMARK   13  A    between atoms: C_27  and  C_28
REMARK   14  A    between atoms: C_27  and  C_29
REMARK   15  A    between atoms: C_27  and  C_30
REMARK                            x       y       z     vdW  Elec       q    Type
REMARK                         _______ _______ _______ _____ _____    ______ ____
ROOT
ATOM      1  C   UNL     1       2.140   7.080  18.741  0.00  0.00    +0.000 A 
ATOM      2  N   UNL     1       1.713   7.265  19.948  0.00  0.00    +0.000 NA
ATOM      3  C   UNL     1       1.412   8.547  20.365  0.00  0.00    +0.000 A 
ATOM      4  C   UNL     1       1.457   9.625  19.560  0.00  0.00    +0.000 A 
ATOM      5  C   UNL     1       1.841   9.374  18.147  0.00  0.00    +0.000 A 
ATOM      6  O   UNL     1       1.867  10.268  17.303  0.00  0.00    +0.000 OA
ATOM      7  N   UNL     1       2.201   8.093  17.835  0.00  0.00    +0.000 N 
ATOM      8  H   UNL     1       2.502   7.937  16.883  0.00  0.00    +0.000 HD
ENDROOT
BRANCH   1   9
ATOM      9  C   UNL     1       2.701   5.700  18.376  0.00  0.00    +0.000 C 
BRANCH   9  10
ATOM     10  N   UNL     1       3.677   4.985  19.210  0.00  0.00    +0.000 N 
ATOM     11  C   UNL     1       5.046   4.883  19.020  0.00  0.00    +0.000 C 
ATOM     12  O   UNL     1       5.698   4.045  19.647  0.00  0.00    +0.000 OA
ATOM     13  N   UNL     1       5.661   5.772  18.193  0.00  0.00    +0.000 N 
ATOM     14  H   UNL     1       5.109   6.294  17.519  0.00  0.00    +0.000 HD
BRANCH  13  15
ATOM     15  C   UNL     1       7.134   5.830  18.064  0.00  0.00    +0.000 C 
ATOM     16  C   UNL     1       7.837   5.770  19.435  0.00  0.00    +0.000 C 
ATOM     17  C   UNL     1       7.628   4.632  17.233  0.00  0.00    +0.000 C 
ATOM     18  C   UNL     1       7.545   7.114  17.314  0.00  0.00    +0.000 C 
ENDBRANCH  13  15
BRANCH  10  19
ATOM     19  C   UNL     1       3.128   3.845  19.968  0.00  0.00    +0.000 C 
BRANCH  19  21
ATOM     20  C   UNL     1       2.840   1.983  18.285  0.00  0.00    +0.000 C 
ATOM     21  C   UNL     1       2.140   3.014  19.152  0.00  0.00    +0.000 C 
ENDBRANCH  19  21
ENDBRANCH  10  19
ENDBRANCH   9  10
ENDBRANCH   1   9
BRANCH   3  22
ATOM     22  C   UNL     1       1.126   8.657  21.860  0.00  0.00    +0.000 C 
BRANCH  22  23
ATOM     23  O   UNL     1      -0.273   8.767  22.161  0.00  0.00    +0.000 OA
ATOM     24  C   UNL     1      -0.556   9.704  23.194  0.00  0.00    +0.000 C 
ENDBRANCH  22  23
ENDBRANCH   3  22
BRANCH   4  25
ATOM     25  C   UNL     1       1.073  11.033  19.953  0.00  0.00    +0.000 C 
BRANCH  25  26
ATOM     26  C   UNL     1      -0.406  11.358  19.877  0.00  0.00    +0.000 A 
ATOM     27  C   UNL     1      -0.987  12.286  20.754  0.00  0.00    +0.000 A 
ATOM     28  C   UNL     1      -2.323  12.667  20.607  0.00  0.00    +0.000 A 
ATOM     29  C   UNL     1      -3.108  12.144  19.575  0.00  0.00    +0.000 A 
ATOM     30  C   UNL     1      -4.513  12.622  19.354  0.00  0.00    +0.000 C 
ATOM     31  C   UNL     1      -2.547  11.193  18.718  0.00  0.00    +0.000 A 
ATOM     32  C   UNL     1      -1.208  10.809  18.863  0.00  0.00    +0.000 A 
ENDBRANCH  25  26
ENDBRANCH   4  25
TORSDOF 9
ENDMDL
MODEL 8
REMARK VINA RESULT:      -7.3      0.907      1.181
REMARK  Name = 
REMARK  15 active torsions:
REMARK  status: ('A' for Active; 'I' for Inactive)
REMARK    1  A    between atoms: C_1  and  C_2
REMARK    2  A    between atoms: C_2  and  C_3
REMARK    3  A    between atoms: C_3  and  N_4
REMARK    4  A    between atoms: N_4  and  C_5
REMARK    5  A    between atoms: C_5  and  C_6
REMARK    6  A    between atoms: C_8  and  C_9
REMARK    7  A    between atoms: C_9  and  O_10
REMARK    8  A    between atoms: O_10  and  C_11
REMARK    9  A    between atoms: C_12  and  C_13
REMARK   10  A    between atoms: C_13  and  C_14
REMARK   11  A    between atoms: C_17  and  C_18
REMARK   12  A    between atoms: N_26  and  C_27
REMARK   13  A    between atoms: C_27  and  C_28
REMARK   14  A    between atoms: C_27  and  C_29
REMARK   15  A    between atoms: C_27  and  C_30
REMARK                            x       y       z     vdW  Elec       q    Type
REMARK                         _______ _______ _______ _____ _____    ______ ____
ROOT
ATOM      1  C   UNL     1       2.116   7.206  19.625  0.00  0.00    +0.000 A 
ATOM      2  N   UNL     1       1.263   7.503  20.550  0.00  0.00    +0.000 NA
ATOM      3  C   UNL     1       0.679   8.755  20.550  0.00  0.00    +0.000 A 
ATOM      4  C   UNL     1       0.882   9.674  19.587  0.00  0.00    +0.000 A 
ATOM      5  C   UNL     1       1.777   9.271  18.472  0.00  0.00    +0.000 A 
ATOM      6  O   UNL     1       1.998  10.001  17.508  0.00  0.00    +0.000 OA
ATOM      7  N   UNL     1       2.377   8.048  18.589  0.00  0.00    +0.000 N 
ATOM      8  H   UNL     1       3.018   7.797  17.849  0.00  0.00    +0.000 HD
ENDROOT
BRANCH   1   9
ATOM      9  C   UNL     1       2.933   5.917  19.780  0.00  0.00    +0.000 C 
BRANCH   9  10
ATOM     10  N   UNL     1       3.172   4.981  18.674  0.00  0.00    +0.000 N 
ATOM     11  C   UNL     1       4.202   5.006  17.746  0.00  0.00    +0.000 C 
ATOM     12  O   UNL     1       4.134   4.317  16.726  0.00  0.00    +0.000 OA
ATOM     13  N   UNL     1       5.314   5.742  18.020  0.00  0.00    +0.000 N 
ATOM     14  H   UNL     1       5.271   6.471  18.726  0.00  0.00    +0.000 HD
BRANCH  13  15
ATOM     15  C   UNL     1       6.516   5.692  17.159  0.00  0.00    +0.000 C 
ATOM     16  C   UNL     1       6.153   5.645  15.662  0.00  0.00    +0.000 C 
ATOM     17  C   UNL     1       7.372   6.952  17.392  0.00  0.00    +0.000 C 
ATOM     18  C   UNL     1       7.380   4.471  17.534  0.00  0.00    +0.000 C 
ENDBRANCH  13  15
BRANCH  10  19
ATOM     19  C   UNL     1       1.966   4.309  18.156  0.00  0.00    +0.000 C 
BRANCH  19  21
ATOM     20  C   UNL     1       2.136   1.996  19.160  0.00  0.00    +0.000 C 
ATOM     21  C   UNL     1       1.375   3.310  19.149  0.00  0.00    +0.000 C 
ENDBRANCH  19  21
ENDBRANCH  10  19
ENDBRANCH   9  10
ENDBRANCH   1   9
BRANCH   3  22
ATOM     22  C   UNL     1      -0.139   9.054  21.803  0.00  0.00    +0.000 C 
BRANCH  22  23
ATOM     23  O   UNL     1       0.595   9.786  22.796  0.00  0.00    +0.000 OA
ATOM     24  C   UNL     1       1.950   9.370  22.918  0.00  0.00    +0.000 C 
ENDBRANCH  22  23
ENDBRANCH   3  22
BRANCH   4  25
ATOM     25  C   UNL     1       0.215  11.028  19.509  0.00  0.00    +0.000 C 
BRANCH  25  26
ATOM     26  C   UNL     1      -1.197  11.036  18.958  0.00  0.00    +0.000 A 
ATOM     27  C   UNL     1      -2.173  11.895  19.486  0.00  0.00    +0.000 A 
ATOM     28  C   UNL     1      -3.439  11.980  18.902  0.00  0.00    +0.000 A 
ATOM     29  C   UNL     1      -3.760  11.224  17.771  0.00  0.00    +0.000 A 
ATOM     30  C   UNL     1      -5.084  11.385  17.083  0.00  0.00    +0.000 C 
ATOM     31  C   UNL     1      -2.805  10.340  17.259  0.00  0.00    +0.000 A 
ATOM     32  C   UNL     1      -1.536  10.252  17.842  0.00  0.00    +0.000 A 
ENDBRANCH  25  26
ENDBRANCH   4  25
TORSDOF 9
ENDMDL
MODEL 9
REMARK VINA RESULT:      -7.3      2.976      8.527
REMARK  Name = 
REMARK  15 active torsions:
REMARK  status: ('A' for Active; 'I' for Inactive)
REMARK    1  A    between atoms: C_1  and  C_2
REMARK    2  A    between atoms: C_2  and  C_3
REMARK    3  A    between atoms: C_3  and  N_4
REMARK    4  A    between atoms: N_4  and  C_5
REMARK    5  A    between atoms: C_5  and  C_6
REMARK    6  A    between atoms: C_8  and  C_9
REMARK    7  A    between atoms: C_9  and  O_10
REMARK    8  A    between atoms: O_10  and  C_11
REMARK    9  A    between atoms: C_12  and  C_13
REMARK   10  A    between atoms: C_13  and  C_14
REMARK   11  A    between atoms: C_17  and  C_18
REMARK   12  A    between atoms: N_26  and  C_27
REMARK   13  A    between atoms: C_27  and  C_28
REMARK   14  A    between atoms: C_27  and  C_29
REMARK   15  A    between atoms: C_27  and  C_30
REMARK                            x       y       z     vdW  Elec       q    Type
REMARK                         _______ _______ _______ _____ _____    ______ ____
ROOT
ATOM      1  C   UNL     1      -0.470  10.911  18.641  0.00  0.00    +0.000 A 
ATOM      2  N   UNL     1      -0.716  10.348  19.779  0.00  0.00    +0.000 NA
ATOM      3  C   UNL     1       0.097   9.318  20.210  0.00  0.00    +0.000 A 
ATOM      4  C   UNL     1       1.197   8.908  19.551  0.00  0.00    +0.000 A 
ATOM      5  C   UNL     1       1.528   9.644  18.303  0.00  0.00    +0.000 A 
ATOM      6  O   UNL     1       2.534   9.399  17.641  0.00  0.00    +0.000 OA
ATOM      7  N   UNL     1       0.629  10.594  17.904  0.00  0.00    +0.000 N 
ATOM      8  H   UNL     1       0.837  11.061  17.033  0.00  0.00    +0.000 HD
ENDROOT
BRANCH   1   9
ATOM      9  C   UNL     1      -1.517  11.872  18.068  0.00  0.00    +0.000 C 
BRANCH   9  10
ATOM     10  N   UNL     1      -2.827  11.428  17.571  0.00  0.00    +0.000 N 
ATOM     11  C   UNL     1      -4.052  11.503  18.217  0.00  0.00    +0.000 C 
ATOM     12  O   UNL     1      -5.016  10.863  17.792  0.00  0.00    +0.000 OA
ATOM     13  N   UNL     1      -4.186  12.351  19.273  0.00  0.00    +0.000 N 
ATOM     14  H   UNL     1      -3.356  12.690  19.751  0.00  0.00    +0.000 HD
BRANCH  13  15
ATOM     15  C   UNL     1      -5.496  12.606  19.910  0.00  0.00    +0.000 C 
ATOM     16  C   UNL     1      -6.379  13.544  19.061  0.00  0.00    +0.000 C 
ATOM     17  C   UNL     1      -6.256  11.278  20.080  0.00  0.00    +0.000 C 
ATOM     18  C   UNL     1      -5.289  13.205  21.316  0.00  0.00    +0.000 C 
ENDBRANCH  13  15
BRANCH  10  19
ATOM     19  C   UNL     1      -2.778  10.334  16.584  0.00  0.00    +0.000 C 
BRANCH  19  21
ATOM     20  C   UNL     1      -2.920   9.693  14.143  0.00  0.00    +0.000 C 
ATOM     21  C   UNL     1      -3.069  10.810  15.161  0.00  0.00    +0.000 C 
ENDBRANCH  19  21
ENDBRANCH  10  19
ENDBRANCH   9  10
ENDBRANCH   1   9
BRANCH   3  22
ATOM     22  C   UNL     1      -0.422   8.603  21.454  0.00  0.00    +0.000 C 
BRANCH  22  23
ATOM     23  O   UNL     1      -0.730   9.497  22.534  0.00  0.00    +0.000 OA
ATOM     24  C   UNL     1       0.288   9.556  23.526  0.00  0.00    +0.000 C 
ENDBRANCH  22  23
ENDBRANCH   3  22
BRANCH   4  25
ATOM     25  C   UNL     1       2.153   7.834  20.017  0.00  0.00    +0.000 C 
BRANCH  25  26
ATOM     26  C   UNL     1       1.806   6.418  19.600  0.00  0.00    +0.000 A 
ATOM     27  C   UNL     1       2.034   5.976  18.288  0.00  0.00    +0.000 A 
ATOM     28  C   UNL     1       1.819   4.641  17.938  0.00  0.00    +0.000 A 
ATOM     29  C   UNL     1       1.386   3.712  18.888  0.00  0.00    +0.000 A 
ATOM     30  C   UNL     1       1.247   2.258  18.540  0.00  0.00    +0.000 C 
ATOM     31  C   UNL     1       1.123   4.151  20.188  0.00  0.00    +0.000 A 
ATOM     32  C   UNL     1       1.337   5.488  20.542  0.00  0.00    +0.000 A 
ENDBRANCH  25  26
ENDBRANCH   4  25
TORSDOF 9
ENDMDL
