MODEL 1
REMARK VINA RESULT:      -8.5      0.000      0.000
REMARK  Name = 
REMARK  7 active torsions:
REMARK  status: ('A' for Active; 'I' for Inactive)
REMARK    1  A    between atoms: C_1  and  C_2
REMARK    2  A    between atoms: C_7  and  C_8
REMARK    3  A    between atoms: C_8  and  N_9
REMARK    4  A    between atoms: C_12  and  C_13
REMARK    5  A    between atoms: C_13  and  N_14
REMARK    6  A    between atoms: N_14  and  C_15
REMARK    7  A    between atoms: C_22  and  C_23
REMARK                            x       y       z     vdW  Elec       q    Type
REMARK                         _______ _______ _______ _____ _____    ______ ____
ROOT
ATOM      1  N   UNL     1       4.793   2.999  17.209  0.00  0.00    +0.000 N 
ATOM      2  H   UNL     1       4.349   3.262  16.332  0.00  0.00    +0.000 HD
ENDROOT
BRANCH   1   3
ATOM      3  C   UNL     1       5.581   4.026  17.725  0.00  0.00    +0.000 A 
ATOM      4  N   UNL     1       5.586   4.249  19.073  0.00  0.00    +0.000 NA
ATOM      5  C   UNL     1       6.326   5.242  19.579  0.00  0.00    +0.000 A 
ATOM      6  N   UNL     1       7.157   6.070  18.934  0.00  0.00    +0.000 NA
ATOM      7  C   UNL     1       7.143   5.823  17.623  0.00  0.00    +0.000 A 
ATOM      8  O   UNL     1       7.906   6.519  16.740  0.00  0.00    +0.000 OA
ATOM      9  N   UNL     1       7.647   6.086  15.462  0.00  0.00    +0.000 NA
ATOM     10  C   UNL     1       6.723   5.115  15.567  0.00  0.00    +0.000 A 
ATOM     11  C   UNL     1       6.384   4.888  16.943  0.00  0.00    +0.000 A 
BRANCH  10  12
ATOM     12  C   UNL     1       6.195   4.490  14.368  0.00  0.00    +0.000 A 
ATOM     13  C   UNL     1       7.034   4.124  13.311  0.00  0.00    +0.000 A 
ATOM     14  C   UNL     1       6.535   3.457  12.193  0.00  0.00    +0.000 A 
ATOM     15  C   UNL     1       5.170   3.228  12.084  0.00  0.00    +0.000 A 
ATOM     16 CL   UNL     1       4.548   2.486  10.665  0.00  0.00    +0.000 Cl
ATOM     17  C   UNL     1       4.305   3.618  13.105  0.00  0.00    +0.000 A 
ATOM     18  C   UNL     1       4.817   4.236  14.249  0.00  0.00    +0.000 A 
ENDBRANCH  10  12
ENDBRANCH   1   3
BRANCH   1  19
ATOM     19  C   UNL     1       3.977   2.171  18.116  0.00  0.00    +0.000 C 
BRANCH  19  23
ATOM     20  N   UNL     1       2.149   5.431  19.279  0.00  0.00    +0.000 NA
ATOM     21  C   UNL     1       2.343   5.242  17.852  0.00  0.00    +0.000 C 
ATOM     22  C   UNL     1       2.104   3.842  17.275  0.00  0.00    +0.000 C 
ATOM     23  C   UNL     1       2.494   2.650  18.157  0.00  0.00    +0.000 C 
ATOM     24  C   UNL     1       1.957   2.900  19.575  0.00  0.00    +0.000 C 
ATOM     25  C   UNL     1       2.185   4.294  20.167  0.00  0.00    +0.000 C 
BRANCH  20  26
ATOM     26  C   UNL     1       2.677   6.689  19.853  0.00  0.00    +0.000 C 
BRANCH  26  33
ATOM     27  C   UNL     1       2.099   8.990  17.756  0.00  0.00    +0.000 C 
ATOM     28  C   UNL     1       1.445   8.881  19.105  0.00  0.00    +0.000 A 
ATOM     29  C   UNL     1       0.546   9.919  19.441  0.00  0.00    +0.000 A 
ATOM     30  C   UNL     1      -0.080   9.972  20.683  0.00  0.00    +0.000 A 
ATOM     31  C   UNL     1       0.185   8.987  21.620  0.00  0.00    +0.000 A 
ATOM     32  C   UNL     1       1.068   7.951  21.308  0.00  0.00    +0.000 A 
ATOM     33  C   UNL     1       1.706   7.858  20.048  0.00  0.00    +0.000 A 
ENDBRANCH  26  33
ENDBRANCH  20  26
ENDBRANCH  19  23
ENDBRANCH   1  19
TORSDOF 6
ENDMDL
MODEL 2
REMARK VINA RESULT:      -8.3      3.470      5.744
REMARK  Name = 
REMARK  7 active torsions:
REMARK  status: ('A' for Active; 'I' for Inactive)
REMARK    1  A    between atoms: C_1  and  C_2
REMARK    2  A    between atoms: C_7  and  C_8
REMARK    3  A    between atoms: C_8  and  N_9
REMARK    4  A    between atoms: C_12  and  C_13
REMARK    5  A    between atoms: C_13  and  N_14
REMARK    6  A    between atoms: N_14  and  C_15
REMARK    7  A    between atoms: C_22  and  C_23
REMARK                            x       y       z     vdW  Elec       q    Type
REMARK                         _______ _______ _______ _____ _____    ______ ____
ROOT
ATOM      1  N   UNL     1       2.609   6.228  20.430  0.00  0.00    +0.000 N 
ATOM      2  H   UNL     1       3.036   6.189  21.352  0.00  0.00    +0.000 HD
ENDROOT
BRANCH   1   3
ATOM      3  C   UNL     1       2.153   4.979  20.012  0.00  0.00    +0.000 A 
ATOM      4  N   UNL     1       1.056   4.433  20.618  0.00  0.00    +0.000 NA
ATOM      5  C   UNL     1       0.618   3.228  20.238  0.00  0.00    +0.000 A 
ATOM      6  N   UNL     1       1.085   2.447  19.255  0.00  0.00    +0.000 NA
ATOM      7  C   UNL     1       2.145   3.008  18.673  0.00  0.00    +0.000 A 
ATOM      8  O   UNL     1       2.805   2.424  17.639  0.00  0.00    +0.000 OA
ATOM      9  N   UNL     1       3.882   3.198  17.279  0.00  0.00    +0.000 NA
ATOM     10  C   UNL     1       3.875   4.266  18.096  0.00  0.00    +0.000 A 
ATOM     11  C   UNL     1       2.759   4.205  18.996  0.00  0.00    +0.000 A 
BRANCH  10  12
ATOM     12  C   UNL     1       4.936   5.253  18.001  0.00  0.00    +0.000 A 
ATOM     13  C   UNL     1       6.112   5.129  18.747  0.00  0.00    +0.000 A 
ATOM     14  C   UNL     1       7.158   6.037  18.599  0.00  0.00    +0.000 A 
ATOM     15  C   UNL     1       7.000   7.133  17.761  0.00  0.00    +0.000 A 
ATOM     16 CL   UNL     1       8.258   8.298  17.648  0.00  0.00    +0.000 Cl
ATOM     17  C   UNL     1       5.823   7.304  17.035  0.00  0.00    +0.000 A 
ATOM     18  C   UNL     1       4.799   6.360  17.145  0.00  0.00    +0.000 A 
ENDBRANCH  10  12
ENDBRANCH   1   3
BRANCH   1  19
ATOM     19  C   UNL     1       1.814   7.436  20.141  0.00  0.00    +0.000 C 
BRANCH  19  23
ATOM     20  N   UNL     1      -0.356  10.588  20.961  0.00  0.00    +0.000 NA
ATOM     21  C   UNL     1      -1.014   9.294  20.987  0.00  0.00    +0.000 C 
ATOM     22  C   UNL     1      -0.265   8.121  21.629  0.00  0.00    +0.000 C 
ATOM     23  C   UNL     1       1.256   8.083  21.445  0.00  0.00    +0.000 C 
ATOM     24  C   UNL     1       1.815   9.485  21.736  0.00  0.00    +0.000 C 
ATOM     25  C   UNL     1       1.078  10.668  21.103  0.00  0.00    +0.000 C 
BRANCH  20  26
ATOM     26  C   UNL     1      -0.954  11.612  20.076  0.00  0.00    +0.000 C 
BRANCH  26  33
ATOM     27  C   UNL     1       0.133   9.770  17.742  0.00  0.00    +0.000 C 
ATOM     28  C   UNL     1      -1.268  10.308  17.821  0.00  0.00    +0.000 A 
ATOM     29  C   UNL     1      -2.118   9.981  16.741  0.00  0.00    +0.000 A 
ATOM     30  C   UNL     1      -3.420  10.465  16.660  0.00  0.00    +0.000 A 
ATOM     31  C   UNL     1      -3.899  11.295  17.660  0.00  0.00    +0.000 A 
ATOM     32  C   UNL     1      -3.077  11.629  18.738  0.00  0.00    +0.000 A 
ATOM     33  C   UNL     1      -1.756  11.138  18.860  0.00  0.00    +0.000 A 
ENDBRANCH  26  33
ENDBRANCH  20  26
ENDBRANCH  19  23
ENDBRANCH   1  19
TORSDOF 6
ENDMDL
MODEL 3
REMARK VINA RESULT:      -8.3      3.474      5.875
REMARK  Name = 
REMARK  7 active torsions:
REMARK  status: ('A' for Active; 'I' for Inactive)
REMARK    1  A    between atoms: C_1  and  C_2
REMARK    2  A    between atoms: C_7  and  C_8
REMARK    3  A    between atoms: C_8  and  N_9
REMARK    4  A    between atoms: C_12  and  C_13
REMARK    5  A    between atoms: C_13  and  N_14
REMARK    6  A    between atoms: N_14  and  C_15
REMARK    7  A    between atoms: C_22  and  C_23
REMARK                            x       y       z     vdW  Elec       q    Type
REMARK                         _______ _______ _______ _____ _____    ______ ____
ROOT
ATOM      1  N   UNL     1       2.660   6.276  20.387  0.00  0.00    +0.000 N 
ATOM      2  H   UNL     1       3.097   6.298  21.305  0.00  0.00    +0.000 HD
ENDROOT
BRANCH   1   3
ATOM      3  C   UNL     1       2.254   4.990  20.032  0.00  0.00    +0.000 A 
ATOM      4  N   UNL     1       1.160   4.444  20.642  0.00  0.00    +0.000 NA
ATOM      5  C   UNL     1       0.770   3.205  20.323  0.00  0.00    +0.000 A 
ATOM      6  N   UNL     1       1.287   2.385  19.399  0.00  0.00    +0.000 NA
ATOM      7  C   UNL     1       2.343   2.946  18.810  0.00  0.00    +0.000 A 
ATOM      8  O   UNL     1       3.048   2.325  17.828  0.00  0.00    +0.000 OA
ATOM      9  N   UNL     1       4.109   3.113  17.449  0.00  0.00    +0.000 NA
ATOM     10  C   UNL     1       4.047   4.226  18.203  0.00  0.00    +0.000 A 
ATOM     11  C   UNL     1       2.911   4.179  19.078  0.00  0.00    +0.000 A 
BRANCH  10  12
ATOM     12  C   UNL     1       5.077   5.240  18.075  0.00  0.00    +0.000 A 
ATOM     13  C   UNL     1       6.276   5.151  18.790  0.00  0.00    +0.000 A 
ATOM     14  C   UNL     1       7.293   6.087  18.610  0.00  0.00    +0.000 A 
ATOM     15  C   UNL     1       7.083   7.174  17.772  0.00  0.00    +0.000 A 
ATOM     16 CL   UNL     1       8.306   8.371  17.621  0.00  0.00    +0.000 Cl
ATOM     17  C   UNL     1       5.884   7.309  17.077  0.00  0.00    +0.000 A 
ATOM     18  C   UNL     1       4.888   6.339  17.218  0.00  0.00    +0.000 A 
ENDBRANCH  10  12
ENDBRANCH   1   3
BRANCH   1  19
ATOM     19  C   UNL     1       1.810   7.433  20.053  0.00  0.00    +0.000 C 
BRANCH  19  23
ATOM     20  N   UNL     1      -0.265  10.671  20.782  0.00  0.00    +0.000 NA
ATOM     21  C   UNL     1      -0.978   9.405  20.766  0.00  0.00    +0.000 C 
ATOM     22  C   UNL     1      -0.313   8.199  21.438  0.00  0.00    +0.000 C 
ATOM     23  C   UNL     1       1.213   8.097  21.331  0.00  0.00    +0.000 C 
ATOM     24  C   UNL     1       1.815   9.473  21.659  0.00  0.00    +0.000 C 
ATOM     25  C   UNL     1       1.162  10.690  20.998  0.00  0.00    +0.000 C 
BRANCH  20  26
ATOM     26  C   UNL     1      -0.774  11.723  19.875  0.00  0.00    +0.000 C 
BRANCH  26  33
ATOM     27  C   UNL     1      -3.836  12.526  19.831  0.00  0.00    +0.000 C 
ATOM     28  C   UNL     1      -3.159  11.690  18.781  0.00  0.00    +0.000 A 
ATOM     29  C   UNL     1      -3.988  11.214  17.741  0.00  0.00    +0.000 A 
ATOM     30  C   UNL     1      -3.500  10.379  16.740  0.00  0.00    +0.000 A 
ATOM     31  C   UNL     1      -2.169   9.997  16.762  0.00  0.00    +0.000 A 
ATOM     32  C   UNL     1      -1.332  10.458  17.780  0.00  0.00    +0.000 A 
ATOM     33  C   UNL     1      -1.791  11.323  18.801  0.00  0.00    +0.000 A 
ENDBRANCH  26  33
ENDBRANCH  20  26
ENDBRANCH  19  23
ENDBRANCH   1  19
TORSDOF 6
ENDMDL
MODEL 4
REMARK VINA RESULT:      -8.2      2.678      4.811
REMARK  Name = 
REMARK  7 active torsions:
REMARK  status: ('A' for Active; 'I' for Inactive)
REMARK    1  A    between atoms: C_1  and  C_2
REMARK    2  A    between atoms: C_7  and  C_8
REMARK    3  A    between atoms: C_8  and  N_9
REMARK    4  A    between atoms: C_12  and  C_13
REMARK    5  A    between atoms: C_13  and  N_14
REMARK    6  A    between atoms: N_14  and  C_15
REMARK    7  A    between atoms: C_22  and  C_23
REMARK                            x       y       z     vdW  Elec       q    Type
REMARK                         _______ _______ _______ _____ _____    ______ ____
ROOT
ATOM      1  N   UNL     1       1.762   4.401  17.887  0.00  0.00    +0.000 N 
ATOM      2  H   UNL     1       2.477   4.107  17.228  0.00  0.00    +0.000 HD
ENDROOT
BRANCH   1   3
ATOM      3  C   UNL     1       1.911   3.787  19.129  0.00  0.00    +0.000 A 
ATOM      4  N   UNL     1       0.820   3.656  19.943  0.00  0.00    +0.000 NA
ATOM      5  C   UNL     1       0.953   3.083  21.144  0.00  0.00    +0.000 A 
ATOM      6  N   UNL     1       2.048   2.534  21.686  0.00  0.00    +0.000 NA
ATOM      7  C   UNL     1       3.093   2.664  20.867  0.00  0.00    +0.000 A 
ATOM      8  O   UNL     1       4.326   2.184  21.175  0.00  0.00    +0.000 OA
ATOM      9  N   UNL     1       5.212   2.508  20.176  0.00  0.00    +0.000 NA
ATOM     10  C   UNL     1       4.512   3.186  19.249  0.00  0.00    +0.000 A 
ATOM     11  C   UNL     1       3.134   3.290  19.634  0.00  0.00    +0.000 A 
BRANCH  10  12
ATOM     12  C   UNL     1       5.191   3.720  18.082  0.00  0.00    +0.000 A 
ATOM     13  C   UNL     1       6.337   4.511  18.208  0.00  0.00    +0.000 A 
ATOM     14  C   UNL     1       7.029   4.961  17.084  0.00  0.00    +0.000 A 
ATOM     15  C   UNL     1       6.526   4.693  15.818  0.00  0.00    +0.000 A 
ATOM     16 CL   UNL     1       7.333   5.324  14.438  0.00  0.00    +0.000 Cl
ATOM     17  C   UNL     1       5.364   3.940  15.664  0.00  0.00    +0.000 A 
ATOM     18  C   UNL     1       4.705   3.444  16.791  0.00  0.00    +0.000 A 
ENDBRANCH  10  12
ENDBRANCH   1   3
BRANCH   1  19
ATOM     19  C   UNL     1       1.365   5.819  17.811  0.00  0.00    +0.000 C 
BRANCH  19  23
ATOM     20  N   UNL     1       1.309   9.287  19.625  0.00  0.00    +0.000 NA
ATOM     21  C   UNL     1       1.451   8.100  20.450  0.00  0.00    +0.000 C 
ATOM     22  C   UNL     1       2.386   6.992  19.954  0.00  0.00    +0.000 C 
ATOM     23  C   UNL     1       2.443   6.754  18.441  0.00  0.00    +0.000 C 
ATOM     24  C   UNL     1       2.576   8.115  17.741  0.00  0.00    +0.000 C 
ATOM     25  C   UNL     1       1.651   9.235  18.224  0.00  0.00    +0.000 C 
BRANCH  20  26
ATOM     26  C   UNL     1       0.185  10.190  19.961  0.00  0.00    +0.000 C 
BRANCH  26  33
ATOM     27  C   UNL     1      -1.667  11.810  17.968  0.00  0.00    +0.000 C 
ATOM     28  C   UNL     1      -0.512  12.399  18.729  0.00  0.00    +0.000 A 
ATOM     29  C   UNL     1      -0.240  13.763  18.480  0.00  0.00    +0.000 A 
ATOM     30  C   UNL     1       0.839  14.414  19.071  0.00  0.00    +0.000 A 
ATOM     31  C   UNL     1       1.674  13.711  19.923  0.00  0.00    +0.000 A 
ATOM     32  C   UNL     1       1.421  12.362  20.185  0.00  0.00    +0.000 A 
ATOM     33  C   UNL     1       0.323  11.676  19.615  0.00  0.00    +0.000 A 
ENDBRANCH  26  33
ENDBRANCH  20  26
ENDBRANCH  19  23
ENDBRANCH   1  19
TORSDOF 6
ENDMDL
MODEL 5
REMARK VINA RESULT:      -8.2      0.409      1.566
REMARK  Name = 
REMARK  7 active torsions:
REMARK  status: ('A' for Active; 'I' for Inactive)
REMARK    1  A    between atoms: C_1  and  C_2
REMARK    2  A    between atoms: C_7  and  C_8
REMARK    3  A    between atoms: C_8  and  N_9
REMARK    4  A    between atoms: C_12  and  C_13
REMARK    5  A    between atoms: C_13  and  N_14
REMARK    6  A    between atoms: N_14  and  C_15
REMARK    7  A    between atoms: C_22  and  C_23
REMARK                            x       y       z     vdW  Elec       q    Type
REMARK                         _______ _______ _______ _____ _____    ______ ____
ROOT
ATOM      1  N   UNL     1       4.807   2.975  17.209  0.00  0.00    +0.000 N 
ATOM      2  H   UNL     1       4.407   3.197  16.302  0.00  0.00    +0.000 HD
ENDROOT
BRANCH   1   3
ATOM      3  C   UNL     1       5.593   4.015  17.704  0.00  0.00    +0.000 A 
ATOM      4  N   UNL     1       5.600   4.263  19.048  0.00  0.00    +0.000 NA
ATOM      5  C   UNL     1       6.336   5.269  19.534  0.00  0.00    +0.000 A 
ATOM      6  N   UNL     1       7.162   6.088  18.871  0.00  0.00    +0.000 NA
ATOM      7  C   UNL     1       7.146   5.817  17.565  0.00  0.00    +0.000 A 
ATOM      8  O   UNL     1       7.903   6.499  16.667  0.00  0.00    +0.000 OA
ATOM      9  N   UNL     1       7.643   6.042  15.398  0.00  0.00    +0.000 NA
ATOM     10  C   UNL     1       6.724   5.068  15.523  0.00  0.00    +0.000 A 
ATOM     11  C   UNL     1       6.390   4.865  16.904  0.00  0.00    +0.000 A 
BRANCH  10  12
ATOM     12  C   UNL     1       6.195   4.419  14.337  0.00  0.00    +0.000 A 
ATOM     13  C   UNL     1       4.830   4.146  14.206  0.00  0.00    +0.000 A 
ATOM     14  C   UNL     1       4.316   3.590  13.036  0.00  0.00    +0.000 A 
ATOM     15  C   UNL     1       5.182   3.220  12.015  0.00  0.00    +0.000 A 
ATOM     16 CL   UNL     1       4.553   2.455  10.611  0.00  0.00    +0.000 Cl
ATOM     17  C   UNL     1       6.551   3.444  12.135  0.00  0.00    +0.000 A 
ATOM     18  C   UNL     1       7.056   4.053  13.286  0.00  0.00    +0.000 A 
ENDBRANCH  10  12
ENDBRANCH   1   3
BRANCH   1  19
ATOM     19  C   UNL     1       3.938   2.211  18.123  0.00  0.00    +0.000 C 
BRANCH  19  23
ATOM     20  N   UNL     1       1.948   5.336  19.385  0.00  0.00    +0.000 NA
ATOM     21  C   UNL     1       2.310   5.293  17.979  0.00  0.00    +0.000 C 
ATOM     22  C   UNL     1       2.157   3.959  17.240  0.00  0.00    +0.000 C 
ATOM     23  C   UNL     1       2.455   2.684  18.037  0.00  0.00    +0.000 C 
ATOM     24  C   UNL     1       1.752   2.788  19.399  0.00  0.00    +0.000 C 
ATOM     25  C   UNL     1       1.893   4.115  20.151  0.00  0.00    +0.000 C 
BRANCH  20  26
ATOM     26  C   UNL     1       2.390   6.529  20.141  0.00  0.00    +0.000 C 
BRANCH  26  33
ATOM     27  C   UNL     1       0.639   8.530  21.859  0.00  0.00    +0.000 C 
ATOM     28  C   UNL     1       1.111   8.798  20.457  0.00  0.00    +0.000 A 
ATOM     29  C   UNL     1       0.690  10.020  19.886  0.00  0.00    +0.000 A 
ATOM     30  C   UNL     1       1.005  10.362  18.575  0.00  0.00    +0.000 A 
ATOM     31  C   UNL     1       1.746   9.484  17.802  0.00  0.00    +0.000 A 
ATOM     32  C   UNL     1       2.175   8.272  18.348  0.00  0.00    +0.000 A 
ATOM     33  C   UNL     1       1.888   7.903  19.683  0.00  0.00    +0.000 A 
ENDBRANCH  26  33
ENDBRANCH  20  26
ENDBRANCH  19  23
ENDBRANCH   1  19
TORSDOF 6
ENDMDL
MODEL 6
REMARK VINA RESULT:      -8.2      5.431     10.224
REMARK  Name = 
REMARK  7 active torsions:
REMARK  status: ('A' for Active; 'I' for Inactive)
REMARK    1  A    between atoms: C_1  and  C_2
REMARK    2  A    between atoms: C_7  and  C_8
REMARK    3  A    between atoms: C_8  and  N_9
REMARK    4  A    between atoms: C_12  and  C_13
REMARK    5  A    between atoms: C_13  and  N_14
REMARK    6  A    between atoms: N_14  and  C_15
REMARK    7  A    between atoms: C_22  and  C_23
REMARK                            x       y       z     vdW  Elec       q    Type
REMARK                         _______ _______ _______ _____ _____    ______ ____
ROOT
ATOM      1  N   UNL     1      -1.494  10.911  17.513  0.00  0.00    +0.000 N 
ATOM      2  H   UNL     1      -1.478  11.087  16.512  0.00  0.00    +0.000 HD
ENDROOT
BRANCH   1   3
ATOM      3  C   UNL     1      -2.730  11.219  18.078  0.00  0.00    +0.000 A 
ATOM      4  N   UNL     1      -3.857  10.628  17.581  0.00  0.00    +0.000 NA
ATOM      5  C   UNL     1      -5.051  10.928  18.103  0.00  0.00    +0.000 A 
ATOM      6  N   UNL     1      -5.325  11.729  19.141  0.00  0.00    +0.000 NA
ATOM      7  C   UNL     1      -4.208  12.283  19.615  0.00  0.00    +0.000 A 
ATOM      8  O   UNL     1      -4.207  13.133  20.675  0.00  0.00    +0.000 OA
ATOM      9  N   UNL     1      -2.930  13.586  20.904  0.00  0.00    +0.000 NA
ATOM     10  C   UNL     1      -2.145  13.003  19.981  0.00  0.00    +0.000 A 
ATOM     11  C   UNL     1      -2.917  12.132  19.142  0.00  0.00    +0.000 A 
BRANCH  10  12
ATOM     12  C   UNL     1      -0.732  13.330  19.926  0.00  0.00    +0.000 A 
ATOM     13  C   UNL     1       0.093  13.175  21.045  0.00  0.00    +0.000 A 
ATOM     14  C   UNL     1       1.463  13.419  20.969  0.00  0.00    +0.000 A 
ATOM     15  C   UNL     1       2.007  13.906  19.789  0.00  0.00    +0.000 A 
ATOM     16 CL   UNL     1       3.681  14.289  19.726  0.00  0.00    +0.000 Cl
ATOM     17  C   UNL     1       1.202  14.108  18.670  0.00  0.00    +0.000 A 
ATOM     18  C   UNL     1      -0.161  13.809  18.734  0.00  0.00    +0.000 A 
ENDBRANCH  10  12
ENDBRANCH   1   3
BRANCH   1  19
ATOM     19  C   UNL     1      -0.756   9.717  17.965  0.00  0.00    +0.000 C 
BRANCH  19  23
ATOM     20  N   UNL     1       2.201   7.716  19.568  0.00  0.00    +0.000 NA
ATOM     21  C   UNL     1       2.346   8.137  18.186  0.00  0.00    +0.000 C 
ATOM     22  C   UNL     1       1.881   9.549  17.814  0.00  0.00    +0.000 C 
ATOM     23  C   UNL     1       0.644  10.089  18.541  0.00  0.00    +0.000 C 
ATOM     24  C   UNL     1       0.799   9.799  20.042  0.00  0.00    +0.000 C 
ATOM     25  C   UNL     1       1.264   8.393  20.432  0.00  0.00    +0.000 C 
BRANCH  20  26
ATOM     26  C   UNL     1       2.363   6.269  19.834  0.00  0.00    +0.000 C 
BRANCH  26  33
ATOM     27  C   UNL     1       1.419   4.234  17.601  0.00  0.00    +0.000 C 
ATOM     28  C   UNL     1       2.855   4.558  17.908  0.00  0.00    +0.000 A 
ATOM     29  C   UNL     1       3.822   3.855  17.154  0.00  0.00    +0.000 A 
ATOM     30  C   UNL     1       5.185   4.015  17.381  0.00  0.00    +0.000 A 
ATOM     31  C   UNL     1       5.612   4.881  18.374  0.00  0.00    +0.000 A 
ATOM     32  C   UNL     1       4.673   5.588  19.129  0.00  0.00    +0.000 A 
ATOM     33  C   UNL     1       3.281   5.462  18.910  0.00  0.00    +0.000 A 
ENDBRANCH  26  33
ENDBRANCH  20  26
ENDBRANCH  19  23
ENDBRANCH   1  19
TORSDOF 6
ENDMDL
MODEL 7
REMARK VINA RESULT:      -8.1      2.906      7.785
REMARK  Name = 
REMARK  7 active torsions:
REMARK  status: ('A' for Active; 'I' for Inactive)
REMARK    1  A    between atoms: C_1  and  C_2
REMARK    2  A    between atoms: C_7  and  C_8
REMARK    3  A    between atoms: C_8  and  N_9
REMARK    4  A    between atoms: C_12  and  C_13
REMARK    5  A    between atoms: C_13  and  N_14
REMARK    6  A    between atoms: N_14  and  C_15
REMARK    7  A    between atoms: C_22  and  C_23
REMARK                            x       y       z     vdW  Elec       q    Type
REMARK                         _______ _______ _______ _____ _____    ______ ____
ROOT
ATOM      1  N   UNL     1       5.276   5.384  19.104  0.00  0.00    +0.000 N 
ATOM      2  H   UNL     1       5.225   5.520  18.098  0.00  0.00    +0.000 HD
ENDROOT
BRANCH   1   3
ATOM      3  C   UNL     1       4.531   4.282  19.521  0.00  0.00    +0.000 A 
ATOM      4  N   UNL     1       5.138   3.060  19.605  0.00  0.00    +0.000 NA
ATOM      5  C   UNL     1       4.430   1.992  19.988  0.00  0.00    +0.000 A 
ATOM      6  N   UNL     1       3.150   1.941  20.378  0.00  0.00    +0.000 NA
ATOM      7  C   UNL     1       2.585   3.146  20.299  0.00  0.00    +0.000 A 
ATOM      8  O   UNL     1       1.291   3.372  20.646  0.00  0.00    +0.000 OA
ATOM      9  N   UNL     1       0.971   4.688  20.412  0.00  0.00    +0.000 NA
ATOM     10  C   UNL     1       2.080   5.271  19.924  0.00  0.00    +0.000 A 
ATOM     11  C   UNL     1       3.158   4.326  19.857  0.00  0.00    +0.000 A 
BRANCH  10  12
ATOM     12  C   UNL     1       2.043   6.664  19.520  0.00  0.00    +0.000 A 
ATOM     13  C   UNL     1       2.467   7.064  18.249  0.00  0.00    +0.000 A 
ATOM     14  C   UNL     1       2.362   8.391  17.838  0.00  0.00    +0.000 A 
ATOM     15  C   UNL     1       1.909   9.351  18.733  0.00  0.00    +0.000 A 
ATOM     16 CL   UNL     1       1.864  11.000  18.252  0.00  0.00    +0.000 Cl
ATOM     17  C   UNL     1       1.517   8.988  20.020  0.00  0.00    +0.000 A 
ATOM     18  C   UNL     1       1.572   7.647  20.409  0.00  0.00    +0.000 A 
ENDBRANCH  10  12
ENDBRANCH   1   3
BRANCH   1  19
ATOM     19  C   UNL     1       6.584   5.664  19.724  0.00  0.00    +0.000 C 
BRANCH  19  23
ATOM     20  N   UNL     1       6.717   5.567  15.814  0.00  0.00    +0.000 NA
ATOM     21  C   UNL     1       6.713   6.870  16.454  0.00  0.00    +0.000 C 
ATOM     22  C   UNL     1       7.578   7.058  17.705  0.00  0.00    +0.000 C 
ATOM     23  C   UNL     1       7.699   5.859  18.653  0.00  0.00    +0.000 C 
ATOM     24  C   UNL     1       7.985   4.604  17.813  0.00  0.00    +0.000 C 
ATOM     25  C   UNL     1       7.131   4.402  16.558  0.00  0.00    +0.000 C 
BRANCH  20  26
ATOM     26  C   UNL     1       5.656   5.323  14.812  0.00  0.00    +0.000 C 
BRANCH  26  33
ATOM     27  C   UNL     1       8.234   5.620  12.998  0.00  0.00    +0.000 C 
ATOM     28  C   UNL     1       7.156   4.594  12.786  0.00  0.00    +0.000 A 
ATOM     29  C   UNL     1       7.320   3.748  11.666  0.00  0.00    +0.000 A 
ATOM     30  C   UNL     1       6.364   2.796  11.321  0.00  0.00    +0.000 A 
ATOM     31  C   UNL     1       5.219   2.675  12.089  0.00  0.00    +0.000 A 
ATOM     32  C   UNL     1       5.038   3.499  13.202  0.00  0.00    +0.000 A 
ATOM     33  C   UNL     1       5.998   4.462  13.591  0.00  0.00    +0.000 A 
ENDBRANCH  26  33
ENDBRANCH  20  26
ENDBRANCH  19  23
ENDBRANCH   1  19
TORSDOF 6
ENDMDL
MODEL 8
REMARK VINA RESULT:      -8.1      2.719      4.893
REMARK  Name = 
REMARK  7 active torsions:
REMARK  status: ('A' for Active; 'I' for Inactive)
REMARK    1  A    between atoms: C_1  and  C_2
REMARK    2  A    between atoms: C_7  and  C_8
REMARK    3  A    between atoms: C_8  and  N_9
REMARK    4  A    between atoms: C_12  and  C_13
REMARK    5  A    between atoms: C_13  and  N_14
REMARK    6  A    between atoms: N_14  and  C_15
REMARK    7  A    between atoms: C_22  and  C_23
REMARK                            x       y       z     vdW  Elec       q    Type
REMARK                         _______ _______ _______ _____ _____    ______ ____
ROOT
ATOM      1  N   UNL     1       1.673   4.251  17.910  0.00  0.00    +0.000 N 
ATOM      2  H   UNL     1       2.304   3.864  17.213  0.00  0.00    +0.000 HD
ENDROOT
BRANCH   1   3
ATOM      3  C   UNL     1       1.857   3.669  19.163  0.00  0.00    +0.000 A 
ATOM      4  N   UNL     1       0.781   3.515  19.991  0.00  0.00    +0.000 NA
ATOM      5  C   UNL     1       0.946   2.973  21.202  0.00  0.00    +0.000 A 
ATOM      6  N   UNL     1       2.066   2.477  21.743  0.00  0.00    +0.000 NA
ATOM      7  C   UNL     1       3.097   2.628  20.911  0.00  0.00    +0.000 A 
ATOM      8  O   UNL     1       4.351   2.201  21.215  0.00  0.00    +0.000 OA
ATOM      9  N   UNL     1       5.214   2.536  20.200  0.00  0.00    +0.000 NA
ATOM     10  C   UNL     1       4.481   3.168  19.267  0.00  0.00    +0.000 A 
ATOM     11  C   UNL     1       3.103   3.229  19.665  0.00  0.00    +0.000 A 
BRANCH  10  12
ATOM     12  C   UNL     1       5.127   3.702  18.082  0.00  0.00    +0.000 A 
ATOM     13  C   UNL     1       6.302   4.454  18.173  0.00  0.00    +0.000 A 
ATOM     14  C   UNL     1       6.960   4.902  17.029  0.00  0.00    +0.000 A 
ATOM     15  C   UNL     1       6.398   4.674  15.781  0.00  0.00    +0.000 A 
ATOM     16 CL   UNL     1       7.167   5.305  14.379  0.00  0.00    +0.000 Cl
ATOM     17  C   UNL     1       5.206   3.961  15.663  0.00  0.00    +0.000 A 
ATOM     18  C   UNL     1       4.579   3.465  16.808  0.00  0.00    +0.000 A 
ENDBRANCH  10  12
ENDBRANCH   1   3
BRANCH   1  19
ATOM     19  C   UNL     1       1.411   5.698  17.803  0.00  0.00    +0.000 C 
BRANCH  19  23
ATOM     20  N   UNL     1       1.696   9.391  19.067  0.00  0.00    +0.000 NA
ATOM     21  C   UNL     1       1.443   8.360  20.057  0.00  0.00    +0.000 C 
ATOM     22  C   UNL     1       2.218   7.043  19.935  0.00  0.00    +0.000 C 
ATOM     23  C   UNL     1       2.512   6.538  18.518  0.00  0.00    +0.000 C 
ATOM     24  C   UNL     1       3.041   7.715  17.684  0.00  0.00    +0.000 C 
ATOM     25  C   UNL     1       2.280   9.039  17.794  0.00  0.00    +0.000 C 
BRANCH  20  26
ATOM     26  C   UNL     1       0.730  10.511  19.022  0.00  0.00    +0.000 C 
BRANCH  26  33
ATOM     27  C   UNL     1      -0.178  11.957  21.688  0.00  0.00    +0.000 C 
ATOM     28  C   UNL     1       0.794  12.530  20.696  0.00  0.00    +0.000 A 
ATOM     29  C   UNL     1       1.284  13.824  20.987  0.00  0.00    +0.000 A 
ATOM     30  C   UNL     1       2.142  14.494  20.120  0.00  0.00    +0.000 A 
ATOM     31  C   UNL     1       2.525  13.885  18.937  0.00  0.00    +0.000 A 
ATOM     32  C   UNL     1       2.055  12.606  18.631  0.00  0.00    +0.000 A 
ATOM     33  C   UNL     1       1.197  11.890  19.499  0.00  0.00    +0.000 A 
ENDBRANCH  26  33
ENDBRANCH  20  26
ENDBRANCH  19  23
ENDBRANCH   1  19
TORSDOF 6
ENDMDL
MODEL 9
REMARK VINA RESULT:      -8.0      3.466      5.858
REMARK  Name = 
REMARK  7 active torsions:
REMARK  status: ('A' for Active; 'I' for Inactive)
REMARK    1  A    between atoms: C_1  and  C_2
REMARK    2  A    between atoms: C_7  and  C_8
REMARK    3  A    between atoms: C_8  and  N_9
REMARK    4  A    between atoms: C_12  and  C_13
REMARK    5  A    between atoms: C_13  and  N_14
REMARK    6  A    between atoms: N_14  and  C_15
REMARK    7  A    between atoms: C_22  and  C_23
REMARK                            x       y       z     vdW  Elec       q    Type
REMARK                         _______ _______ _______ _____ _____    ______ ____
ROOT
ATOM      1  N   UNL     1       2.613   6.310  20.273  0.00  0.00    +0.000 N 
ATOM      2  H   UNL     1       3.101   6.353  21.164  0.00  0.00    +0.000 HD
ENDROOT
BRANCH   1   3
ATOM      3  C   UNL     1       2.196   5.016  19.967  0.00  0.00    +0.000 A 
ATOM      4  N   UNL     1       1.099   4.502  20.600  0.00  0.00    +0.000 NA
ATOM      5  C   UNL     1       0.698   3.255  20.328  0.00  0.00    +0.000 A 
ATOM      6  N   UNL     1       1.206   2.397  19.435  0.00  0.00    +0.000 NA
ATOM      7  C   UNL     1       2.266   2.926  18.823  0.00  0.00    +0.000 A 
ATOM      8  O   UNL     1       2.964   2.263  17.864  0.00  0.00    +0.000 OA
ATOM      9  N   UNL     1       4.030   3.027  17.455  0.00  0.00    +0.000 NA
ATOM     10  C   UNL     1       3.979   4.168  18.165  0.00  0.00    +0.000 A 
ATOM     11  C   UNL     1       2.844   4.164  19.043  0.00  0.00    +0.000 A 
BRANCH  10  12
ATOM     12  C   UNL     1       5.018   5.168  17.998  0.00  0.00    +0.000 A 
ATOM     13  C   UNL     1       4.822   6.289  17.186  0.00  0.00    +0.000 A 
ATOM     14  C   UNL     1       5.792   7.285  17.086  0.00  0.00    +0.000 A 
ATOM     15  C   UNL     1       7.009   7.122  17.734  0.00  0.00    +0.000 A 
ATOM     16 CL   UNL     1       8.236   8.309  17.536  0.00  0.00    +0.000 Cl
ATOM     17  C   UNL     1       7.247   5.996  18.518  0.00  0.00    +0.000 A 
ATOM     18  C   UNL     1       6.250   5.027  18.661  0.00  0.00    +0.000 A 
ENDBRANCH  10  12
ENDBRANCH   1   3
BRANCH   1  19
ATOM     19  C   UNL     1       1.738   7.456  19.964  0.00  0.00    +0.000 C 
BRANCH  19  23
ATOM     20  N   UNL     1      -0.236  10.740  20.764  0.00  0.00    +0.000 NA
ATOM     21  C   UNL     1      -0.982   9.494  20.750  0.00  0.00    +0.000 C 
ATOM     22  C   UNL     1      -0.336   8.264  21.398  0.00  0.00    +0.000 C 
ATOM     23  C   UNL     1       1.185   8.124  21.260  0.00  0.00    +0.000 C 
ATOM     24  C   UNL     1       1.829   9.480  21.589  0.00  0.00    +0.000 C 
ATOM     25  C   UNL     1       1.195  10.720  20.952  0.00  0.00    +0.000 C 
BRANCH  20  26
ATOM     26  C   UNL     1      -0.735  11.814  19.877  0.00  0.00    +0.000 C 
BRANCH  26  33
ATOM     27  C   UNL     1      -1.628  10.183  17.314  0.00  0.00    +0.000 C 
ATOM     28  C   UNL     1      -2.561  10.965  18.195  0.00  0.00    +0.000 A 
ATOM     29  C   UNL     1      -3.917  10.983  17.797  0.00  0.00    +0.000 A 
ATOM     30  C   UNL     1      -4.874  11.720  18.489  0.00  0.00    +0.000 A 
ATOM     31  C   UNL     1      -4.492  12.460  19.595  0.00  0.00    +0.000 A 
ATOM     32  C   UNL     1      -3.158  12.454  20.008  0.00  0.00    +0.000 A 
ATOM     33  C   UNL     1      -2.165  11.701  19.338  0.00  0.00    +0.000 A 
ENDBRANCH  26  33
ENDBRANCH  20  26
ENDBRANCH  19  23
ENDBRANCH   1  19
TORSDOF 6
ENDMDL
