MODEL 1
REMARK VINA RESULT:      -6.6      0.000      0.000
REMARK  Name = 
REMARK  11 active torsions:
REMARK  status: ('A' for Active; 'I' for Inactive)
REMARK    1  A    between atoms: C_1  and  C_2
REMARK    2  A    between atoms: C_2  and  C_3
REMARK    3  A    between atoms: C_6  and  N_7
REMARK    4  A    between atoms: N_7  and  C_15
REMARK    5  A    between atoms: C_8  and  C_10
REMARK    6  A    between atoms: C_15  and  C_16
REMARK    7  A    between atoms: C_15  and  C_23
REMARK    8  A    between atoms: N_18  and  C_19
REMARK    9  A    between atoms: C_19  and  C_20
REMARK   10  A    between atoms: C_19  and  C_21
REMARK   11  A    between atoms: C_19  and  C_22
REMARK                            x       y       z     vdW  Elec       q    Type
REMARK                         _______ _______ _______ _____ _____    ______ ____
ROOT
ATOM      1  N   UNL     1      -0.713  11.247  20.425  0.00  0.00    +0.000 N 
ATOM      2  C   UNL     1      -1.799  11.770  19.690  0.00  0.00    +0.000 C 
ATOM      3  O   UNL     1      -2.394  12.789  20.063  0.00  0.00    +0.000 OA
ENDROOT
BRANCH   1   7
ATOM      4  C   UNL     1       2.008   8.477  18.680  0.00  0.00    +0.000 A 
ATOM      5  C   UNL     1       1.690   9.672  18.025  0.00  0.00    +0.000 A 
ATOM      6  C   UNL     1       0.816  10.594  18.607  0.00  0.00    +0.000 A 
ATOM      7  C   UNL     1       0.227  10.333  19.847  0.00  0.00    +0.000 A 
ATOM      8  C   UNL     1       0.560   9.150  20.520  0.00  0.00    +0.000 A 
ATOM      9  C   UNL     1       1.441   8.229  19.936  0.00  0.00    +0.000 A 
BRANCH   4  11
ATOM     10  C   UNL     1       2.549   6.063  18.263  0.00  0.00    +0.000 C 
ATOM     11  C   UNL     1       2.973   7.507  18.040  0.00  0.00    +0.000 C 
ENDBRANCH   4  11
ENDBRANCH   1   7
BRANCH   2  12
ATOM     12  C   UNL     1      -2.211  11.144  18.430  0.00  0.00    +0.000 A 
ATOM     13  C   UNL     1      -2.105  11.800  17.211  0.00  0.00    +0.000 A 
ATOM     14  S   UNL     1      -2.609  10.715  15.989  0.00  0.00    +0.000 S 
ATOM     15  N   UNL     1      -2.968   9.505  17.083  0.00  0.00    +0.000 NA
ATOM     16  N   UNL     1      -2.739   9.858  18.338  0.00  0.00    +0.000 NA
ENDBRANCH   2  12
BRANCH   1  17
ATOM     17  C   UNL     1      -0.161  12.069  21.550  0.00  0.00    +0.000 C 
BRANCH  17  18
ATOM     18  C   UNL     1      -1.185  12.616  22.548  0.00  0.00    +0.000 A 
ATOM     19  C   UNL     1      -2.236  11.821  23.023  0.00  0.00    +0.000 A 
ATOM     20  C   UNL     1      -3.157  12.378  23.901  0.00  0.00    +0.000 A 
ATOM     21  N   UNL     1      -3.094  13.640  24.364  0.00  0.00    +0.000 NA
ATOM     22  C   UNL     1      -2.047  14.382  23.949  0.00  0.00    +0.000 A 
ATOM     23  C   UNL     1      -1.077  13.916  23.075  0.00  0.00    +0.000 A 
ENDBRANCH  17  18
BRANCH  17  24
ATOM     24  C   UNL     1       0.792  13.169  20.972  0.00  0.00    +0.000 C 
ATOM     25  O   UNL     1       1.983  13.204  21.284  0.00  0.00    +0.000 OA
ATOM     26  N   UNL     1       0.207  14.121  20.148  0.00  0.00    +0.000 N 
ATOM     27  H   UNL     1      -0.814  14.158  20.164  0.00  0.00    +0.000 HD
BRANCH  26  28
ATOM     28  C   UNL     1       0.915  15.215  19.466  0.00  0.00    +0.000 C 
ATOM     29  C   UNL     1       1.975  14.649  18.508  0.00  0.00    +0.000 C 
ATOM     30  C   UNL     1      -0.099  16.019  18.625  0.00  0.00    +0.000 C 
ATOM     31  C   UNL     1       1.559  16.174  20.477  0.00  0.00    +0.000 C 
ENDBRANCH  26  28
ENDBRANCH  17  24
ENDBRANCH   1  17
TORSDOF 7
ENDMDL
MODEL 2
REMARK VINA RESULT:      -6.5      6.609     10.679
REMARK  Name = 
REMARK  11 active torsions:
REMARK  status: ('A' for Active; 'I' for Inactive)
REMARK    1  A    between atoms: C_1  and  C_2
REMARK    2  A    between atoms: C_2  and  C_3
REMARK    3  A    between atoms: C_6  and  N_7
REMARK    4  A    between atoms: N_7  and  C_15
REMARK    5  A    between atoms: C_8  and  C_10
REMARK    6  A    between atoms: C_15  and  C_16
REMARK    7  A    between atoms: C_15  and  C_23
REMARK    8  A    between atoms: N_18  and  C_19
REMARK    9  A    between atoms: C_19  and  C_20
REMARK   10  A    between atoms: C_19  and  C_21
REMARK   11  A    between atoms: C_19  and  C_22
REMARK                            x       y       z     vdW  Elec       q    Type
REMARK                         _______ _______ _______ _____ _____    ______ ____
ROOT
ATOM      1  N   UNL     1       4.418   4.242  17.052  0.00  0.00    +0.000 N 
ATOM      2  C   UNL     1       4.022   2.943  17.439  0.00  0.00    +0.000 C 
ATOM      3  O   UNL     1       4.740   1.960  17.212  0.00  0.00    +0.000 OA
ENDROOT
BRANCH   1   7
ATOM      4  C   UNL     1       2.586   7.706  18.715  0.00  0.00    +0.000 A 
ATOM      5  C   UNL     1       2.914   6.615  19.527  0.00  0.00    +0.000 A 
ATOM      6  C   UNL     1       3.537   5.486  18.988  0.00  0.00    +0.000 A 
ATOM      7  C   UNL     1       3.829   5.417  17.623  0.00  0.00    +0.000 A 
ATOM      8  C   UNL     1       3.526   6.517  16.808  0.00  0.00    +0.000 A 
ATOM      9  C   UNL     1       2.905   7.650  17.352  0.00  0.00    +0.000 A 
BRANCH   4  11
ATOM     10  C   UNL     1       1.241   9.778  18.274  0.00  0.00    +0.000 C 
ATOM     11  C   UNL     1       1.932   8.923  19.326  0.00  0.00    +0.000 C 
ENDBRANCH   4  11
ENDBRANCH   1   7
BRANCH   2  12
ATOM     12  C   UNL     1       2.769   2.737  18.173  0.00  0.00    +0.000 A 
ATOM     13  C   UNL     1       2.751   2.348  19.505  0.00  0.00    +0.000 A 
ATOM     14  S   UNL     1       1.118   2.295  20.010  0.00  0.00    +0.000 S 
ATOM     15  N   UNL     1       0.541   2.722  18.502  0.00  0.00    +0.000 NA
ATOM     16  N   UNL     1       1.506   2.905  17.613  0.00  0.00    +0.000 NA
ENDBRANCH   2  12
BRANCH   1  17
ATOM     17  C   UNL     1       5.816   4.435  16.552  0.00  0.00    +0.000 C 
BRANCH  17  18
ATOM     18  C   UNL     1       6.672   5.447  17.321  0.00  0.00    +0.000 A 
ATOM     19  C   UNL     1       6.875   6.745  16.836  0.00  0.00    +0.000 A 
ATOM     20  C   UNL     1       7.687   7.612  17.555  0.00  0.00    +0.000 A 
ATOM     21  N   UNL     1       8.277   7.302  18.724  0.00  0.00    +0.000 NA
ATOM     22  C   UNL     1       8.030   6.071  19.215  0.00  0.00    +0.000 A 
ATOM     23  C   UNL     1       7.234   5.135  18.571  0.00  0.00    +0.000 A 
ENDBRANCH  17  18
BRANCH  17  24
ATOM     24  C   UNL     1       5.787   4.695  15.008  0.00  0.00    +0.000 C 
ATOM     25  O   UNL     1       5.488   5.803  14.558  0.00  0.00    +0.000 OA
ATOM     26  N   UNL     1       6.054   3.604  14.193  0.00  0.00    +0.000 N 
ATOM     27  H   UNL     1       6.029   2.690  14.649  0.00  0.00    +0.000 HD
BRANCH  26  28
ATOM     28  C   UNL     1       6.121   3.628  12.724  0.00  0.00    +0.000 C 
ATOM     29  C   UNL     1       7.184   4.634  12.254  0.00  0.00    +0.000 C 
ATOM     30  C   UNL     1       6.538   2.230  12.219  0.00  0.00    +0.000 C 
ATOM     31  C   UNL     1       4.753   3.964  12.113  0.00  0.00    +0.000 C 
ENDBRANCH  26  28
ENDBRANCH  17  24
ENDBRANCH   1  17
TORSDOF 7
ENDMDL
MODEL 3
REMARK VINA RESULT:      -6.4      6.755     10.695
REMARK  Name = 
REMARK  11 active torsions:
REMARK  status: ('A' for Active; 'I' for Inactive)
REMARK    1  A    between atoms: C_1  and  C_2
REMARK    2  A    between atoms: C_2  and  C_3
REMARK    3  A    between atoms: C_6  and  N_7
REMARK    4  A    between atoms: N_7  and  C_15
REMARK    5  A    between atoms: C_8  and  C_10
REMARK    6  A    between atoms: C_15  and  C_16
REMARK    7  A    between atoms: C_15  and  C_23
REMARK    8  A    between atoms: N_18  and  C_19
REMARK    9  A    between atoms: C_19  and  C_20
REMARK   10  A    between atoms: C_19  and  C_21
REMARK   11  A    between atoms: C_19  and  C_22
REMARK                            x       y       z     vdW  Elec       q    Type
REMARK                         _______ _______ _______ _____ _____    ______ ____
ROOT
ATOM      1  N   UNL     1       4.328   4.132  17.077  0.00  0.00    +0.000 N 
ATOM      2  C   UNL     1       3.922   2.827  17.430  0.00  0.00    +0.000 C 
ATOM      3  O   UNL     1       4.620   1.842  17.155  0.00  0.00    +0.000 OA
ENDROOT
BRANCH   1   7
ATOM      4  C   UNL     1       2.582   7.564  18.892  0.00  0.00    +0.000 A 
ATOM      5  C   UNL     1       2.915   6.444  19.661  0.00  0.00    +0.000 A 
ATOM      6  C   UNL     1       3.510   5.325  19.072  0.00  0.00    +0.000 A 
ATOM      7  C   UNL     1       3.769   5.296  17.698  0.00  0.00    +0.000 A 
ATOM      8  C   UNL     1       3.460   6.424  16.926  0.00  0.00    +0.000 A 
ATOM      9  C   UNL     1       2.867   7.547  17.521  0.00  0.00    +0.000 A 
BRANCH   4  11
ATOM     10  C   UNL     1       1.294   8.403  20.875  0.00  0.00    +0.000 C 
ATOM     11  C   UNL     1       1.959   8.769  19.557  0.00  0.00    +0.000 C 
ENDBRANCH   4  11
ENDBRANCH   1   7
BRANCH   2  12
ATOM     12  C   UNL     1       2.682   2.614  18.184  0.00  0.00    +0.000 A 
ATOM     13  C   UNL     1       2.688   2.268  19.528  0.00  0.00    +0.000 A 
ATOM     14  S   UNL     1       1.062   2.191  20.053  0.00  0.00    +0.000 S 
ATOM     15  N   UNL     1       0.459   2.555  18.538  0.00  0.00    +0.000 NA
ATOM     16  N   UNL     1       1.409   2.733  17.633  0.00  0.00    +0.000 NA
ENDBRANCH   2  12
BRANCH   1  17
ATOM     17  C   UNL     1       5.718   4.322  16.553  0.00  0.00    +0.000 C 
BRANCH  17  18
ATOM     18  C   UNL     1       6.591   5.326  17.313  0.00  0.00    +0.000 A 
ATOM     19  C   UNL     1       7.185   4.993  18.537  0.00  0.00    +0.000 A 
ATOM     20  C   UNL     1       7.939   5.952  19.202  0.00  0.00    +0.000 A 
ATOM     21  N   UNL     1       8.174   7.190  18.730  0.00  0.00    +0.000 NA
ATOM     22  C   UNL     1       7.648   7.485  17.523  0.00  0.00    +0.000 A 
ATOM     23  C   UNL     1       6.882   6.596  16.784  0.00  0.00    +0.000 A 
ENDBRANCH  17  18
BRANCH  17  24
ATOM     24  C   UNL     1       5.661   4.592  15.011  0.00  0.00    +0.000 C 
ATOM     25  O   UNL     1       5.259   5.671  14.572  0.00  0.00    +0.000 OA
ATOM     26  N   UNL     1       6.029   3.538  14.186  0.00  0.00    +0.000 N 
ATOM     27  H   UNL     1       6.091   2.623  14.634  0.00  0.00    +0.000 HD
BRANCH  26  28
ATOM     28  C   UNL     1       6.091   3.582  12.718  0.00  0.00    +0.000 C 
ATOM     29  C   UNL     1       7.129   4.618  12.257  0.00  0.00    +0.000 C 
ATOM     30  C   UNL     1       6.539   2.201  12.194  0.00  0.00    +0.000 C 
ATOM     31  C   UNL     1       4.714   3.894  12.114  0.00  0.00    +0.000 C 
ENDBRANCH  26  28
ENDBRANCH  17  24
ENDBRANCH   1  17
TORSDOF 7
ENDMDL
MODEL 4
REMARK VINA RESULT:      -6.3      0.221      1.472
REMARK  Name = 
REMARK  11 active torsions:
REMARK  status: ('A' for Active; 'I' for Inactive)
REMARK    1  A    between atoms: C_1  and  C_2
REMARK    2  A    between atoms: C_2  and  C_3
REMARK    3  A    between atoms: C_6  and  N_7
REMARK    4  A    between atoms: N_7  and  C_15
REMARK    5  A    between atoms: C_8  and  C_10
REMARK    6  A    between atoms: C_15  and  C_16
REMARK    7  A    between atoms: C_15  and  C_23
REMARK    8  A    between atoms: N_18  and  C_19
REMARK    9  A    between atoms: C_19  and  C_20
REMARK   10  A    between atoms: C_19  and  C_21
REMARK   11  A    between atoms: C_19  and  C_22
REMARK                            x       y       z     vdW  Elec       q    Type
REMARK                         _______ _______ _______ _____ _____    ______ ____
ROOT
ATOM      1  N   UNL     1      -0.733  11.210  20.409  0.00  0.00    +0.000 N 
ATOM      2  C   UNL     1      -1.788  11.768  19.656  0.00  0.00    +0.000 C 
ATOM      3  O   UNL     1      -2.337  12.822  20.004  0.00  0.00    +0.000 OA
ENDROOT
BRANCH   1   7
ATOM      4  C   UNL     1       2.010   8.386  18.789  0.00  0.00    +0.000 A 
ATOM      5  C   UNL     1       1.437   8.180  20.049  0.00  0.00    +0.000 A 
ATOM      6  C   UNL     1       0.518   9.093  20.573  0.00  0.00    +0.000 A 
ATOM      7  C   UNL     1       0.166  10.240  19.856  0.00  0.00    +0.000 A 
ATOM      8  C   UNL     1       0.716  10.440  18.582  0.00  0.00    +0.000 A 
ATOM      9  C   UNL     1       1.634   9.520  18.057  0.00  0.00    +0.000 A 
BRANCH   4  11
ATOM     10  C   UNL     1       3.100   6.153  19.139  0.00  0.00    +0.000 C 
ATOM     11  C   UNL     1       2.984   7.372  18.235  0.00  0.00    +0.000 C 
ENDBRANCH   4  11
ENDBRANCH   1   7
BRANCH   2  12
ATOM     12  C   UNL     1      -2.223  11.137  18.405  0.00  0.00    +0.000 A 
ATOM     13  C   UNL     1      -2.108  11.776  17.178  0.00  0.00    +0.000 A 
ATOM     14  S   UNL     1      -2.644  10.689  15.972  0.00  0.00    +0.000 S 
ATOM     15  N   UNL     1      -3.026   9.500  17.083  0.00  0.00    +0.000 NA
ATOM     16  N   UNL     1      -2.781   9.863  18.333  0.00  0.00    +0.000 NA
ENDBRANCH   2  12
BRANCH   1  17
ATOM     17  C   UNL     1      -0.149  12.026  21.520  0.00  0.00    +0.000 C 
BRANCH  17  18
ATOM     18  C   UNL     1      -1.149  12.612  22.522  0.00  0.00    +0.000 A 
ATOM     19  C   UNL     1      -1.012  13.919  23.008  0.00  0.00    +0.000 A 
ATOM     20  C   UNL     1      -1.927  14.389  23.941  0.00  0.00    +0.000 A 
ATOM     21  N   UNL     1      -2.976  13.678  24.396  0.00  0.00    +0.000 NA
ATOM     22  C   UNL     1      -3.136  12.443  23.881  0.00  0.00    +0.000 A 
ATOM     23  C   UNL     1      -2.276  11.886  22.946  0.00  0.00    +0.000 A 
ENDBRANCH  17  18
BRANCH  17  24
ATOM     24  C   UNL     1       0.828  13.095  20.923  0.00  0.00    +0.000 C 
ATOM     25  O   UNL     1       2.036  13.055  21.167  0.00  0.00    +0.000 OA
ATOM     26  N   UNL     1       0.251  14.105  20.167  0.00  0.00    +0.000 N 
ATOM     27  H   UNL     1      -0.763  14.195  20.243  0.00  0.00    +0.000 HD
BRANCH  26  28
ATOM     28  C   UNL     1       0.978  15.183  19.479  0.00  0.00    +0.000 C 
ATOM     29  C   UNL     1       1.722  16.060  20.499  0.00  0.00    +0.000 C 
ATOM     30  C   UNL     1       2.031  14.556  18.541  0.00  0.00    +0.000 C 
ATOM     31  C   UNL     1       0.029  16.035  18.625  0.00  0.00    +0.000 C 
ENDBRANCH  26  28
ENDBRANCH  17  24
ENDBRANCH   1  17
TORSDOF 7
ENDMDL
MODEL 5
REMARK VINA RESULT:      -6.2      6.697     10.670
REMARK  Name = 
REMARK  11 active torsions:
REMARK  status: ('A' for Active; 'I' for Inactive)
REMARK    1  A    between atoms: C_1  and  C_2
REMARK    2  A    between atoms: C_2  and  C_3
REMARK    3  A    between atoms: C_6  and  N_7
REMARK    4  A    between atoms: N_7  and  C_15
REMARK    5  A    between atoms: C_8  and  C_10
REMARK    6  A    between atoms: C_15  and  C_16
REMARK    7  A    between atoms: C_15  and  C_23
REMARK    8  A    between atoms: N_18  and  C_19
REMARK    9  A    between atoms: C_19  and  C_20
REMARK   10  A    between atoms: C_19  and  C_21
REMARK   11  A    between atoms: C_19  and  C_22
REMARK                            x       y       z     vdW  Elec       q    Type
REMARK                         _______ _______ _______ _____ _____    ______ ____
ROOT
ATOM      1  N   UNL     1       4.417   4.177  17.004  0.00  0.00    +0.000 N 
ATOM      2  C   UNL     1       4.039   2.886  17.432  0.00  0.00    +0.000 C 
ATOM      3  O   UNL     1       4.774   1.908  17.245  0.00  0.00    +0.000 OA
ENDROOT
BRANCH   1   7
ATOM      4  C   UNL     1       2.685   7.725  18.593  0.00  0.00    +0.000 A 
ATOM      5  C   UNL     1       2.940   7.610  17.222  0.00  0.00    +0.000 A 
ATOM      6  C   UNL     1       3.486   6.437  16.694  0.00  0.00    +0.000 A 
ATOM      7  C   UNL     1       3.805   5.362  17.528  0.00  0.00    +0.000 A 
ATOM      8  C   UNL     1       3.529   5.461  18.899  0.00  0.00    +0.000 A 
ATOM      9  C   UNL     1       2.977   6.637  19.425  0.00  0.00    +0.000 A 
BRANCH   4  11
ATOM     10  C   UNL     1       1.791  10.001  18.029  0.00  0.00    +0.000 C 
ATOM     11  C   UNL     1       2.073   8.996  19.136  0.00  0.00    +0.000 C 
ENDBRANCH   4  11
ENDBRANCH   1   7
BRANCH   2  12
ATOM     12  C   UNL     1       2.783   2.685  18.162  0.00  0.00    +0.000 A 
ATOM     13  C   UNL     1       2.759   2.308  19.497  0.00  0.00    +0.000 A 
ATOM     14  S   UNL     1       1.124   2.258  19.995  0.00  0.00    +0.000 S 
ATOM     15  N   UNL     1       0.553   2.673  18.481  0.00  0.00    +0.000 NA
ATOM     16  N   UNL     1       1.521   2.849  17.595  0.00  0.00    +0.000 NA
ENDBRANCH   2  12
BRANCH   1  17
ATOM     17  C   UNL     1       5.817   4.375  16.509  0.00  0.00    +0.000 C 
BRANCH  17  18
ATOM     18  C   UNL     1       6.669   5.382  17.288  0.00  0.00    +0.000 A 
ATOM     19  C   UNL     1       7.275   5.036  18.504  0.00  0.00    +0.000 A 
ATOM     20  C   UNL     1       8.008   5.997  19.187  0.00  0.00    +0.000 A 
ATOM     21  N   UNL     1       8.213   7.250  18.742  0.00  0.00    +0.000 NA
ATOM     22  C   UNL     1       7.677   7.559  17.544  0.00  0.00    +0.000 A 
ATOM     23  C   UNL     1       6.929   6.670  16.787  0.00  0.00    +0.000 A 
ENDBRANCH  17  18
BRANCH  17  24
ATOM     24  C   UNL     1       5.791   4.647  14.967  0.00  0.00    +0.000 C 
ATOM     25  O   UNL     1       5.525   5.767  14.526  0.00  0.00    +0.000 OA
ATOM     26  N   UNL     1       6.024   3.555  14.143  0.00  0.00    +0.000 N 
ATOM     27  H   UNL     1       5.972   2.639  14.593  0.00  0.00    +0.000 HD
BRANCH  26  28
ATOM     28  C   UNL     1       6.088   3.588  12.674  0.00  0.00    +0.000 C 
ATOM     29  C   UNL     1       7.143   4.603  12.208  0.00  0.00    +0.000 C 
ATOM     30  C   UNL     1       6.513   2.196  12.161  0.00  0.00    +0.000 C 
ATOM     31  C   UNL     1       4.717   3.919  12.067  0.00  0.00    +0.000 C 
ENDBRANCH  26  28
ENDBRANCH  17  24
ENDBRANCH   1  17
TORSDOF 7
ENDMDL
MODEL 6
REMARK VINA RESULT:      -6.1      6.666     10.667
REMARK  Name = 
REMARK  11 active torsions:
REMARK  status: ('A' for Active; 'I' for Inactive)
REMARK    1  A    between atoms: C_1  and  C_2
REMARK    2  A    between atoms: C_2  and  C_3
REMARK    3  A    between atoms: C_6  and  N_7
REMARK    4  A    between atoms: N_7  and  C_15
REMARK    5  A    between atoms: C_8  and  C_10
REMARK    6  A    between atoms: C_15  and  C_16
REMARK    7  A    between atoms: C_15  and  C_23
REMARK    8  A    between atoms: N_18  and  C_19
REMARK    9  A    between atoms: C_19  and  C_20
REMARK   10  A    between atoms: C_19  and  C_21
REMARK   11  A    between atoms: C_19  and  C_22
REMARK                            x       y       z     vdW  Elec       q    Type
REMARK                         _______ _______ _______ _____ _____    ______ ____
ROOT
ATOM      1  N   UNL     1       4.311   4.120  17.083  0.00  0.00    +0.000 N 
ATOM      2  C   UNL     1       3.931   2.833  17.520  0.00  0.00    +0.000 C 
ATOM      3  O   UNL     1       4.658   1.849  17.326  0.00  0.00    +0.000 OA
ENDROOT
BRANCH   1   7
ATOM      4  C   UNL     1       2.620   7.682  18.687  0.00  0.00    +0.000 A 
ATOM      5  C   UNL     1       2.887   7.575  17.317  0.00  0.00    +0.000 A 
ATOM      6  C   UNL     1       3.420   6.398  16.785  0.00  0.00    +0.000 A 
ATOM      7  C   UNL     1       3.714   5.310  17.612  0.00  0.00    +0.000 A 
ATOM      8  C   UNL     1       3.425   5.402  18.980  0.00  0.00    +0.000 A 
ATOM      9  C   UNL     1       2.887   6.582  19.512  0.00  0.00    +0.000 A 
BRANCH   4  11
ATOM     10  C   UNL     1       1.201   9.690  18.184  0.00  0.00    +0.000 C 
ATOM     11  C   UNL     1       2.023   8.957  19.234  0.00  0.00    +0.000 C 
ENDBRANCH   4  11
ENDBRANCH   1   7
BRANCH   2  12
ATOM     12  C   UNL     1       2.684   2.641  18.267  0.00  0.00    +0.000 A 
ATOM     13  C   UNL     1       2.674   2.384  19.631  0.00  0.00    +0.000 A 
ATOM     14  S   UNL     1       1.042   2.305  20.135  0.00  0.00    +0.000 S 
ATOM     15  N   UNL     1       0.457   2.556  18.590  0.00  0.00    +0.000 NA
ATOM     16  N   UNL     1       1.418   2.696  17.690  0.00  0.00    +0.000 NA
ENDBRANCH   2  12
BRANCH   1  17
ATOM     17  C   UNL     1       5.706   4.309  16.569  0.00  0.00    +0.000 C 
BRANCH  17  18
ATOM     18  C   UNL     1       6.572   5.317  17.330  0.00  0.00    +0.000 A 
ATOM     19  C   UNL     1       6.807   6.602  16.826  0.00  0.00    +0.000 A 
ATOM     20  C   UNL     1       7.628   7.465  17.539  0.00  0.00    +0.000 A 
ATOM     21  N   UNL     1       8.199   7.163  18.720  0.00  0.00    +0.000 NA
ATOM     22  C   UNL     1       7.922   5.945  19.229  0.00  0.00    +0.000 A 
ATOM     23  C   UNL     1       7.115   5.015  18.592  0.00  0.00    +0.000 A 
ENDBRANCH  17  18
BRANCH  17  24
ATOM     24  C   UNL     1       5.661   4.571  15.025  0.00  0.00    +0.000 C 
ATOM     25  O   UNL     1       5.276   5.653  14.578  0.00  0.00    +0.000 OA
ATOM     26  N   UNL     1       6.019   3.508  14.208  0.00  0.00    +0.000 N 
ATOM     27  H   UNL     1       6.066   2.594  14.661  0.00  0.00    +0.000 HD
BRANCH  26  28
ATOM     28  C   UNL     1       6.090   3.543  12.740  0.00  0.00    +0.000 C 
ATOM     29  C   UNL     1       4.733   3.957  12.149  0.00  0.00    +0.000 C 
ATOM     30  C   UNL     1       7.132   4.599  12.314  0.00  0.00    +0.000 C 
ATOM     31  C   UNL     1       6.532   2.186  12.174  0.00  0.00    +0.000 C 
ENDBRANCH  26  28
ENDBRANCH  17  24
ENDBRANCH   1  17
TORSDOF 7
ENDMDL
MODEL 7
REMARK VINA RESULT:      -6.0      3.092      5.724
REMARK  Name = 
REMARK  11 active torsions:
REMARK  status: ('A' for Active; 'I' for Inactive)
REMARK    1  A    between atoms: C_1  and  C_2
REMARK    2  A    between atoms: C_2  and  C_3
REMARK    3  A    between atoms: C_6  and  N_7
REMARK    4  A    between atoms: N_7  and  C_15
REMARK    5  A    between atoms: C_8  and  C_10
REMARK    6  A    between atoms: C_15  and  C_16
REMARK    7  A    between atoms: C_15  and  C_23
REMARK    8  A    between atoms: N_18  and  C_19
REMARK    9  A    between atoms: C_19  and  C_20
REMARK   10  A    between atoms: C_19  and  C_21
REMARK   11  A    between atoms: C_19  and  C_22
REMARK                            x       y       z     vdW  Elec       q    Type
REMARK                         _______ _______ _______ _____ _____    ______ ____
ROOT
ATOM      1  N   UNL     1      -0.032  13.147  19.697  0.00  0.00    +0.000 N 
ATOM      2  C   UNL     1       0.573  12.800  20.924  0.00  0.00    +0.000 C 
ATOM      3  O   UNL     1       1.448  13.513  21.432  0.00  0.00    +0.000 OA
ENDROOT
BRANCH   1   7
ATOM      4  C   UNL     1      -3.771  11.561  18.422  0.00  0.00    +0.000 A 
ATOM      5  C   UNL     1      -2.607  11.323  17.683  0.00  0.00    +0.000 A 
ATOM      6  C   UNL     1      -1.374  11.822  18.112  0.00  0.00    +0.000 A 
ATOM      7  C   UNL     1      -1.282  12.585  19.279  0.00  0.00    +0.000 A 
ATOM      8  C   UNL     1      -2.439  12.807  20.038  0.00  0.00    +0.000 A 
ATOM      9  C   UNL     1      -3.674  12.301  19.607  0.00  0.00    +0.000 A 
BRANCH   4  11
ATOM     10  C   UNL     1      -6.199  11.231  18.959  0.00  0.00    +0.000 C 
ATOM     11  C   UNL     1      -5.087  10.992  17.948  0.00  0.00    +0.000 C 
ENDBRANCH   4  11
ENDBRANCH   1   7
BRANCH   2  12
ATOM     12  C   UNL     1       0.135  11.607  21.655  0.00  0.00    +0.000 A 
ATOM     13  C   UNL     1       0.397  10.323  21.196  0.00  0.00    +0.000 A 
ATOM     14  S   UNL     1      -0.201   9.221  22.358  0.00  0.00    +0.000 S 
ATOM     15  N   UNL     1      -0.790  10.436  23.343  0.00  0.00    +0.000 NA
ATOM     16  N   UNL     1      -0.572  11.647  22.854  0.00  0.00    +0.000 NA
ENDBRANCH   2  12
BRANCH   1  17
ATOM     17  C   UNL     1       0.253  14.503  19.128  0.00  0.00    +0.000 C 
BRANCH  17  18
ATOM     18  C   UNL     1       1.733  14.871  18.976  0.00  0.00    +0.000 A 
ATOM     19  C   UNL     1       2.624  14.036  18.288  0.00  0.00    +0.000 A 
ATOM     20  C   UNL     1       3.962  14.400  18.210  0.00  0.00    +0.000 A 
ATOM     21  N   UNL     1       4.469  15.535  18.726  0.00  0.00    +0.000 NA
ATOM     22  C   UNL     1       3.596  16.362  19.335  0.00  0.00    +0.000 A 
ATOM     23  C   UNL     1       2.243  16.087  19.465  0.00  0.00    +0.000 A 
ENDBRANCH  17  18
BRANCH  17  24
ATOM     24  C   UNL     1      -0.576  15.580  19.906  0.00  0.00    +0.000 C 
ATOM     25  O   UNL     1      -0.648  15.557  21.136  0.00  0.00    +0.000 OA
ATOM     26  N   UNL     1      -1.261  16.508  19.134  0.00  0.00    +0.000 N 
ATOM     27  H   UNL     1      -1.349  16.284  18.142  0.00  0.00    +0.000 HD
BRANCH  26  28
ATOM     28  C   UNL     1      -2.064  17.626  19.652  0.00  0.00    +0.000 C 
ATOM     29  C   UNL     1      -1.232  18.476  20.626  0.00  0.00    +0.000 C 
ATOM     30  C   UNL     1      -2.479  18.532  18.472  0.00  0.00    +0.000 C 
ATOM     31  C   UNL     1      -3.343  17.122  20.334  0.00  0.00    +0.000 C 
ENDBRANCH  26  28
ENDBRANCH  17  24
ENDBRANCH   1  17
TORSDOF 7
ENDMDL
MODEL 8
REMARK VINA RESULT:      -6.0      1.036      1.209
REMARK  Name = 
REMARK  11 active torsions:
REMARK  status: ('A' for Active; 'I' for Inactive)
REMARK    1  A    between atoms: C_1  and  C_2
REMARK    2  A    between atoms: C_2  and  C_3
REMARK    3  A    between atoms: C_6  and  N_7
REMARK    4  A    between atoms: N_7  and  C_15
REMARK    5  A    between atoms: C_8  and  C_10
REMARK    6  A    between atoms: C_15  and  C_16
REMARK    7  A    between atoms: C_15  and  C_23
REMARK    8  A    between atoms: N_18  and  C_19
REMARK    9  A    between atoms: C_19  and  C_20
REMARK   10  A    between atoms: C_19  and  C_21
REMARK   11  A    between atoms: C_19  and  C_22
REMARK                            x       y       z     vdW  Elec       q    Type
REMARK                         _______ _______ _______ _____ _____    ______ ____
ROOT
ATOM      1  N   UNL     1      -0.718  11.312  20.262  0.00  0.00    +0.000 N 
ATOM      2  C   UNL     1      -1.824  11.781  19.521  0.00  0.00    +0.000 C 
ATOM      3  O   UNL     1      -2.431  12.806  19.856  0.00  0.00    +0.000 OA
ENDROOT
BRANCH   1   7
ATOM      4  C   UNL     1       2.024   8.510  18.602  0.00  0.00    +0.000 A 
ATOM      5  C   UNL     1       1.705   9.687  17.915  0.00  0.00    +0.000 A 
ATOM      6  C   UNL     1       0.824  10.620  18.469  0.00  0.00    +0.000 A 
ATOM      7  C   UNL     1       0.229  10.387  19.712  0.00  0.00    +0.000 A 
ATOM      8  C   UNL     1       0.563   9.222  20.416  0.00  0.00    +0.000 A 
ATOM      9  C   UNL     1       1.451   8.290  19.861  0.00  0.00    +0.000 A 
BRANCH   4  11
ATOM     10  C   UNL     1       2.948   6.179  18.692  0.00  0.00    +0.000 C 
ATOM     11  C   UNL     1       2.996   7.529  17.991  0.00  0.00    +0.000 C 
ENDBRANCH   4  11
ENDBRANCH   1   7
BRANCH   2  12
ATOM     12  C   UNL     1      -2.244  11.089  18.298  0.00  0.00    +0.000 A 
ATOM     13  C   UNL     1      -2.183  11.694  17.051  0.00  0.00    +0.000 A 
ATOM     14  S   UNL     1      -2.681  10.544  15.888  0.00  0.00    +0.000 S 
ATOM     15  N   UNL     1      -2.983   9.373  17.041  0.00  0.00    +0.000 NA
ATOM     16  N   UNL     1      -2.737   9.787  18.274  0.00  0.00    +0.000 NA
ENDBRANCH   2  12
BRANCH   1  17
ATOM     17  C   UNL     1      -0.162  12.194  21.338  0.00  0.00    +0.000 C 
BRANCH  17  18
ATOM     18  C   UNL     1      -1.171  12.719  22.364  0.00  0.00    +0.000 A 
ATOM     19  C   UNL     1      -2.135  11.877  22.934  0.00  0.00    +0.000 A 
ATOM     20  C   UNL     1      -3.048  12.412  23.833  0.00  0.00    +0.000 A 
ATOM     21  N   UNL     1      -3.053  13.697  24.232  0.00  0.00    +0.000 NA
ATOM     22  C   UNL     1      -2.086  14.489  23.725  0.00  0.00    +0.000 A 
ATOM     23  C   UNL     1      -1.131  14.048  22.821  0.00  0.00    +0.000 A 
ENDBRANCH  17  18
BRANCH  17  24
ATOM     24  C   UNL     1       0.706  13.324  20.688  0.00  0.00    +0.000 C 
ATOM     25  O   UNL     1       0.243  14.050  19.806  0.00  0.00    +0.000 OA
ATOM     26  N   UNL     1       2.022  13.415  21.117  0.00  0.00    +0.000 N 
ATOM     27  H   UNL     1       2.375  12.615  21.645  0.00  0.00    +0.000 HD
BRANCH  26  28
ATOM     28  C   UNL     1       2.999  14.422  20.675  0.00  0.00    +0.000 C 
ATOM     29  C   UNL     1       3.296  14.257  19.176  0.00  0.00    +0.000 C 
ATOM     30  C   UNL     1       2.398  15.828  20.885  0.00  0.00    +0.000 C 
ATOM     31  C   UNL     1       4.295  14.333  21.494  0.00  0.00    +0.000 C 
ENDBRANCH  26  28
ENDBRANCH  17  24
ENDBRANCH   1  17
TORSDOF 7
ENDMDL
MODEL 9
REMARK VINA RESULT:      -5.9      3.106      5.824
REMARK  Name = 
REMARK  11 active torsions:
REMARK  status: ('A' for Active; 'I' for Inactive)
REMARK    1  A    between atoms: C_1  and  C_2
REMARK    2  A    between atoms: C_2  and  C_3
REMARK    3  A    between atoms: C_6  and  N_7
REMARK    4  A    between atoms: N_7  and  C_15
REMARK    5  A    between atoms: C_8  and  C_10
REMARK    6  A    between atoms: C_15  and  C_16
REMARK    7  A    between atoms: C_15  and  C_23
REMARK    8  A    between atoms: N_18  and  C_19
REMARK    9  A    between atoms: C_19  and  C_20
REMARK   10  A    between atoms: C_19  and  C_21
REMARK   11  A    between atoms: C_19  and  C_22
REMARK                            x       y       z     vdW  Elec       q    Type
REMARK                         _______ _______ _______ _____ _____    ______ ____
ROOT
ATOM      1  N   UNL     1      -0.002  13.242  19.681  0.00  0.00    +0.000 N 
ATOM      2  C   UNL     1       0.598  12.882  20.906  0.00  0.00    +0.000 C 
ATOM      3  O   UNL     1       1.480  13.583  21.419  0.00  0.00    +0.000 OA
ENDROOT
BRANCH   1   7
ATOM      4  C   UNL     1      -3.707  11.535  18.463  0.00  0.00    +0.000 A 
ATOM      5  C   UNL     1      -3.631  12.324  19.616  0.00  0.00    +0.000 A 
ATOM      6  C   UNL     1      -2.422  12.905  20.005  0.00  0.00    +0.000 A 
ATOM      7  C   UNL     1      -1.258  12.696  19.259  0.00  0.00    +0.000 A 
ATOM      8  C   UNL     1      -1.332  11.927  18.089  0.00  0.00    +0.000 A 
ATOM      9  C   UNL     1      -2.548  11.349  17.699  0.00  0.00    +0.000 A 
BRANCH   4  11
ATOM     10  C   UNL     1      -6.021  12.006  17.615  0.00  0.00    +0.000 C 
ATOM     11  C   UNL     1      -5.032  10.936  18.052  0.00  0.00    +0.000 C 
ENDBRANCH   4  11
ENDBRANCH   1   7
BRANCH   2  12
ATOM     12  C   UNL     1       0.146  11.689  21.631  0.00  0.00    +0.000 A 
ATOM     13  C   UNL     1       0.416  10.405  21.177  0.00  0.00    +0.000 A 
ATOM     14  S   UNL     1      -0.203   9.304  22.330  0.00  0.00    +0.000 S 
ATOM     15  N   UNL     1      -0.808  10.520  23.303  0.00  0.00    +0.000 NA
ATOM     16  N   UNL     1      -0.582  11.731  22.817  0.00  0.00    +0.000 NA
ENDBRANCH   2  12
BRANCH   1  17
ATOM     17  C   UNL     1       0.298  14.598  19.119  0.00  0.00    +0.000 C 
BRANCH  17  18
ATOM     18  C   UNL     1       1.781  14.958  18.987  0.00  0.00    +0.000 A 
ATOM     19  C   UNL     1       2.302  16.124  19.564  0.00  0.00    +0.000 A 
ATOM     20  C   UNL     1       3.647  16.420  19.384  0.00  0.00    +0.000 A 
ATOM     21  N   UNL     1       4.511  15.637  18.712  0.00  0.00    +0.000 NA
ATOM     22  C   UNL     1       4.017  14.488  18.209  0.00  0.00    +0.000 A 
ATOM     23  C   UNL     1       2.690  14.105  18.336  0.00  0.00    +0.000 A 
ENDBRANCH  17  18
BRANCH  17  24
ATOM     24  C   UNL     1      -0.535  15.678  19.890  0.00  0.00    +0.000 C 
ATOM     25  O   UNL     1      -0.592  15.673  21.122  0.00  0.00    +0.000 OA
ATOM     26  N   UNL     1      -1.240  16.585  19.112  0.00  0.00    +0.000 N 
ATOM     27  H   UNL     1      -1.337  16.344  18.124  0.00  0.00    +0.000 HD
BRANCH  26  28
ATOM     28  C   UNL     1      -2.050  17.702  19.621  0.00  0.00    +0.000 C 
ATOM     29  C   UNL     1      -1.230  18.550  20.608  0.00  0.00    +0.000 C 
ATOM     30  C   UNL     1      -2.449  18.610  18.439  0.00  0.00    +0.000 C 
ATOM     31  C   UNL     1      -3.337  17.196  20.286  0.00  0.00    +0.000 C 
ENDBRANCH  26  28
ENDBRANCH  17  24
ENDBRANCH   1  17
TORSDOF 7
ENDMDL
