MODEL 1
REMARK VINA RESULT:      -8.6      0.000      0.000
REMARK  Name = 
REMARK  4 active torsions:
REMARK  status: ('A' for Active; 'I' for Inactive)
REMARK    1  A    between atoms: C_1  and  O_2
REMARK    2  A    between atoms: O_2  and  C_3
REMARK    3  A    between atoms: C_6  and  N_7
REMARK    4  A    between atoms: C_9  and  C_10
REMARK                            x       y       z     vdW  Elec       q    Type
REMARK                         _______ _______ _______ _____ _____    ______ ____
ROOT
ATOM      1  N   UNL     1       2.486   6.658  19.202  0.00  0.00    +0.000 N 
ATOM      2  C   UNL     1       3.444   6.721  18.202  0.00  0.00    +0.000 A 
ATOM      3  C   UNL     1       3.947   5.458  17.975  0.00  0.00    +0.000 A 
ATOM      4  N   UNL     1       3.173   4.617  18.809  0.00  0.00    +0.000 N 
ATOM      5  C   UNL     1       2.261   5.355  19.501  0.00  0.00    +0.000 A 
ATOM      6  C   UNL     1       1.185   4.765  20.384  0.00  0.00    +0.000 C 
ATOM      7  C   UNL     1       1.713   3.725  21.356  0.00  0.00    +0.000 C 
ATOM      8  C   UNL     1       1.785   2.340  20.729  0.00  0.00    +0.000 C 
ATOM      9  C   UNL     1       2.097   2.329  19.234  0.00  0.00    +0.000 C 
ATOM     10  C   UNL     1       3.324   3.143  18.856  0.00  0.00    +0.000 C 
ENDROOT
BRANCH   1  14
ATOM     11  C   UNL     1       0.597  10.054  20.957  0.00  0.00    +0.000 A 
ATOM     12  C   UNL     1       0.897   8.931  21.730  0.00  0.00    +0.000 A 
ATOM     13  C   UNL     1       1.534   7.824  21.163  0.00  0.00    +0.000 A 
ATOM     14  C   UNL     1       1.836   7.836  19.802  0.00  0.00    +0.000 A 
ATOM     15  C   UNL     1       1.471   8.917  19.006  0.00  0.00    +0.000 A 
ATOM     16  C   UNL     1       0.879  10.042  19.592  0.00  0.00    +0.000 A 
BRANCH  11  18
ATOM     17  C   UNL     1      -0.734  10.712  22.806  0.00  0.00    +0.000 C 
ATOM     18  O   UNL     1      -0.022  11.071  21.625  0.00  0.00    +0.000 OA
ENDBRANCH  11  18
ENDBRANCH   1  14
BRANCH   3  19
ATOM     19  C   UNL     1       5.074   5.136  17.027  0.00  0.00    +0.000 A 
ATOM     20  C   UNL     1       4.872   5.088  15.643  0.00  0.00    +0.000 A 
ATOM     21  C   UNL     1       5.940   4.843  14.776  0.00  0.00    +0.000 A 
ATOM     22  C   UNL     1       7.215   4.619  15.285  0.00  0.00    +0.000 A 
ATOM     23  C   UNL     1       7.422   4.624  16.660  0.00  0.00    +0.000 A 
ATOM     24  C   UNL     1       6.357   4.878  17.532  0.00  0.00    +0.000 A 
ENDBRANCH   3  19
TORSDOF 3
ENDMDL
MODEL 2
REMARK VINA RESULT:      -8.5      0.180      1.399
REMARK  Name = 
REMARK  4 active torsions:
REMARK  status: ('A' for Active; 'I' for Inactive)
REMARK    1  A    between atoms: C_1  and  O_2
REMARK    2  A    between atoms: O_2  and  C_3
REMARK    3  A    between atoms: C_6  and  N_7
REMARK    4  A    between atoms: C_9  and  C_10
REMARK                            x       y       z     vdW  Elec       q    Type
REMARK                         _______ _______ _______ _____ _____    ______ ____
ROOT
ATOM      1  N   UNL     1       2.475   6.716  19.303  0.00  0.00    +0.000 N 
ATOM      2  C   UNL     1       3.452   6.820  18.324  0.00  0.00    +0.000 A 
ATOM      3  C   UNL     1       3.981   5.571  18.078  0.00  0.00    +0.000 A 
ATOM      4  N   UNL     1       3.206   4.697  18.876  0.00  0.00    +0.000 N 
ATOM      5  C   UNL     1       2.268   5.403  19.566  0.00  0.00    +0.000 A 
ATOM      6  C   UNL     1       1.185   4.773  20.413  0.00  0.00    +0.000 C 
ATOM      7  C   UNL     1       1.713   3.719  21.371  0.00  0.00    +0.000 C 
ATOM      8  C   UNL     1       1.822   2.351  20.713  0.00  0.00    +0.000 C 
ATOM      9  C   UNL     1       2.164   2.382  19.225  0.00  0.00    +0.000 C 
ATOM     10  C   UNL     1       3.383   3.225  18.891  0.00  0.00    +0.000 C 
ENDROOT
BRANCH   1  14
ATOM     11  C   UNL     1       0.508  10.063  21.066  0.00  0.00    +0.000 A 
ATOM     12  C   UNL     1       0.808  10.054  19.702  0.00  0.00    +0.000 A 
ATOM     13  C   UNL     1       1.435   8.950  19.117  0.00  0.00    +0.000 A 
ATOM     14  C   UNL     1       1.793   7.867  19.918  0.00  0.00    +0.000 A 
ATOM     15  C   UNL     1       1.571   7.899  21.291  0.00  0.00    +0.000 A 
ATOM     16  C   UNL     1       0.897   8.986  21.861  0.00  0.00    +0.000 A 
BRANCH  11  18
ATOM     17  C   UNL     1      -0.895  11.060  22.698  0.00  0.00    +0.000 C 
ATOM     18  O   UNL     1      -0.106  11.196  21.519  0.00  0.00    +0.000 OA
ENDBRANCH  11  18
ENDBRANCH   1  14
BRANCH   3  19
ATOM     19  C   UNL     1       5.132   5.292  17.145  0.00  0.00    +0.000 A 
ATOM     20  C   UNL     1       6.372   4.856  17.624  0.00  0.00    +0.000 A 
ATOM     21  C   UNL     1       7.410   4.551  16.740  0.00  0.00    +0.000 A 
ATOM     22  C   UNL     1       7.227   4.701  15.369  0.00  0.00    +0.000 A 
ATOM     23  C   UNL     1       6.012   5.173  14.882  0.00  0.00    +0.000 A 
ATOM     24  C   UNL     1       4.968   5.472  15.763  0.00  0.00    +0.000 A 
ENDBRANCH   3  19
TORSDOF 3
ENDMDL
MODEL 3
REMARK VINA RESULT:      -8.1      2.658      6.984
REMARK  Name = 
REMARK  4 active torsions:
REMARK  status: ('A' for Active; 'I' for Inactive)
REMARK    1  A    between atoms: C_1  and  O_2
REMARK    2  A    between atoms: O_2  and  C_3
REMARK    3  A    between atoms: C_6  and  N_7
REMARK    4  A    between atoms: C_9  and  C_10
REMARK                            x       y       z     vdW  Elec       q    Type
REMARK                         _______ _______ _______ _____ _____    ______ ____
ROOT
ATOM      1  N   UNL     1       3.915   5.863  18.316  0.00  0.00    +0.000 N 
ATOM      2  C   UNL     1       3.439   7.108  18.696  0.00  0.00    +0.000 A 
ATOM      3  C   UNL     1       2.383   6.944  19.567  0.00  0.00    +0.000 A 
ATOM      4  N   UNL     1       2.314   5.547  19.775  0.00  0.00    +0.000 N 
ATOM      5  C   UNL     1       3.281   4.918  19.053  0.00  0.00    +0.000 A 
ATOM      6  C   UNL     1       3.580   3.438  19.141  0.00  0.00    +0.000 C 
ATOM      7  C   UNL     1       2.338   2.570  19.033  0.00  0.00    +0.000 C 
ATOM      8  C   UNL     1       1.651   2.386  20.378  0.00  0.00    +0.000 C 
ATOM      9  C   UNL     1       1.762   3.579  21.323  0.00  0.00    +0.000 C 
ATOM     10  C   UNL     1       1.349   4.901  20.697  0.00  0.00    +0.000 C 
ENDROOT
BRANCH   1  14
ATOM     11  C   UNL     1       6.914   5.262  15.345  0.00  0.00    +0.000 A 
ATOM     12  C   UNL     1       7.185   6.024  16.484  0.00  0.00    +0.000 A 
ATOM     13  C   UNL     1       6.212   6.207  17.469  0.00  0.00    +0.000 A 
ATOM     14  C   UNL     1       4.947   5.649  17.288  0.00  0.00    +0.000 A 
ATOM     15  C   UNL     1       4.641   4.955  16.121  0.00  0.00    +0.000 A 
ATOM     16  C   UNL     1       5.638   4.734  15.163  0.00  0.00    +0.000 A 
BRANCH  11  18
ATOM     17  C   UNL     1       7.588   5.001  13.087  0.00  0.00    +0.000 C 
ATOM     18  O   UNL     1       7.946   5.155  14.458  0.00  0.00    +0.000 OA
ENDBRANCH  11  18
ENDBRANCH   1  14
BRANCH   3  19
ATOM     19  C   UNL     1       1.545   8.066  20.125  0.00  0.00    +0.000 A 
ATOM     20  C   UNL     1       1.125   8.070  21.460  0.00  0.00    +0.000 A 
ATOM     21  C   UNL     1       0.395   9.145  21.973  0.00  0.00    +0.000 A 
ATOM     22  C   UNL     1       0.056  10.215  21.152  0.00  0.00    +0.000 A 
ATOM     23  C   UNL     1       0.432  10.205  19.812  0.00  0.00    +0.000 A 
ATOM     24  C   UNL     1       1.170   9.135  19.296  0.00  0.00    +0.000 A 
ENDBRANCH   3  19
TORSDOF 3
ENDMDL
MODEL 4
REMARK VINA RESULT:      -8.0      2.656      6.950
REMARK  Name = 
REMARK  4 active torsions:
REMARK  status: ('A' for Active; 'I' for Inactive)
REMARK    1  A    between atoms: C_1  and  O_2
REMARK    2  A    between atoms: O_2  and  C_3
REMARK    3  A    between atoms: C_6  and  N_7
REMARK    4  A    between atoms: C_9  and  C_10
REMARK                            x       y       z     vdW  Elec       q    Type
REMARK                         _______ _______ _______ _____ _____    ______ ____
ROOT
ATOM      1  N   UNL     1       3.889   5.969  18.384  0.00  0.00    +0.000 N 
ATOM      2  C   UNL     1       3.404   7.205  18.784  0.00  0.00    +0.000 A 
ATOM      3  C   UNL     1       2.322   7.019  19.618  0.00  0.00    +0.000 A 
ATOM      4  N   UNL     1       2.244   5.617  19.785  0.00  0.00    +0.000 N 
ATOM      5  C   UNL     1       3.232   5.006  19.075  0.00  0.00    +0.000 A 
ATOM      6  C   UNL     1       3.526   3.523  19.131  0.00  0.00    +0.000 C 
ATOM      7  C   UNL     1       2.287   2.662  18.962  0.00  0.00    +0.000 C 
ATOM      8  C   UNL     1       1.558   2.442  20.280  0.00  0.00    +0.000 C 
ATOM      9  C   UNL     1       1.643   3.609  21.261  0.00  0.00    +0.000 C 
ATOM     10  C   UNL     1       1.251   4.948  20.659  0.00  0.00    +0.000 C 
ENDROOT
BRANCH   1  14
ATOM     11  C   UNL     1       6.955   5.406  15.475  0.00  0.00    +0.000 A 
ATOM     12  C   UNL     1       5.679   4.874  15.274  0.00  0.00    +0.000 A 
ATOM     13  C   UNL     1       4.666   5.073  16.215  0.00  0.00    +0.000 A 
ATOM     14  C   UNL     1       4.952   5.781  17.382  0.00  0.00    +0.000 A 
ATOM     15  C   UNL     1       6.239   6.247  17.629  0.00  0.00    +0.000 A 
ATOM     16  C   UNL     1       7.234   6.087  16.658  0.00  0.00    +0.000 A 
BRANCH  11  18
ATOM     17  C   UNL     1       7.315   4.839  13.200  0.00  0.00    +0.000 C 
ATOM     18  O   UNL     1       7.856   5.145  14.483  0.00  0.00    +0.000 OA
ENDBRANCH  11  18
ENDBRANCH   1  14
BRANCH   3  19
ATOM     19  C   UNL     1       1.469   8.127  20.181  0.00  0.00    +0.000 A 
ATOM     20  C   UNL     1       0.990   9.164  19.373  0.00  0.00    +0.000 A 
ATOM     21  C   UNL     1       0.157  10.152  19.901  0.00  0.00    +0.000 A 
ATOM     22  C   UNL     1      -0.188  10.128  21.248  0.00  0.00    +0.000 A 
ATOM     23  C   UNL     1       0.313   9.126  22.073  0.00  0.00    +0.000 A 
ATOM     24  C   UNL     1       1.142   8.130  21.546  0.00  0.00    +0.000 A 
ENDBRANCH   3  19
TORSDOF 3
ENDMDL
MODEL 5
REMARK VINA RESULT:      -7.8      2.771      7.073
REMARK  Name = 
REMARK  4 active torsions:
REMARK  status: ('A' for Active; 'I' for Inactive)
REMARK    1  A    between atoms: C_1  and  O_2
REMARK    2  A    between atoms: O_2  and  C_3
REMARK    3  A    between atoms: C_6  and  N_7
REMARK    4  A    between atoms: C_9  and  C_10
REMARK                            x       y       z     vdW  Elec       q    Type
REMARK                         _______ _______ _______ _____ _____    ______ ____
ROOT
ATOM      1  N   UNL     1       3.963   5.619  17.979  0.00  0.00    +0.000 N 
ATOM      2  C   UNL     1       3.527   6.903  18.269  0.00  0.00    +0.000 A 
ATOM      3  C   UNL     1       2.584   6.845  19.273  0.00  0.00    +0.000 A 
ATOM      4  N   UNL     1       2.551   5.481  19.646  0.00  0.00    +0.000 N 
ATOM      5  C   UNL     1       3.430   4.768  18.889  0.00  0.00    +0.000 A 
ATOM      6  C   UNL     1       3.749   3.306  19.109  0.00  0.00    +0.000 C 
ATOM      7  C   UNL     1       2.510   2.439  19.250  0.00  0.00    +0.000 C 
ATOM      8  C   UNL     1       1.990   2.413  20.680  0.00  0.00    +0.000 C 
ATOM      9  C   UNL     1       2.204   3.706  21.463  0.00  0.00    +0.000 C 
ATOM     10  C   UNL     1       1.709   4.950  20.744  0.00  0.00    +0.000 C 
ENDROOT
BRANCH   1  14
ATOM     11  C   UNL     1       6.567   4.626  14.751  0.00  0.00    +0.000 A 
ATOM     12  C   UNL     1       5.301   4.043  14.847  0.00  0.00    +0.000 A 
ATOM     13  C   UNL     1       4.437   4.381  15.892  0.00  0.00    +0.000 A 
ATOM     14  C   UNL     1       4.866   5.283  16.865  0.00  0.00    +0.000 A 
ATOM     15  C   UNL     1       6.154   5.809  16.823  0.00  0.00    +0.000 A 
ATOM     16  C   UNL     1       6.994   5.504  15.745  0.00  0.00    +0.000 A 
BRANCH  11  18
ATOM     17  C   UNL     1       6.603   3.632  12.599  0.00  0.00    +0.000 C 
ATOM     18  O   UNL     1       7.316   4.217  13.685  0.00  0.00    +0.000 OA
ENDBRANCH  11  18
ENDBRANCH   1  14
BRANCH   3  19
ATOM     19  C   UNL     1       1.810   8.028  19.796  0.00  0.00    +0.000 A 
ATOM     20  C   UNL     1       1.442   8.123  21.142  0.00  0.00    +0.000 A 
ATOM     21  C   UNL     1       0.773   9.252  21.620  0.00  0.00    +0.000 A 
ATOM     22  C   UNL     1       0.443  10.288  20.752  0.00  0.00    +0.000 A 
ATOM     23  C   UNL     1       0.768  10.189  19.403  0.00  0.00    +0.000 A 
ATOM     24  C   UNL     1       1.445   9.064  18.922  0.00  0.00    +0.000 A 
ENDBRANCH   3  19
TORSDOF 3
ENDMDL
MODEL 6
REMARK VINA RESULT:      -7.6      2.842      7.077
REMARK  Name = 
REMARK  4 active torsions:
REMARK  status: ('A' for Active; 'I' for Inactive)
REMARK    1  A    between atoms: C_1  and  O_2
REMARK    2  A    between atoms: O_2  and  C_3
REMARK    3  A    between atoms: C_6  and  N_7
REMARK    4  A    between atoms: C_9  and  C_10
REMARK                            x       y       z     vdW  Elec       q    Type
REMARK                         _______ _______ _______ _____ _____    ______ ____
ROOT
ATOM      1  N   UNL     1       4.046   5.502  17.514  0.00  0.00    +0.000 N 
ATOM      2  C   UNL     1       3.683   6.749  18.000  0.00  0.00    +0.000 A 
ATOM      3  C   UNL     1       2.662   6.601  18.914  0.00  0.00    +0.000 A 
ATOM      4  N   UNL     1       2.500   5.201  19.035  0.00  0.00    +0.000 N 
ATOM      5  C   UNL     1       3.381   4.556  18.222  0.00  0.00    +0.000 A 
ATOM      6  C   UNL     1       3.573   3.056  18.198  0.00  0.00    +0.000 C 
ATOM      7  C   UNL     1       2.267   2.288  18.101  0.00  0.00    +0.000 C 
ATOM      8  C   UNL     1       1.635   2.061  19.467  0.00  0.00    +0.000 C 
ATOM      9  C   UNL     1       1.881   3.176  20.480  0.00  0.00    +0.000 C 
ATOM     10  C   UNL     1       1.537   4.563  19.964  0.00  0.00    +0.000 C 
ENDROOT
BRANCH   1  14
ATOM     11  C   UNL     1       6.839   4.897  14.350  0.00  0.00    +0.000 A 
ATOM     12  C   UNL     1       7.175   5.688  15.452  0.00  0.00    +0.000 A 
ATOM     13  C   UNL     1       6.269   5.872  16.500  0.00  0.00    +0.000 A 
ATOM     14  C   UNL     1       5.007   5.286  16.420  0.00  0.00    +0.000 A 
ATOM     15  C   UNL     1       4.634   4.562  15.292  0.00  0.00    +0.000 A 
ATOM     16  C   UNL     1       5.564   4.340  14.269  0.00  0.00    +0.000 A 
BRANCH  11  18
ATOM     17  C   UNL     1       7.390   4.306  12.121  0.00  0.00    +0.000 C 
ATOM     18  O   UNL     1       7.808   4.792  13.394  0.00  0.00    +0.000 OA
ENDBRANCH  11  18
ENDBRANCH   1  14
BRANCH   3  19
ATOM     19  C   UNL     1       1.938   7.738  19.588  0.00  0.00    +0.000 A 
ATOM     20  C   UNL     1       1.547   8.878  18.878  0.00  0.00    +0.000 A 
ATOM     21  C   UNL     1       0.829   9.898  19.508  0.00  0.00    +0.000 A 
ATOM     22  C   UNL     1       0.516   9.800  20.859  0.00  0.00    +0.000 A 
ATOM     23  C   UNL     1       0.934   8.690  21.587  0.00  0.00    +0.000 A 
ATOM     24  C   UNL     1       1.646   7.663  20.959  0.00  0.00    +0.000 A 
ENDBRANCH   3  19
TORSDOF 3
ENDMDL
MODEL 7
REMARK VINA RESULT:      -6.8      3.652      9.162
REMARK  Name = 
REMARK  4 active torsions:
REMARK  status: ('A' for Active; 'I' for Inactive)
REMARK    1  A    between atoms: C_1  and  O_2
REMARK    2  A    between atoms: O_2  and  C_3
REMARK    3  A    between atoms: C_6  and  N_7
REMARK    4  A    between atoms: C_9  and  C_10
REMARK                            x       y       z     vdW  Elec       q    Type
REMARK                         _______ _______ _______ _____ _____    ______ ____
ROOT
ATOM      1  N   UNL     1       0.134  10.344  19.807  0.00  0.00    +0.000 N 
ATOM      2  C   UNL     1       0.353  11.178  20.893  0.00  0.00    +0.000 A 
ATOM      3  C   UNL     1      -0.621  12.153  20.921  0.00  0.00    +0.000 A 
ATOM      4  N   UNL     1      -1.496  11.805  19.865  0.00  0.00    +0.000 N 
ATOM      5  C   UNL     1      -1.050  10.680  19.240  0.00  0.00    +0.000 A 
ATOM      6  C   UNL     1      -1.812   9.953  18.154  0.00  0.00    +0.000 C 
ATOM      7  C   UNL     1      -2.315  10.876  17.058  0.00  0.00    +0.000 C 
ATOM      8  C   UNL     1      -3.657  11.502  17.408  0.00  0.00    +0.000 C 
ATOM      9  C   UNL     1      -3.869  11.772  18.896  0.00  0.00    +0.000 C 
ATOM     10  C   UNL     1      -2.738  12.549  19.548  0.00  0.00    +0.000 C 
ENDROOT
BRANCH   1  14
ATOM     11  C   UNL     1       2.806   7.248  18.603  0.00  0.00    +0.000 A 
ATOM     12  C   UNL     1       2.263   7.255  19.890  0.00  0.00    +0.000 A 
ATOM     13  C   UNL     1       1.371   8.257  20.282  0.00  0.00    +0.000 A 
ATOM     14  C   UNL     1       1.055   9.276  19.384  0.00  0.00    +0.000 A 
ATOM     15  C   UNL     1       1.651   9.321  18.128  0.00  0.00    +0.000 A 
ATOM     16  C   UNL     1       2.504   8.287  17.726  0.00  0.00    +0.000 A 
BRANCH  11  18
ATOM     17  C   UNL     1       3.943   5.335  19.424  0.00  0.00    +0.000 C 
ATOM     18  O   UNL     1       3.662   6.216  18.340  0.00  0.00    +0.000 OA
ENDBRANCH  11  18
ENDBRANCH   1  14
BRANCH   3  19
ATOM     19  C   UNL     1      -0.665  13.299  21.899  0.00  0.00    +0.000 A 
ATOM     20  C   UNL     1      -1.480  13.258  23.035  0.00  0.00    +0.000 A 
ATOM     21  C   UNL     1      -1.467  14.306  23.959  0.00  0.00    +0.000 A 
ATOM     22  C   UNL     1      -0.657  15.417  23.744  0.00  0.00    +0.000 A 
ATOM     23  C   UNL     1       0.128  15.488  22.598  0.00  0.00    +0.000 A 
ATOM     24  C   UNL     1       0.124  14.437  21.675  0.00  0.00    +0.000 A 
ENDBRANCH   3  19
TORSDOF 3
ENDMDL
MODEL 8
REMARK VINA RESULT:      -6.8      3.639      9.196
REMARK  Name = 
REMARK  4 active torsions:
REMARK  status: ('A' for Active; 'I' for Inactive)
REMARK    1  A    between atoms: C_1  and  O_2
REMARK    2  A    between atoms: O_2  and  C_3
REMARK    3  A    between atoms: C_6  and  N_7
REMARK    4  A    between atoms: C_9  and  C_10
REMARK                            x       y       z     vdW  Elec       q    Type
REMARK                         _______ _______ _______ _____ _____    ______ ____
ROOT
ATOM      1  N   UNL     1       0.177  10.353  19.836  0.00  0.00    +0.000 N 
ATOM      2  C   UNL     1       0.422  11.181  20.921  0.00  0.00    +0.000 A 
ATOM      3  C   UNL     1      -0.544  12.163  20.968  0.00  0.00    +0.000 A 
ATOM      4  N   UNL     1      -1.440  11.825  19.926  0.00  0.00    +0.000 N 
ATOM      5  C   UNL     1      -1.014  10.699  19.290  0.00  0.00    +0.000 A 
ATOM      6  C   UNL     1      -1.799   9.983  18.215  0.00  0.00    +0.000 C 
ATOM      7  C   UNL     1      -2.314  10.914  17.131  0.00  0.00    +0.000 C 
ATOM      8  C   UNL     1      -3.645  11.549  17.507  0.00  0.00    +0.000 C 
ATOM      9  C   UNL     1      -3.829  11.814  18.999  0.00  0.00    +0.000 C 
ATOM     10  C   UNL     1      -2.681  12.581  19.634  0.00  0.00    +0.000 C 
ENDROOT
BRANCH   1  14
ATOM     11  C   UNL     1       2.805   7.240  18.574  0.00  0.00    +0.000 A 
ATOM     12  C   UNL     1       2.265   7.235  19.863  0.00  0.00    +0.000 A 
ATOM     13  C   UNL     1       1.388   8.242  20.273  0.00  0.00    +0.000 A 
ATOM     14  C   UNL     1       1.083   9.279  19.392  0.00  0.00    +0.000 A 
ATOM     15  C   UNL     1       1.676   9.336  18.135  0.00  0.00    +0.000 A 
ATOM     16  C   UNL     1       2.513   8.297  17.714  0.00  0.00    +0.000 A 
BRANCH  11  18
ATOM     17  C   UNL     1       4.591   6.419  17.248  0.00  0.00    +0.000 C 
ATOM     18  O   UNL     1       3.645   6.202  18.292  0.00  0.00    +0.000 OA
ENDBRANCH  11  18
ENDBRANCH   1  14
BRANCH   3  19
ATOM     19  C   UNL     1      -0.563  13.305  21.952  0.00  0.00    +0.000 A 
ATOM     20  C   UNL     1       0.214  14.452  21.754  0.00  0.00    +0.000 A 
ATOM     21  C   UNL     1       0.142  15.523  22.648  0.00  0.00    +0.000 A 
ATOM     22  C   UNL     1      -0.688  15.450  23.761  0.00  0.00    +0.000 A 
ATOM     23  C   UNL     1      -1.436  14.299  23.992  0.00  0.00    +0.000 A 
ATOM     24  C   UNL     1      -1.373  13.228  23.095  0.00  0.00    +0.000 A 
ENDBRANCH   3  19
TORSDOF 3
ENDMDL
