MODEL 1
REMARK VINA RESULT:      -8.3      0.000      0.000
REMARK  Name = 
REMARK  2 active torsions:
REMARK  status: ('A' for Active; 'I' for Inactive)
REMARK    1  A    between atoms: C_2  and  C_3
REMARK    2  A    between atoms: C_15  and  C_16
REMARK                            x       y       z     vdW  Elec       q    Type
REMARK                         _______ _______ _______ _____ _____    ______ ____
ROOT
ATOM      1  O   UNL     1       1.782   5.657  21.200  0.00  0.00    +0.000 OA
ATOM      2  C   UNL     1       2.031   6.446  20.285  0.00  0.00    +0.000 C 
ATOM      3  N   UNL     1       1.663   7.785  20.394  0.00  0.00    +0.000 N 
ATOM      4  C   UNL     1       1.154   8.344  21.629  0.00  0.00    +0.000 C 
ATOM      5  C   UNL     1       0.044   9.272  21.178  0.00  0.00    +0.000 C 
ATOM      6  C   UNL     1       0.571   9.830  19.843  0.00  0.00    +0.000 C 
ATOM      7  C   UNL     1       1.417   8.680  19.267  0.00  0.00    +0.000 C 
ENDROOT
BRANCH   2   8
ATOM      8  C   UNL     1       2.733   6.046  19.065  0.00  0.00    +0.000 A 
ATOM      9  N   UNL     1       3.458   6.876  18.339  0.00  0.00    +0.000 NA
ATOM     10  C   UNL     1       4.124   6.172  17.353  0.00  0.00    +0.000 A 
ATOM     11  C   UNL     1       5.060   6.711  16.450  0.00  0.00    +0.000 A 
ATOM     12  C   UNL     1       5.674   5.881  15.507  0.00  0.00    +0.000 A 
ATOM     13  C   UNL     1       5.348   4.530  15.443  0.00  0.00    +0.000 A 
ATOM     14  C   UNL     1       4.418   3.971  16.325  0.00  0.00    +0.000 A 
ATOM     15  C   UNL     1       3.829   4.809  17.287  0.00  0.00    +0.000 A 
ATOM     16  S   UNL     1       2.717   4.415  18.543  0.00  0.00    +0.000 S 
ENDBRANCH   2   8
BRANCH   6  17
ATOM     17  C   UNL     1      -0.538  10.328  18.939  0.00  0.00    +0.000 A 
ATOM     18  C   UNL     1      -1.327  11.427  19.344  0.00  0.00    +0.000 A 
ATOM     19  C   UNL     1      -2.397  11.881  18.563  0.00  0.00    +0.000 A 
ATOM     20  C   UNL     1      -2.661  11.215  17.386  0.00  0.00    +0.000 A 
ATOM     21  C   UNL     1      -1.896  10.154  16.972  0.00  0.00    +0.000 A 
ATOM     22  C   UNL     1      -0.829   9.694  17.716  0.00  0.00    +0.000 A 
ATOM     23  O   UNL     1      -2.326   9.631  15.793  0.00  0.00    +0.000 OA
ATOM     24  C   UNL     1      -3.478  10.461  15.536  0.00  0.00    +0.000 C 
ATOM     25  O   UNL     1      -3.672  11.497  16.521  0.00  0.00    +0.000 OA
ENDBRANCH   6  17
TORSDOF 2
ENDMDL
MODEL 2
REMARK VINA RESULT:      -8.1      2.413      3.551
REMARK  Name = 
REMARK  2 active torsions:
REMARK  status: ('A' for Active; 'I' for Inactive)
REMARK    1  A    between atoms: C_2  and  C_3
REMARK    2  A    between atoms: C_15  and  C_16
REMARK                            x       y       z     vdW  Elec       q    Type
REMARK                         _______ _______ _______ _____ _____    ______ ____
ROOT
ATOM      1  O   UNL     1       2.608   2.605  19.119  0.00  0.00    +0.000 OA
ATOM      2  C   UNL     1       3.218   3.666  18.970  0.00  0.00    +0.000 C 
ATOM      3  N   UNL     1       2.959   4.747  19.811  0.00  0.00    +0.000 N 
ATOM      4  C   UNL     1       2.122   4.622  20.987  0.00  0.00    +0.000 C 
ATOM      5  C   UNL     1       1.315   5.905  20.995  0.00  0.00    +0.000 C 
ATOM      6  C   UNL     1       2.304   6.948  20.444  0.00  0.00    +0.000 C 
ATOM      7  C   UNL     1       3.184   6.148  19.468  0.00  0.00    +0.000 C 
ENDROOT
BRANCH   2   8
ATOM      8  C   UNL     1       4.246   3.852  17.946  0.00  0.00    +0.000 A 
ATOM      9  N   UNL     1       4.024   3.685  16.656  0.00  0.00    +0.000 NA
ATOM     10  C   UNL     1       5.132   4.093  15.937  0.00  0.00    +0.000 A 
ATOM     11  C   UNL     1       5.224   4.147  14.533  0.00  0.00    +0.000 A 
ATOM     12  C   UNL     1       6.404   4.595  13.931  0.00  0.00    +0.000 A 
ATOM     13  C   UNL     1       7.494   4.966  14.712  0.00  0.00    +0.000 A 
ATOM     14  C   UNL     1       7.430   4.916  16.108  0.00  0.00    +0.000 A 
ATOM     15  C   UNL     1       6.230   4.492  16.702  0.00  0.00    +0.000 A 
ATOM     16  S   UNL     1       5.815   4.390  18.371  0.00  0.00    +0.000 S 
ENDBRANCH   2   8
BRANCH   6  17
ATOM     17  C   UNL     1       1.609   8.153  19.843  0.00  0.00    +0.000 A 
ATOM     18  C   UNL     1       1.889   8.527  18.511  0.00  0.00    +0.000 A 
ATOM     19  C   UNL     1       1.311   9.667  17.938  0.00  0.00    +0.000 A 
ATOM     20  C   UNL     1       0.462  10.419  18.720  0.00  0.00    +0.000 A 
ATOM     21  C   UNL     1       0.170  10.062  20.013  0.00  0.00    +0.000 A 
ATOM     22  C   UNL     1       0.716   8.938  20.598  0.00  0.00    +0.000 A 
ATOM     23  O   UNL     1      -0.677  10.939  20.616  0.00  0.00    +0.000 OA
ATOM     24  C   UNL     1      -0.848  11.912  19.564  0.00  0.00    +0.000 C 
ATOM     25  O   UNL     1      -0.162  11.566  18.343  0.00  0.00    +0.000 OA
ENDBRANCH   6  17
TORSDOF 2
ENDMDL
MODEL 3
REMARK VINA RESULT:      -7.8      0.981      1.570
REMARK  Name = 
REMARK  2 active torsions:
REMARK  status: ('A' for Active; 'I' for Inactive)
REMARK    1  A    between atoms: C_2  and  C_3
REMARK    2  A    between atoms: C_15  and  C_16
REMARK                            x       y       z     vdW  Elec       q    Type
REMARK                         _______ _______ _______ _____ _____    ______ ____
ROOT
ATOM      1  O   UNL     1       1.820   6.692  21.481  0.00  0.00    +0.000 OA
ATOM      2  C   UNL     1       1.897   7.257  20.388  0.00  0.00    +0.000 C 
ATOM      3  N   UNL     1       1.381   8.541  20.226  0.00  0.00    +0.000 N 
ATOM      4  C   UNL     1       0.911   9.328  21.347  0.00  0.00    +0.000 C 
ATOM      5  C   UNL     1      -0.336  10.008  20.817  0.00  0.00    +0.000 C 
ATOM      6  C   UNL     1       0.010  10.277  19.341  0.00  0.00    +0.000 C 
ATOM      7  C   UNL     1       0.939   9.112  18.957  0.00  0.00    +0.000 C 
ENDROOT
BRANCH   2   8
ATOM      8  C   UNL     1       2.541   6.648  19.225  0.00  0.00    +0.000 A 
ATOM      9  N   UNL     1       3.326   7.311  18.398  0.00  0.00    +0.000 NA
ATOM     10  C   UNL     1       3.911   6.432  17.505  0.00  0.00    +0.000 A 
ATOM     11  C   UNL     1       4.878   6.768  16.538  0.00  0.00    +0.000 A 
ATOM     12  C   UNL     1       5.399   5.774  15.703  0.00  0.00    +0.000 A 
ATOM     13  C   UNL     1       4.951   4.461  15.809  0.00  0.00    +0.000 A 
ATOM     14  C   UNL     1       3.987   4.103  16.757  0.00  0.00    +0.000 A 
ATOM     15  C   UNL     1       3.492   5.104  17.610  0.00  0.00    +0.000 A 
ATOM     16  S   UNL     1       2.369   4.973  18.910  0.00  0.00    +0.000 S 
ENDBRANCH   2   8
BRANCH   6  17
ATOM     17  C   UNL     1      -1.220  10.433  18.471  0.00  0.00    +0.000 A 
ATOM     18  C   UNL     1      -1.267   9.799  17.210  0.00  0.00    +0.000 A 
ATOM     19  C   UNL     1      -2.362   9.965  16.352  0.00  0.00    +0.000 A 
ATOM     20  C   UNL     1      -3.393  10.775  16.776  0.00  0.00    +0.000 A 
ATOM     21  C   UNL     1      -3.368  11.388  18.003  0.00  0.00    +0.000 A 
ATOM     22  C   UNL     1      -2.307  11.232  18.873  0.00  0.00    +0.000 A 
ATOM     23  O   UNL     1      -4.471  12.151  18.226  0.00  0.00    +0.000 OA
ATOM     24  C   UNL     1      -5.172  11.979  16.977  0.00  0.00    +0.000 C 
ATOM     25  O   UNL     1      -4.514  11.073  16.068  0.00  0.00    +0.000 OA
ENDBRANCH   6  17
TORSDOF 2
ENDMDL
MODEL 4
REMARK VINA RESULT:      -7.7      3.457      7.969
REMARK  Name = 
REMARK  2 active torsions:
REMARK  status: ('A' for Active; 'I' for Inactive)
REMARK    1  A    between atoms: C_2  and  C_3
REMARK    2  A    between atoms: C_15  and  C_16
REMARK                            x       y       z     vdW  Elec       q    Type
REMARK                         _______ _______ _______ _____ _____    ______ ____
ROOT
ATOM      1  O   UNL     1       2.423   4.762  21.354  0.00  0.00    +0.000 OA
ATOM      2  C   UNL     1       2.347   5.330  20.262  0.00  0.00    +0.000 C 
ATOM      3  N   UNL     1       2.582   4.621  19.086  0.00  0.00    +0.000 N 
ATOM      4  C   UNL     1       2.736   3.181  19.074  0.00  0.00    +0.000 C 
ATOM      5  C   UNL     1       3.854   2.944  18.078  0.00  0.00    +0.000 C 
ATOM      6  C   UNL     1       3.628   4.042  17.024  0.00  0.00    +0.000 C 
ATOM      7  C   UNL     1       3.030   5.212  17.828  0.00  0.00    +0.000 C 
ENDROOT
BRANCH   2   8
ATOM      8  C   UNL     1       1.992   6.743  20.127  0.00  0.00    +0.000 A 
ATOM      9  N   UNL     1       2.314   7.476  19.079  0.00  0.00    +0.000 NA
ATOM     10  C   UNL     1       1.699   8.711  19.169  0.00  0.00    +0.000 A 
ATOM     11  C   UNL     1       1.738   9.720  18.187  0.00  0.00    +0.000 A 
ATOM     12  C   UNL     1       1.057  10.923  18.399  0.00  0.00    +0.000 A 
ATOM     13  C   UNL     1       0.359  11.136  19.584  0.00  0.00    +0.000 A 
ATOM     14  C   UNL     1       0.310  10.152  20.577  0.00  0.00    +0.000 A 
ATOM     15  C   UNL     1       0.974   8.936  20.341  0.00  0.00    +0.000 A 
ATOM     16  S   UNL     1       1.041   7.521  21.321  0.00  0.00    +0.000 S 
ENDBRANCH   2   8
BRANCH   6  17
ATOM     17  C   UNL     1       4.884   4.374  16.245  0.00  0.00    +0.000 A 
ATOM     18  C   UNL     1       5.896   5.150  16.851  0.00  0.00    +0.000 A 
ATOM     19  C   UNL     1       7.046   5.526  16.146  0.00  0.00    +0.000 A 
ATOM     20  C   UNL     1       7.157   5.117  14.835  0.00  0.00    +0.000 A 
ATOM     21  C   UNL     1       6.189   4.352  14.235  0.00  0.00    +0.000 A 
ATOM     22  C   UNL     1       5.051   3.958  14.911  0.00  0.00    +0.000 A 
ATOM     23  O   UNL     1       6.481   4.065  12.938  0.00  0.00    +0.000 OA
ATOM     24  C   UNL     1       7.726   4.776  12.781  0.00  0.00    +0.000 C 
ATOM     25  O   UNL     1       8.184   5.411  13.993  0.00  0.00    +0.000 OA
ENDBRANCH   6  17
TORSDOF 2
ENDMDL
MODEL 5
REMARK VINA RESULT:      -7.7      2.241      3.303
REMARK  Name = 
REMARK  2 active torsions:
REMARK  status: ('A' for Active; 'I' for Inactive)
REMARK    1  A    between atoms: C_2  and  C_3
REMARK    2  A    between atoms: C_15  and  C_16
REMARK                            x       y       z     vdW  Elec       q    Type
REMARK                         _______ _______ _______ _____ _____    ______ ____
ROOT
ATOM      1  O   UNL     1       1.714   8.881  22.351  0.00  0.00    +0.000 OA
ATOM      2  C   UNL     1       1.521   8.713  21.145  0.00  0.00    +0.000 C 
ATOM      3  N   UNL     1       1.127   9.783  20.344  0.00  0.00    +0.000 N 
ATOM      4  C   UNL     1       1.109  11.146  20.834  0.00  0.00    +0.000 C 
ATOM      5  C   UNL     1      -0.155  11.730  20.236  0.00  0.00    +0.000 C 
ATOM      6  C   UNL     1      -0.243  11.047  18.860  0.00  0.00    +0.000 C 
ATOM      7  C   UNL     1       0.389   9.662  19.090  0.00  0.00    +0.000 C 
ENDROOT
BRANCH   2   8
ATOM      8  C   UNL     1       1.710   7.422  20.485  0.00  0.00    +0.000 A 
ATOM      9  N   UNL     1       1.244   6.285  20.966  0.00  0.00    +0.000 NA
ATOM     10  C   UNL     1       1.436   5.275  20.041  0.00  0.00    +0.000 A 
ATOM     11  C   UNL     1       0.983   3.948  20.169  0.00  0.00    +0.000 A 
ATOM     12  C   UNL     1       1.235   3.026  19.148  0.00  0.00    +0.000 A 
ATOM     13  C   UNL     1       1.950   3.408  18.017  0.00  0.00    +0.000 A 
ATOM     14  C   UNL     1       2.416   4.718  17.869  0.00  0.00    +0.000 A 
ATOM     15  C   UNL     1       2.132   5.643  18.887  0.00  0.00    +0.000 A 
ATOM     16  S   UNL     1       2.500   7.325  18.968  0.00  0.00    +0.000 S 
ENDBRANCH   2   8
BRANCH   6  17
ATOM     17  C   UNL     1      -1.653  11.026  18.306  0.00  0.00    +0.000 A 
ATOM     18  C   UNL     1      -1.930  10.299  17.128  0.00  0.00    +0.000 A 
ATOM     19  C   UNL     1      -3.206  10.301  16.553  0.00  0.00    +0.000 A 
ATOM     20  C   UNL     1      -4.188  11.044  17.173  0.00  0.00    +0.000 A 
ATOM     21  C   UNL     1      -3.940  11.746  18.325  0.00  0.00    +0.000 A 
ATOM     22  C   UNL     1      -2.693  11.752  18.919  0.00  0.00    +0.000 A 
ATOM     23  O   UNL     1      -5.033  12.421  18.769  0.00  0.00    +0.000 OA
ATOM     24  C   UNL     1      -5.987  12.094  17.737  0.00  0.00    +0.000 C 
ATOM     25  O   UNL     1      -5.470  11.186  16.743  0.00  0.00    +0.000 OA
ENDBRANCH   6  17
TORSDOF 2
ENDMDL
MODEL 6
REMARK VINA RESULT:      -7.6      4.828      8.533
REMARK  Name = 
REMARK  2 active torsions:
REMARK  status: ('A' for Active; 'I' for Inactive)
REMARK    1  A    between atoms: C_2  and  C_3
REMARK    2  A    between atoms: C_15  and  C_16
REMARK                            x       y       z     vdW  Elec       q    Type
REMARK                         _______ _______ _______ _____ _____    ______ ____
ROOT
ATOM      1  O   UNL     1       0.206  14.340  22.643  0.00  0.00    +0.000 OA
ATOM      2  C   UNL     1       0.081  13.981  21.471  0.00  0.00    +0.000 C 
ATOM      3  N   UNL     1      -0.337  12.685  21.176  0.00  0.00    +0.000 N 
ATOM      4  C   UNL     1      -0.813  11.779  22.200  0.00  0.00    +0.000 C 
ATOM      5  C   UNL     1      -0.219  10.441  21.806  0.00  0.00    +0.000 C 
ATOM      6  C   UNL     1      -0.242  10.484  20.267  0.00  0.00    +0.000 C 
ATOM      7  C   UNL     1      -0.047  11.974  19.933  0.00  0.00    +0.000 C 
ENDROOT
BRANCH   2   8
ATOM      8  C   UNL     1       0.330  14.874  20.338  0.00  0.00    +0.000 A 
ATOM      9  N   UNL     1      -0.625  15.525  19.703  0.00  0.00    +0.000 NA
ATOM     10  C   UNL     1      -0.064  16.408  18.798  0.00  0.00    +0.000 A 
ATOM     11  C   UNL     1      -0.772  17.336  18.011  0.00  0.00    +0.000 A 
ATOM     12  C   UNL     1      -0.076  18.183  17.142  0.00  0.00    +0.000 A 
ATOM     13  C   UNL     1       1.309  18.098  17.036  0.00  0.00    +0.000 A 
ATOM     14  C   UNL     1       2.034  17.181  17.804  0.00  0.00    +0.000 A 
ATOM     15  C   UNL     1       1.328  16.355  18.694  0.00  0.00    +0.000 A 
ATOM     16  S   UNL     1       1.929  15.190  19.813  0.00  0.00    +0.000 S 
ENDBRANCH   2   8
BRANCH   6  17
ATOM     17  C   UNL     1       0.771   9.547  19.641  0.00  0.00    +0.000 A 
ATOM     18  C   UNL     1       1.237   9.799  18.332  0.00  0.00    +0.000 A 
ATOM     19  C   UNL     1       2.129   8.926  17.697  0.00  0.00    +0.000 A 
ATOM     20  C   UNL     1       2.534   7.806  18.389  0.00  0.00    +0.000 A 
ATOM     21  C   UNL     1       2.100   7.553  19.666  0.00  0.00    +0.000 A 
ATOM     22  C   UNL     1       1.230   8.403  20.320  0.00  0.00    +0.000 A 
ATOM     23  O   UNL     1       2.605   6.395  20.168  0.00  0.00    +0.000 OA
ATOM     24  C   UNL     1       3.373   5.927  19.040  0.00  0.00    +0.000 C 
ATOM     25  O   UNL     1       3.368   6.839  17.922  0.00  0.00    +0.000 OA
ENDBRANCH   6  17
TORSDOF 2
ENDMDL
MODEL 7
REMARK VINA RESULT:      -7.5      3.582      8.061
REMARK  Name = 
REMARK  2 active torsions:
REMARK  status: ('A' for Active; 'I' for Inactive)
REMARK    1  A    between atoms: C_2  and  C_3
REMARK    2  A    between atoms: C_15  and  C_16
REMARK                            x       y       z     vdW  Elec       q    Type
REMARK                         _______ _______ _______ _____ _____    ______ ____
ROOT
ATOM      1  O   UNL     1       2.436   4.633  21.477  0.00  0.00    +0.000 OA
ATOM      2  C   UNL     1       2.313   5.162  20.369  0.00  0.00    +0.000 C 
ATOM      3  N   UNL     1       2.599   4.439  19.213  0.00  0.00    +0.000 N 
ATOM      4  C   UNL     1       2.863   3.016  19.241  0.00  0.00    +0.000 C 
ATOM      5  C   UNL     1       3.993   2.837  18.246  0.00  0.00    +0.000 C 
ATOM      6  C   UNL     1       3.678   3.884  17.163  0.00  0.00    +0.000 C 
ATOM      7  C   UNL     1       2.994   5.026  17.936  0.00  0.00    +0.000 C 
ENDROOT
BRANCH   2   8
ATOM      8  C   UNL     1       1.848   6.538  20.196  0.00  0.00    +0.000 A 
ATOM      9  N   UNL     1       1.137   7.183  21.101  0.00  0.00    +0.000 NA
ATOM     10  C   UNL     1       0.996   8.507  20.724  0.00  0.00    +0.000 A 
ATOM     11  C   UNL     1       0.378   9.515  21.488  0.00  0.00    +0.000 A 
ATOM     12  C   UNL     1       0.315  10.822  20.992  0.00  0.00    +0.000 A 
ATOM     13  C   UNL     1       0.840  11.124  19.739  0.00  0.00    +0.000 A 
ATOM     14  C   UNL     1       1.454  10.139  18.959  0.00  0.00    +0.000 A 
ATOM     15  C   UNL     1       1.537   8.837  19.480  0.00  0.00    +0.000 A 
ATOM     16  S   UNL     1       2.284   7.437  18.805  0.00  0.00    +0.000 S 
ENDBRANCH   2   8
BRANCH   6  17
ATOM     17  C   UNL     1       4.903   4.288  16.368  0.00  0.00    +0.000 A 
ATOM     18  C   UNL     1       5.865   5.140  16.954  0.00  0.00    +0.000 A 
ATOM     19  C   UNL     1       6.981   5.582  16.233  0.00  0.00    +0.000 A 
ATOM     20  C   UNL     1       7.108   5.165  14.926  0.00  0.00    +0.000 A 
ATOM     21  C   UNL     1       6.189   4.327  14.345  0.00  0.00    +0.000 A 
ATOM     22  C   UNL     1       5.086   3.867  15.037  0.00  0.00    +0.000 A 
ATOM     23  O   UNL     1       6.489   4.044  13.050  0.00  0.00    +0.000 OA
ATOM     24  C   UNL     1       7.682   4.835  12.872  0.00  0.00    +0.000 C 
ATOM     25  O   UNL     1       8.105   5.516  14.071  0.00  0.00    +0.000 OA
ENDBRANCH   6  17
TORSDOF 2
ENDMDL
MODEL 8
REMARK VINA RESULT:      -7.4      5.356     10.387
REMARK  Name = 
REMARK  2 active torsions:
REMARK  status: ('A' for Active; 'I' for Inactive)
REMARK    1  A    between atoms: C_2  and  C_3
REMARK    2  A    between atoms: C_15  and  C_16
REMARK                            x       y       z     vdW  Elec       q    Type
REMARK                         _______ _______ _______ _____ _____    ______ ____
ROOT
ATOM      1  O   UNL     1      -6.730  10.997  18.039  0.00  0.00    +0.000 OA
ATOM      2  C   UNL     1      -5.985  11.669  18.756  0.00  0.00    +0.000 C 
ATOM      3  N   UNL     1      -4.645  11.835  18.412  0.00  0.00    +0.000 N 
ATOM      4  C   UNL     1      -4.119  11.398  17.136  0.00  0.00    +0.000 C 
ATOM      5  C   UNL     1      -2.762  10.817  17.482  0.00  0.00    +0.000 C 
ATOM      6  C   UNL     1      -2.275  11.717  18.631  0.00  0.00    +0.000 C 
ATOM      7  C   UNL     1      -3.570  12.131  19.354  0.00  0.00    +0.000 C 
ENDROOT
BRANCH   2   8
ATOM      8  C   UNL     1      -6.449  12.342  19.970  0.00  0.00    +0.000 A 
ATOM      9  N   UNL     1      -6.687  11.710  21.103  0.00  0.00    +0.000 NA
ATOM     10  C   UNL     1      -6.947  12.631  22.102  0.00  0.00    +0.000 A 
ATOM     11  C   UNL     1      -7.153  12.329  23.462  0.00  0.00    +0.000 A 
ATOM     12  C   UNL     1      -7.395  13.361  24.374  0.00  0.00    +0.000 A 
ATOM     13  C   UNL     1      -7.453  14.682  23.940  0.00  0.00    +0.000 A 
ATOM     14  C   UNL     1      -7.257  15.008  22.595  0.00  0.00    +0.000 A 
ATOM     15  C   UNL     1      -6.987  13.965  21.692  0.00  0.00    +0.000 A 
ATOM     16  S   UNL     1      -6.635  14.043  20.007  0.00  0.00    +0.000 S 
ENDBRANCH   2   8
BRANCH   6  17
ATOM     17  C   UNL     1      -1.239  11.040  19.505  0.00  0.00    +0.000 A 
ATOM     18  C   UNL     1      -0.263  10.209  18.914  0.00  0.00    +0.000 A 
ATOM     19  C   UNL     1       0.676   9.521  19.692  0.00  0.00    +0.000 A 
ATOM     20  C   UNL     1       0.614   9.677  21.059  0.00  0.00    +0.000 A 
ATOM     21  C   UNL     1      -0.319  10.491  21.650  0.00  0.00    +0.000 A 
ATOM     22  C   UNL     1      -1.249  11.189  20.905  0.00  0.00    +0.000 A 
ATOM     23  O   UNL     1      -0.220  10.499  23.006  0.00  0.00    +0.000 OA
ATOM     24  C   UNL     1       0.858   9.561  23.200  0.00  0.00    +0.000 C 
ATOM     25  O   UNL     1       1.422   9.067  21.968  0.00  0.00    +0.000 OA
ENDBRANCH   6  17
TORSDOF 2
ENDMDL
MODEL 9
REMARK VINA RESULT:      -7.4      1.579      2.443
REMARK  Name = 
REMARK  2 active torsions:
REMARK  status: ('A' for Active; 'I' for Inactive)
REMARK    1  A    between atoms: C_2  and  C_3
REMARK    2  A    between atoms: C_15  and  C_16
REMARK                            x       y       z     vdW  Elec       q    Type
REMARK                         _______ _______ _______ _____ _____    ______ ____
ROOT
ATOM      1  O   UNL     1       1.566   8.288  22.230  0.00  0.00    +0.000 OA
ATOM      2  C   UNL     1       1.507   8.375  21.002  0.00  0.00    +0.000 C 
ATOM      3  N   UNL     1       1.086   9.560  20.402  0.00  0.00    +0.000 N 
ATOM      4  C   UNL     1       0.882  10.775  21.163  0.00  0.00    +0.000 C 
ATOM      5  C   UNL     1      -0.371  11.376  20.558  0.00  0.00    +0.000 C 
ATOM      6  C   UNL     1      -0.257  11.007  19.068  0.00  0.00    +0.000 C 
ATOM      7  C   UNL     1       0.488   9.659  19.074  0.00  0.00    +0.000 C 
ENDROOT
BRANCH   2   8
ATOM      8  C   UNL     1       1.889   7.278  20.111  0.00  0.00    +0.000 A 
ATOM      9  N   UNL     1       2.657   7.439  19.050  0.00  0.00    +0.000 NA
ATOM     10  C   UNL     1       2.973   6.203  18.514  0.00  0.00    +0.000 A 
ATOM     11  C   UNL     1       3.847   5.978  17.434  0.00  0.00    +0.000 A 
ATOM     12  C   UNL     1       4.091   4.672  16.999  0.00  0.00    +0.000 A 
ATOM     13  C   UNL     1       3.457   3.596  17.613  0.00  0.00    +0.000 A 
ATOM     14  C   UNL     1       2.580   3.794  18.685  0.00  0.00    +0.000 A 
ATOM     15  C   UNL     1       2.365   5.109  19.132  0.00  0.00    +0.000 A 
ATOM     16  S   UNL     1       1.413   5.670  20.454  0.00  0.00    +0.000 S 
ENDBRANCH   2   8
BRANCH   6  17
ATOM     17  C   UNL     1      -1.598  10.997  18.363  0.00  0.00    +0.000 A 
ATOM     18  C   UNL     1      -1.732  10.324  17.129  0.00  0.00    +0.000 A 
ATOM     19  C   UNL     1      -2.938  10.340  16.418  0.00  0.00    +0.000 A 
ATOM     20  C   UNL     1      -3.993  11.042  16.960  0.00  0.00    +0.000 A 
ATOM     21  C   UNL     1      -3.884  11.691  18.164  0.00  0.00    +0.000 A 
ATOM     22  C   UNL     1      -2.709  11.681  18.890  0.00  0.00    +0.000 A 
ATOM     23  O   UNL     1      -5.030  12.331  18.517  0.00  0.00    +0.000 OA
ATOM     24  C   UNL     1      -5.859  12.044  17.372  0.00  0.00    +0.000 C 
ATOM     25  O   UNL     1      -5.223  11.190  16.399  0.00  0.00    +0.000 OA
ENDBRANCH   6  17
TORSDOF 2
ENDMDL
