MODEL 1
REMARK VINA RESULT:      -7.5      0.000      0.000
REMARK  Name = 
REMARK  7 active torsions:
REMARK  status: ('A' for Active; 'I' for Inactive)
REMARK    1  A    between atoms: C_1  and  C_2
REMARK    2  A    between atoms: C_2  and  O_3
REMARK    3  A    between atoms: O_3  and  C_4
REMARK    4  A    between atoms: C_9  and  N_10
REMARK    5  A    between atoms: C_11  and  C_13
REMARK    6  A    between atoms: C_17  and  N_18
REMARK    7  A    between atoms: C_19  and  C_21
REMARK                            x       y       z     vdW  Elec       q    Type
REMARK                         _______ _______ _______ _____ _____    ______ ____
ROOT
ATOM      1  C   UNL     1       1.985   7.447  19.756  0.00  0.00    +0.000 A 
ATOM      2  C   UNL     1       1.630   6.489  20.715  0.00  0.00    +0.000 A 
ATOM      3  C   UNL     1       2.068   5.178  20.588  0.00  0.00    +0.000 A 
ATOM      4  C   UNL     1       2.851   4.815  19.494  0.00  0.00    +0.000 A 
ATOM      5  C   UNL     1       3.220   5.757  18.525  0.00  0.00    +0.000 A 
ATOM      6  C   UNL     1       2.808   7.088  18.676  0.00  0.00    +0.000 A 
ENDROOT
BRANCH   1   8
ATOM      7  N   UNL     1       1.350   9.608  18.819  0.00  0.00    +0.000 N 
ATOM      8  C   UNL     1       1.459   8.824  19.955  0.00  0.00    +0.000 C 
ATOM      9  O   UNL     1       1.091   9.128  21.086  0.00  0.00    +0.000 OA
ATOM     10  H   UNL     1       1.558   9.178  17.933  0.00  0.00    +0.000 HD
BRANCH   7  16
ATOM     11  C   UNL     1      -0.544  11.188  18.732  0.00  0.00    +0.000 A 
ATOM     12  C   UNL     1      -1.003  12.508  18.562  0.00  0.00    +0.000 A 
ATOM     13  C   UNL     1      -0.111  13.574  18.448  0.00  0.00    +0.000 A 
ATOM     14  C   UNL     1       1.253  13.330  18.500  0.00  0.00    +0.000 A 
ATOM     15  C   UNL     1       1.721  12.023  18.653  0.00  0.00    +0.000 A 
ATOM     16  C   UNL     1       0.843  10.931  18.761  0.00  0.00    +0.000 A 
BRANCH  11  17
ATOM     17  O   UNL     1      -1.567  10.272  18.789  0.00  0.00    +0.000 OA
BRANCH  17  19
ATOM     18  C   UNL     1      -2.304   9.852  16.538  0.00  0.00    +0.000 C 
ATOM     19  C   UNL     1      -2.667  10.433  17.896  0.00  0.00    +0.000 C 
ENDBRANCH  17  19
ENDBRANCH  11  17
ENDBRANCH   7  16
ENDBRANCH   1   8
BRANCH   5  20
ATOM     20  N   UNL     1       3.996   5.421  17.394  0.00  0.00    +0.000 N 
ATOM     21  C   UNL     1       5.368   5.577  17.260  0.00  0.00    +0.000 C 
ATOM     22  O   UNL     1       6.115   6.011  18.131  0.00  0.00    +0.000 OA
ATOM     23  H   UNL     1       3.540   4.946  16.623  0.00  0.00    +0.000 HD
BRANCH  21  24
ATOM     24  C   UNL     1       5.889   5.126  15.984  0.00  0.00    +0.000 A 
ATOM     25  C   UNL     1       5.353   4.240  15.070  0.00  0.00    +0.000 A 
ATOM     26  C   UNL     1       6.266   4.165  13.993  0.00  0.00    +0.000 A 
ATOM     27  C   UNL     1       7.306   5.008  14.318  0.00  0.00    +0.000 A 
ATOM     28  O   UNL     1       7.085   5.603  15.518  0.00  0.00    +0.000 OA
ENDBRANCH  21  24
ENDBRANCH   5  20
TORSDOF 6
ENDMDL
MODEL 2
REMARK VINA RESULT:      -7.4      1.789      2.771
REMARK  Name = 
REMARK  7 active torsions:
REMARK  status: ('A' for Active; 'I' for Inactive)
REMARK    1  A    between atoms: C_1  and  C_2
REMARK    2  A    between atoms: C_2  and  O_3
REMARK    3  A    between atoms: O_3  and  C_4
REMARK    4  A    between atoms: C_9  and  N_10
REMARK    5  A    between atoms: C_11  and  C_13
REMARK    6  A    between atoms: C_17  and  N_18
REMARK    7  A    between atoms: C_19  and  C_21
REMARK                            x       y       z     vdW  Elec       q    Type
REMARK                         _______ _______ _______ _____ _____    ______ ____
ROOT
ATOM      1  C   UNL     1       2.698   7.642  18.302  0.00  0.00    +0.000 A 
ATOM      2  C   UNL     1       2.674   6.866  19.469  0.00  0.00    +0.000 A 
ATOM      3  C   UNL     1       3.383   5.675  19.529  0.00  0.00    +0.000 A 
ATOM      4  C   UNL     1       4.108   5.245  18.419  0.00  0.00    +0.000 A 
ATOM      5  C   UNL     1       4.148   6.006  17.245  0.00  0.00    +0.000 A 
ATOM      6  C   UNL     1       3.461   7.227  17.199  0.00  0.00    +0.000 A 
ENDROOT
BRANCH   1   8
ATOM      7  N   UNL     1       0.941   9.003  19.308  0.00  0.00    +0.000 N 
ATOM      8  C   UNL     1       1.896   8.895  18.312  0.00  0.00    +0.000 C 
ATOM      9  O   UNL     1       2.196   9.760  17.495  0.00  0.00    +0.000 OA
ATOM     10  H   UNL     1       0.901   8.272  19.998  0.00  0.00    +0.000 HD
BRANCH   7  16
ATOM     11  C   UNL     1       0.176  10.880  20.717  0.00  0.00    +0.000 A 
ATOM     12  C   UNL     1      -0.760  11.905  20.951  0.00  0.00    +0.000 A 
ATOM     13  C   UNL     1      -1.758  12.198  20.022  0.00  0.00    +0.000 A 
ATOM     14  C   UNL     1      -1.831  11.466  18.847  0.00  0.00    +0.000 A 
ATOM     15  C   UNL     1      -0.918  10.437  18.610  0.00  0.00    +0.000 A 
ATOM     16  C   UNL     1       0.090  10.115  19.535  0.00  0.00    +0.000 A 
BRANCH  11  17
ATOM     17  O   UNL     1       1.056  10.714  21.759  0.00  0.00    +0.000 OA
BRANCH  17  19
ATOM     18  C   UNL     1      -0.141   9.453  23.421  0.00  0.00    +0.000 C 
ATOM     19  C   UNL     1       1.041   9.474  22.465  0.00  0.00    +0.000 C 
ENDBRANCH  17  19
ENDBRANCH  11  17
ENDBRANCH   7  16
ENDBRANCH   1   8
BRANCH   5  20
ATOM     20  N   UNL     1       4.855   5.593  16.094  0.00  0.00    +0.000 N 
ATOM     21  C   UNL     1       6.229   5.430  15.985  0.00  0.00    +0.000 C 
ATOM     22  O   UNL     1       7.031   5.599  16.898  0.00  0.00    +0.000 OA
ATOM     23  H   UNL     1       4.323   5.308  15.280  0.00  0.00    +0.000 HD
BRANCH  21  24
ATOM     24  C   UNL     1       6.665   4.978  14.679  0.00  0.00    +0.000 A 
ATOM     25  C   UNL     1       6.162   3.977  13.872  0.00  0.00    +0.000 A 
ATOM     26  C   UNL     1       6.955   3.961  12.701  0.00  0.00    +0.000 A 
ATOM     27  C   UNL     1       7.897   4.953  12.867  0.00  0.00    +0.000 A 
ATOM     28  O   UNL     1       7.726   5.582  14.058  0.00  0.00    +0.000 OA
ENDBRANCH  21  24
ENDBRANCH   5  20
TORSDOF 6
ENDMDL
MODEL 3
REMARK VINA RESULT:      -7.3      1.721      2.531
REMARK  Name = 
REMARK  7 active torsions:
REMARK  status: ('A' for Active; 'I' for Inactive)
REMARK    1  A    between atoms: C_1  and  C_2
REMARK    2  A    between atoms: C_2  and  O_3
REMARK    3  A    between atoms: O_3  and  C_4
REMARK    4  A    between atoms: C_9  and  N_10
REMARK    5  A    between atoms: C_11  and  C_13
REMARK    6  A    between atoms: C_17  and  N_18
REMARK    7  A    between atoms: C_19  and  C_21
REMARK                            x       y       z     vdW  Elec       q    Type
REMARK                         _______ _______ _______ _____ _____    ______ ____
ROOT
ATOM      1  C   UNL     1       2.023   8.098  18.986  0.00  0.00    +0.000 A 
ATOM      2  C   UNL     1       1.923   7.435  20.216  0.00  0.00    +0.000 A 
ATOM      3  C   UNL     1       2.586   6.232  20.415  0.00  0.00    +0.000 A 
ATOM      4  C   UNL     1       3.337   5.677  19.381  0.00  0.00    +0.000 A 
ATOM      5  C   UNL     1       3.452   6.324  18.145  0.00  0.00    +0.000 A 
ATOM      6  C   UNL     1       2.813   7.558  17.959  0.00  0.00    +0.000 A 
ENDROOT
BRANCH   1   8
ATOM      7  N   UNL     1       0.047   9.435  19.495  0.00  0.00    +0.000 N 
ATOM      8  C   UNL     1       1.268   9.373  18.846  0.00  0.00    +0.000 C 
ATOM      9  O   UNL     1       1.817  10.288  18.241  0.00  0.00    +0.000 OA
ATOM     10  H   UNL     1      -0.215   8.655  20.074  0.00  0.00    +0.000 HD
BRANCH   7  16
ATOM     11  C   UNL     1      -0.869  11.415  20.651  0.00  0.00    +0.000 A 
ATOM     12  C   UNL     1      -1.825  12.447  20.695  0.00  0.00    +0.000 A 
ATOM     13  C   UNL     1      -2.715  12.653  19.641  0.00  0.00    +0.000 A 
ATOM     14  C   UNL     1      -2.658  11.826  18.529  0.00  0.00    +0.000 A 
ATOM     15  C   UNL     1      -1.724  10.789  18.480  0.00  0.00    +0.000 A 
ATOM     16  C   UNL     1      -0.824  10.554  19.534  0.00  0.00    +0.000 A 
BRANCH  11  17
ATOM     17  O   UNL     1      -0.109  11.344  21.794  0.00  0.00    +0.000 OA
BRANCH  17  19
ATOM     18  C   UNL     1      -0.134   9.343  23.129  0.00  0.00    +0.000 C 
ATOM     19  C   UNL     1      -0.688  10.749  22.953  0.00  0.00    +0.000 C 
ENDBRANCH  17  19
ENDBRANCH  11  17
ENDBRANCH   7  16
ENDBRANCH   1   8
BRANCH   5  20
ATOM     20  N   UNL     1       4.188   5.783  17.068  0.00  0.00    +0.000 N 
ATOM     21  C   UNL     1       5.446   6.188  16.644  0.00  0.00    +0.000 C 
ATOM     22  O   UNL     1       6.116   7.070  17.172  0.00  0.00    +0.000 OA
ATOM     23  H   UNL     1       3.817   4.968  16.594  0.00  0.00    +0.000 HD
BRANCH  21  24
ATOM     24  C   UNL     1       5.958   5.432  15.519  0.00  0.00    +0.000 A 
ATOM     25  C   UNL     1       5.363   4.428  14.779  0.00  0.00    +0.000 A 
ATOM     26  C   UNL     1       6.298   4.043  13.791  0.00  0.00    +0.000 A 
ATOM     27  C   UNL     1       7.409   4.833  13.990  0.00  0.00    +0.000 A 
ATOM     28  O   UNL     1       7.212   5.684  15.029  0.00  0.00    +0.000 OA
ENDBRANCH  21  24
ENDBRANCH   5  20
TORSDOF 6
ENDMDL
MODEL 4
REMARK VINA RESULT:      -7.2      1.411      1.449
REMARK  Name = 
REMARK  7 active torsions:
REMARK  status: ('A' for Active; 'I' for Inactive)
REMARK    1  A    between atoms: C_1  and  C_2
REMARK    2  A    between atoms: C_2  and  O_3
REMARK    3  A    between atoms: O_3  and  C_4
REMARK    4  A    between atoms: C_9  and  N_10
REMARK    5  A    between atoms: C_11  and  C_13
REMARK    6  A    between atoms: C_17  and  N_18
REMARK    7  A    between atoms: C_19  and  C_21
REMARK                            x       y       z     vdW  Elec       q    Type
REMARK                         _______ _______ _______ _____ _____    ______ ____
ROOT
ATOM      1  C   UNL     1       2.054   8.085  18.992  0.00  0.00    +0.000 A 
ATOM      2  C   UNL     1       1.892   7.343  20.170  0.00  0.00    +0.000 A 
ATOM      3  C   UNL     1       2.504   6.103  20.303  0.00  0.00    +0.000 A 
ATOM      4  C   UNL     1       3.266   5.593  19.254  0.00  0.00    +0.000 A 
ATOM      5  C   UNL     1       3.443   6.319  18.070  0.00  0.00    +0.000 A 
ATOM      6  C   UNL     1       2.856   7.587  17.953  0.00  0.00    +0.000 A 
ENDROOT
BRANCH   1   8
ATOM      7  N   UNL     1       0.378   9.619  19.880  0.00  0.00    +0.000 N 
ATOM      8  C   UNL     1       1.351   9.394  18.921  0.00  0.00    +0.000 C 
ATOM      9  O   UNL     1       1.740  10.196  18.077  0.00  0.00    +0.000 OA
ATOM     10  H   UNL     1       0.262   8.925  20.599  0.00  0.00    +0.000 HD
BRANCH   7  16
ATOM     11  C   UNL     1      -1.531  11.045  19.237  0.00  0.00    +0.000 A 
ATOM     12  C   UNL     1      -2.200  12.280  19.341  0.00  0.00    +0.000 A 
ATOM     13  C   UNL     1      -1.771  13.260  20.235  0.00  0.00    +0.000 A 
ATOM     14  C   UNL     1      -0.666  13.016  21.036  0.00  0.00    +0.000 A 
ATOM     15  C   UNL     1       0.015  11.801  20.931  0.00  0.00    +0.000 A 
ATOM     16  C   UNL     1      -0.391  10.802  20.030  0.00  0.00    +0.000 A 
BRANCH  11  17
ATOM     17  O   UNL     1      -2.075  10.224  18.277  0.00  0.00    +0.000 OA
BRANCH  17  19
ATOM     18  C   UNL     1      -3.067   9.891  16.112  0.00  0.00    +0.000 C 
ATOM     19  C   UNL     1      -2.023  10.649  16.917  0.00  0.00    +0.000 C 
ENDBRANCH  17  19
ENDBRANCH  11  17
ENDBRANCH   7  16
ENDBRANCH   1   8
BRANCH   5  20
ATOM     20  N   UNL     1       4.192   5.826  16.979  0.00  0.00    +0.000 N 
ATOM     21  C   UNL     1       5.576   5.772  16.888  0.00  0.00    +0.000 C 
ATOM     22  O   UNL     1       6.354   6.127  17.767  0.00  0.00    +0.000 OA
ATOM     23  H   UNL     1       3.694   5.392  16.211  0.00  0.00    +0.000 HD
BRANCH  21  24
ATOM     24  C   UNL     1       6.061   5.196  15.649  0.00  0.00    +0.000 A 
ATOM     25  C   UNL     1       5.537   4.175  14.880  0.00  0.00    +0.000 A 
ATOM     26  C   UNL     1       6.400   4.019  13.770  0.00  0.00    +0.000 A 
ATOM     27  C   UNL     1       7.399   4.953  13.931  0.00  0.00    +0.000 A 
ATOM     28  O   UNL     1       7.200   5.678  15.061  0.00  0.00    +0.000 OA
ENDBRANCH  21  24
ENDBRANCH   5  20
TORSDOF 6
ENDMDL
MODEL 5
REMARK VINA RESULT:      -7.1      2.450      8.262
REMARK  Name = 
REMARK  7 active torsions:
REMARK  status: ('A' for Active; 'I' for Inactive)
REMARK    1  A    between atoms: C_1  and  C_2
REMARK    2  A    between atoms: C_2  and  O_3
REMARK    3  A    between atoms: O_3  and  C_4
REMARK    4  A    between atoms: C_9  and  N_10
REMARK    5  A    between atoms: C_11  and  C_13
REMARK    6  A    between atoms: C_17  and  N_18
REMARK    7  A    between atoms: C_19  and  C_21
REMARK                            x       y       z     vdW  Elec       q    Type
REMARK                         _______ _______ _______ _____ _____    ______ ____
ROOT
ATOM      1  C   UNL     1       3.938   4.186  19.365  0.00  0.00    +0.000 A 
ATOM      2  C   UNL     1       3.532   2.987  19.965  0.00  0.00    +0.000 A 
ATOM      3  C   UNL     1       2.522   2.990  20.917  0.00  0.00    +0.000 A 
ATOM      4  C   UNL     1       1.924   4.193  21.286  0.00  0.00    +0.000 A 
ATOM      5  C   UNL     1       2.313   5.403  20.698  0.00  0.00    +0.000 A 
ATOM      6  C   UNL     1       3.306   5.392  19.709  0.00  0.00    +0.000 A 
ENDROOT
BRANCH   1   8
ATOM      7  N   UNL     1       4.720   4.467  17.072  0.00  0.00    +0.000 N 
ATOM      8  C   UNL     1       5.039   4.100  18.368  0.00  0.00    +0.000 C 
ATOM      9  O   UNL     1       6.151   3.792  18.784  0.00  0.00    +0.000 OA
ATOM     10  H   UNL     1       3.799   4.836  16.904  0.00  0.00    +0.000 HD
BRANCH   7  16
ATOM     11  C   UNL     1       6.806   5.248  16.009  0.00  0.00    +0.000 A 
ATOM     12  C   UNL     1       7.606   5.344  14.855  0.00  0.00    +0.000 A 
ATOM     13  C   UNL     1       7.252   4.690  13.675  0.00  0.00    +0.000 A 
ATOM     14  C   UNL     1       6.091   3.933  13.637  0.00  0.00    +0.000 A 
ATOM     15  C   UNL     1       5.282   3.843  14.771  0.00  0.00    +0.000 A 
ATOM     16  C   UNL     1       5.611   4.501  15.968  0.00  0.00    +0.000 A 
BRANCH  11  17
ATOM     17  O   UNL     1       7.295   5.989  17.058  0.00  0.00    +0.000 OA
BRANCH  17  19
ATOM     18  C   UNL     1       7.910   8.226  17.695  0.00  0.00    +0.000 C 
ATOM     19  C   UNL     1       6.783   7.306  17.251  0.00  0.00    +0.000 C 
ENDBRANCH  17  19
ENDBRANCH  11  17
ENDBRANCH   7  16
ENDBRANCH   1   8
BRANCH   5  20
ATOM     20  N   UNL     1       1.743   6.643  21.061  0.00  0.00    +0.000 N 
ATOM     21  C   UNL     1       1.669   7.779  20.267  0.00  0.00    +0.000 C 
ATOM     22  O   UNL     1       2.071   7.857  19.111  0.00  0.00    +0.000 OA
ATOM     23  H   UNL     1       1.266   6.710  21.952  0.00  0.00    +0.000 HD
BRANCH  21  24
ATOM     24  C   UNL     1       1.011   8.901  20.907  0.00  0.00    +0.000 A 
ATOM     25  C   UNL     1       0.287   8.952  22.083  0.00  0.00    +0.000 A 
ATOM     26  C   UNL     1      -0.126  10.294  22.247  0.00  0.00    +0.000 A 
ATOM     27  C   UNL     1       0.368  10.980  21.159  0.00  0.00    +0.000 A 
ATOM     28  O   UNL     1       1.066  10.148  20.345  0.00  0.00    +0.000 OA
ENDBRANCH  21  24
ENDBRANCH   5  20
TORSDOF 6
ENDMDL
MODEL 6
REMARK VINA RESULT:      -7.1      1.677      1.864
REMARK  Name = 
REMARK  7 active torsions:
REMARK  status: ('A' for Active; 'I' for Inactive)
REMARK    1  A    between atoms: C_1  and  C_2
REMARK    2  A    between atoms: C_2  and  O_3
REMARK    3  A    between atoms: O_3  and  C_4
REMARK    4  A    between atoms: C_9  and  N_10
REMARK    5  A    between atoms: C_11  and  C_13
REMARK    6  A    between atoms: C_17  and  N_18
REMARK    7  A    between atoms: C_19  and  C_21
REMARK                            x       y       z     vdW  Elec       q    Type
REMARK                         _______ _______ _______ _____ _____    ______ ____
ROOT
ATOM      1  C   UNL     1       2.722   7.673  18.395  0.00  0.00    +0.000 A 
ATOM      2  C   UNL     1       2.618   6.790  19.478  0.00  0.00    +0.000 A 
ATOM      3  C   UNL     1       3.321   5.593  19.472  0.00  0.00    +0.000 A 
ATOM      4  C   UNL     1       4.119   5.266  18.377  0.00  0.00    +0.000 A 
ATOM      5  C   UNL     1       4.239   6.135  17.286  0.00  0.00    +0.000 A 
ATOM      6  C   UNL     1       3.559   7.360  17.311  0.00  0.00    +0.000 A 
ENDROOT
BRANCH   1   8
ATOM      7  N   UNL     1       1.208   9.125  19.639  0.00  0.00    +0.000 N 
ATOM      8  C   UNL     1       1.923   8.925  18.470  0.00  0.00    +0.000 C 
ATOM      9  O   UNL     1       2.022   9.713  17.535  0.00  0.00    +0.000 OA
ATOM     10  H   UNL     1       1.333   8.459  20.383  0.00  0.00    +0.000 HD
BRANCH   7  16
ATOM     11  C   UNL     1      -0.790  10.524  19.257  0.00  0.00    +0.000 A 
ATOM     12  C   UNL     1      -1.492  11.716  19.519  0.00  0.00    +0.000 A 
ATOM     13  C   UNL     1      -1.037  12.628  20.471  0.00  0.00    +0.000 A 
ATOM     14  C   UNL     1       0.128  12.358  21.171  0.00  0.00    +0.000 A 
ATOM     15  C   UNL     1       0.842  11.187  20.910  0.00  0.00    +0.000 A 
ATOM     16  C   UNL     1       0.411  10.257  19.949  0.00  0.00    +0.000 A 
BRANCH  11  17
ATOM     17  O   UNL     1      -1.369   9.772  18.264  0.00  0.00    +0.000 OA
BRANCH  17  19
ATOM     18  C   UNL     1      -3.361   9.887  16.920  0.00  0.00    +0.000 C 
ATOM     19  C   UNL     1      -1.970  10.453  17.165  0.00  0.00    +0.000 C 
ENDBRANCH  17  19
ENDBRANCH  11  17
ENDBRANCH   7  16
ENDBRANCH   1   8
BRANCH   5  20
ATOM     20  N   UNL     1       5.023   5.829  16.151  0.00  0.00    +0.000 N 
ATOM     21  C   UNL     1       5.493   4.575  15.789  0.00  0.00    +0.000 C 
ATOM     22  O   UNL     1       5.267   3.535  16.400  0.00  0.00    +0.000 OA
ATOM     23  H   UNL     1       5.206   6.566  15.481  0.00  0.00    +0.000 HD
BRANCH  21  24
ATOM     24  C   UNL     1       6.260   4.568  14.559  0.00  0.00    +0.000 A 
ATOM     25  C   UNL     1       6.079   3.832  13.404  0.00  0.00    +0.000 A 
ATOM     26  C   UNL     1       7.104   4.219  12.511  0.00  0.00    +0.000 A 
ATOM     27  C   UNL     1       7.852   5.165  13.177  0.00  0.00    +0.000 A 
ATOM     28  O   UNL     1       7.345   5.391  14.416  0.00  0.00    +0.000 OA
ENDBRANCH  21  24
ENDBRANCH   5  20
TORSDOF 6
ENDMDL
MODEL 7
REMARK VINA RESULT:      -7.0      2.400      8.378
REMARK  Name = 
REMARK  7 active torsions:
REMARK  status: ('A' for Active; 'I' for Inactive)
REMARK    1  A    between atoms: C_1  and  C_2
REMARK    2  A    between atoms: C_2  and  O_3
REMARK    3  A    between atoms: O_3  and  C_4
REMARK    4  A    between atoms: C_9  and  N_10
REMARK    5  A    between atoms: C_11  and  C_13
REMARK    6  A    between atoms: C_17  and  N_18
REMARK    7  A    between atoms: C_19  and  C_21
REMARK                            x       y       z     vdW  Elec       q    Type
REMARK                         _______ _______ _______ _____ _____    ______ ____
ROOT
ATOM      1  C   UNL     1       3.370   3.627  19.035  0.00  0.00    +0.000 A 
ATOM      2  C   UNL     1       3.282   2.568  19.949  0.00  0.00    +0.000 A 
ATOM      3  C   UNL     1       2.641   2.750  21.167  0.00  0.00    +0.000 A 
ATOM      4  C   UNL     1       2.099   3.994  21.484  0.00  0.00    +0.000 A 
ATOM      5  C   UNL     1       2.173   5.064  20.584  0.00  0.00    +0.000 A 
ATOM      6  C   UNL     1       2.787   4.868  19.340  0.00  0.00    +0.000 A 
ENDROOT
BRANCH   1   8
ATOM      7  N   UNL     1       4.700   4.444  17.161  0.00  0.00    +0.000 N 
ATOM      8  C   UNL     1       4.089   3.357  17.761  0.00  0.00    +0.000 C 
ATOM      9  O   UNL     1       4.150   2.190  17.387  0.00  0.00    +0.000 OA
ATOM     10  H   UNL     1       4.686   5.320  17.656  0.00  0.00    +0.000 HD
BRANCH   7  16
ATOM     11  C   UNL     1       6.754   4.996  15.908  0.00  0.00    +0.000 A 
ATOM     12  C   UNL     1       7.436   5.048  14.678  0.00  0.00    +0.000 A 
ATOM     13  C   UNL     1       6.875   4.514  13.518  0.00  0.00    +0.000 A 
ATOM     14  C   UNL     1       5.622   3.923  13.577  0.00  0.00    +0.000 A 
ATOM     15  C   UNL     1       4.929   3.879  14.789  0.00  0.00    +0.000 A 
ATOM     16  C   UNL     1       5.469   4.419  15.969  0.00  0.00    +0.000 A 
BRANCH  11  17
ATOM     17  O   UNL     1       7.447   5.605  16.927  0.00  0.00    +0.000 OA
BRANCH  17  19
ATOM     18  C   UNL     1       7.759   5.732  19.309  0.00  0.00    +0.000 C 
ATOM     19  C   UNL     1       7.768   4.833  18.082  0.00  0.00    +0.000 C 
ENDBRANCH  17  19
ENDBRANCH  11  17
ENDBRANCH   7  16
ENDBRANCH   1   8
BRANCH   5  20
ATOM     20  N   UNL     1       1.652   6.343  20.879  0.00  0.00    +0.000 N 
ATOM     21  C   UNL     1       1.867   7.507  20.154  0.00  0.00    +0.000 C 
ATOM     22  O   UNL     1       2.530   7.583  19.124  0.00  0.00    +0.000 OA
ATOM     23  H   UNL     1       0.992   6.429  21.643  0.00  0.00    +0.000 HD
BRANCH  21  24
ATOM     24  C   UNL     1       1.186   8.668  20.692  0.00  0.00    +0.000 A 
ATOM     25  C   UNL     1       0.662   9.770  20.043  0.00  0.00    +0.000 A 
ATOM     26  C   UNL     1       0.100  10.599  21.041  0.00  0.00    +0.000 A 
ATOM     27  C   UNL     1       0.319   9.955  22.239  0.00  0.00    +0.000 A 
ATOM     28  O   UNL     1       0.969   8.780  22.039  0.00  0.00    +0.000 OA
ENDBRANCH  21  24
ENDBRANCH   5  20
TORSDOF 6
ENDMDL
MODEL 8
REMARK VINA RESULT:      -7.0      2.805      8.688
REMARK  Name = 
REMARK  7 active torsions:
REMARK  status: ('A' for Active; 'I' for Inactive)
REMARK    1  A    between atoms: C_1  and  C_2
REMARK    2  A    between atoms: C_2  and  O_3
REMARK    3  A    between atoms: O_3  and  C_4
REMARK    4  A    between atoms: C_9  and  N_10
REMARK    5  A    between atoms: C_11  and  C_13
REMARK    6  A    between atoms: C_17  and  N_18
REMARK    7  A    between atoms: C_19  and  C_21
REMARK                            x       y       z     vdW  Elec       q    Type
REMARK                         _______ _______ _______ _____ _____    ______ ____
ROOT
ATOM      1  C   UNL     1       1.441   9.031  19.476  0.00  0.00    +0.000 A 
ATOM      2  C   UNL     1       1.141   8.412  20.697  0.00  0.00    +0.000 A 
ATOM      3  C   UNL     1       0.490   9.122  21.697  0.00  0.00    +0.000 A 
ATOM      4  C   UNL     1       0.149  10.457  21.487  0.00  0.00    +0.000 A 
ATOM      5  C   UNL     1       0.438  11.093  20.274  0.00  0.00    +0.000 A 
ATOM      6  C   UNL     1       1.061  10.364  19.252  0.00  0.00    +0.000 A 
ENDROOT
BRANCH   1   8
ATOM      7  N   UNL     1       2.550   6.944  18.870  0.00  0.00    +0.000 N 
ATOM      8  C   UNL     1       2.156   8.208  18.464  0.00  0.00    +0.000 C 
ATOM      9  O   UNL     1       2.269   8.677  17.335  0.00  0.00    +0.000 OA
ATOM     10  H   UNL     1       2.264   6.638  19.784  0.00  0.00    +0.000 HD
BRANCH   7  16
ATOM     11  C   UNL     1       2.609   4.733  17.774  0.00  0.00    +0.000 A 
ATOM     12  C   UNL     1       3.341   3.758  17.070  0.00  0.00    +0.000 A 
ATOM     13  C   UNL     1       4.643   4.007  16.635  0.00  0.00    +0.000 A 
ATOM     14  C   UNL     1       5.228   5.235  16.902  0.00  0.00    +0.000 A 
ATOM     15  C   UNL     1       4.517   6.206  17.612  0.00  0.00    +0.000 A 
ATOM     16  C   UNL     1       3.208   5.976  18.069  0.00  0.00    +0.000 A 
BRANCH  11  17
ATOM     17  O   UNL     1       1.363   4.294  18.151  0.00  0.00    +0.000 OA
BRANCH  17  19
ATOM     18  C   UNL     1       1.085   4.037  20.527  0.00  0.00    +0.000 C 
ATOM     19  C   UNL     1       1.276   3.326  19.195  0.00  0.00    +0.000 C 
ENDBRANCH  17  19
ENDBRANCH  11  17
ENDBRANCH   7  16
ENDBRANCH   1   8
BRANCH   5  20
ATOM     20  N   UNL     1       0.126  12.449  20.033  0.00  0.00    +0.000 N 
ATOM     21  C   UNL     1       0.725  13.551  20.627  0.00  0.00    +0.000 C 
ATOM     22  O   UNL     1       1.644  13.500  21.438  0.00  0.00    +0.000 OA
ATOM     23  H   UNL     1      -0.543  12.666  19.302  0.00  0.00    +0.000 HD
BRANCH  21  24
ATOM     24  C   UNL     1       0.204  14.823  20.166  0.00  0.00    +0.000 A 
ATOM     25  C   UNL     1      -0.195  15.214  18.903  0.00  0.00    +0.000 A 
ATOM     26  C   UNL     1      -0.628  16.555  19.010  0.00  0.00    +0.000 A 
ATOM     27  C   UNL     1      -0.463  16.903  20.333  0.00  0.00    +0.000 A 
ATOM     28  O   UNL     1       0.033  15.859  21.045  0.00  0.00    +0.000 OA
ENDBRANCH  21  24
ENDBRANCH   5  20
TORSDOF 6
ENDMDL
MODEL 9
REMARK VINA RESULT:      -7.0      1.604      2.628
REMARK  Name = 
REMARK  7 active torsions:
REMARK  status: ('A' for Active; 'I' for Inactive)
REMARK    1  A    between atoms: C_1  and  C_2
REMARK    2  A    between atoms: C_2  and  O_3
REMARK    3  A    between atoms: O_3  and  C_4
REMARK    4  A    between atoms: C_9  and  N_10
REMARK    5  A    between atoms: C_11  and  C_13
REMARK    6  A    between atoms: C_17  and  N_18
REMARK    7  A    between atoms: C_19  and  C_21
REMARK                            x       y       z     vdW  Elec       q    Type
REMARK                         _______ _______ _______ _____ _____    ______ ____
ROOT
ATOM      1  C   UNL     1       2.027   8.246  18.932  0.00  0.00    +0.000 A 
ATOM      2  C   UNL     1       1.797   7.547  20.125  0.00  0.00    +0.000 A 
ATOM      3  C   UNL     1       2.348   6.287  20.312  0.00  0.00    +0.000 A 
ATOM      4  C   UNL     1       3.118   5.713  19.303  0.00  0.00    +0.000 A 
ATOM      5  C   UNL     1       3.363   6.394  18.105  0.00  0.00    +0.000 A 
ATOM      6  C   UNL     1       2.837   7.682  17.933  0.00  0.00    +0.000 A 
ENDROOT
BRANCH   1   8
ATOM      7  N   UNL     1       0.470   9.920  19.783  0.00  0.00    +0.000 N 
ATOM      8  C   UNL     1       1.386   9.582  18.801  0.00  0.00    +0.000 C 
ATOM      9  O   UNL     1       1.774  10.305  17.889  0.00  0.00    +0.000 OA
ATOM     10  H   UNL     1       0.354   9.282  20.553  0.00  0.00    +0.000 HD
BRANCH   7  16
ATOM     11  C   UNL     1       0.336  12.272  20.518  0.00  0.00    +0.000 A 
ATOM     12  C   UNL     1      -0.437  13.435  20.695  0.00  0.00    +0.000 A 
ATOM     13  C   UNL     1      -1.751  13.507  20.233  0.00  0.00    +0.000 A 
ATOM     14  C   UNL     1      -2.307  12.413  19.587  0.00  0.00    +0.000 A 
ATOM     15  C   UNL     1      -1.555  11.248  19.419  0.00  0.00    +0.000 A 
ATOM     16  C   UNL     1      -0.233  11.147  19.885  0.00  0.00    +0.000 A 
BRANCH  11  17
ATOM     17  O   UNL     1       1.589  12.376  21.072  0.00  0.00    +0.000 OA
BRANCH  17  19
ATOM     18  C   UNL     1       2.733  13.403  19.222  0.00  0.00    +0.000 C 
ATOM     19  C   UNL     1       2.400  13.490  20.704  0.00  0.00    +0.000 C 
ENDBRANCH  17  19
ENDBRANCH  11  17
ENDBRANCH   7  16
ENDBRANCH   1   8
BRANCH   5  20
ATOM     20  N   UNL     1       4.122   5.836  17.053  0.00  0.00    +0.000 N 
ATOM     21  C   UNL     1       5.410   6.199  16.684  0.00  0.00    +0.000 C 
ATOM     22  O   UNL     1       6.089   7.051  17.247  0.00  0.00    +0.000 OA
ATOM     23  H   UNL     1       3.741   5.040  16.556  0.00  0.00    +0.000 HD
BRANCH  21  24
ATOM     24  C   UNL     1       5.939   5.435  15.572  0.00  0.00    +0.000 A 
ATOM     25  C   UNL     1       5.351   4.435  14.821  0.00  0.00    +0.000 A 
ATOM     26  C   UNL     1       6.304   4.037  13.856  0.00  0.00    +0.000 A 
ATOM     27  C   UNL     1       7.418   4.817  14.078  0.00  0.00    +0.000 A 
ATOM     28  O   UNL     1       7.207   5.673  15.110  0.00  0.00    +0.000 OA
ENDBRANCH  21  24
ENDBRANCH   5  20
TORSDOF 6
ENDMDL
