MODEL 1
REMARK VINA RESULT:      -7.0      0.000      0.000
REMARK  Name = 
REMARK  12 active torsions:
REMARK  status: ('A' for Active; 'I' for Inactive)
REMARK    1  A    between atoms: C_1  and  O_2
REMARK    2  A    between atoms: O_2  and  C_3
REMARK    3  A    between atoms: C_3  and  C_5
REMARK    4  A    between atoms: C_5  and  N_6
REMARK    5  A    between atoms: C_5  and  C_21
REMARK    6  A    between atoms: C_7  and  C_9
REMARK    7  A    between atoms: C_9  and  C_10
REMARK    8  A    between atoms: C_10  and  C_11
REMARK    9  A    between atoms: C_11  and  C_13
REMARK   10  A    between atoms: C_14  and  C_15
REMARK   11  A    between atoms: C_21  and  C_22
REMARK   12  A    between atoms: C_21  and  C_23
REMARK                            x       y       z     vdW  Elec       q    Type
REMARK                         _______ _______ _______ _____ _____    ______ ____
ROOT
ATOM      1  N   UNL     1       3.360   4.992  18.799  0.00  0.00    +0.000 N 
ATOM      2  C   UNL     1       4.735   5.023  18.779  0.00  0.00    +0.000 C 
ATOM      3  O   UNL     1       5.430   4.067  19.116  0.00  0.00    +0.000 OA
ATOM      4  H   UNL     1       2.840   5.765  18.396  0.00  0.00    +0.000 HD
ENDROOT
BRANCH   1   5
ATOM      5  C   UNL     1       2.609   3.787  19.171  0.00  0.00    +0.000 C 
BRANCH   5   6
ATOM      6  C   UNL     1       1.560   4.085  20.267  0.00  0.00    +0.000 C 
ATOM      7  C   UNL     1       1.568   3.011  21.363  0.00  0.00    +0.000 C 
ATOM      8  C   UNL     1       1.744   5.459  20.920  0.00  0.00    +0.000 C 
ENDBRANCH   5   6
BRANCH   5   9
ATOM      9  C   UNL     1       1.955   3.167  17.923  0.00  0.00    +0.000 C 
ATOM     10  O   UNL     1       1.244   3.785  17.138  0.00  0.00    +0.000 OA
BRANCH   9  12
ATOM     11  C   UNL     1       3.462   1.437  18.453  0.00  0.00    +0.000 C 
ATOM     12  O   UNL     1       2.228   1.832  17.845  0.00  0.00    +0.000 OA
ENDBRANCH   9  12
ENDBRANCH   5   9
ENDBRANCH   1   5
BRANCH   2  13
ATOM     13  C   UNL     1       5.316   6.346  18.334  0.00  0.00    +0.000 C 
BRANCH  13  14
ATOM     14  C   UNL     1       6.843   6.300  18.360  0.00  0.00    +0.000 C 
BRANCH  14  15
ATOM     15  C   UNL     1       7.470   6.964  17.154  0.00  0.00    +0.000 C 
ATOM     16  O   UNL     1       7.631   6.385  16.081  0.00  0.00    +0.000 OA
BRANCH  15  17
ATOM     17  C   UNL     1       7.891   8.382  17.344  0.00  0.00    +0.000 C 
ATOM     18  C   UNL     1       8.507   8.777  18.470  0.00  0.00    +0.000 C 
BRANCH  18  19
ATOM     19  C   UNL     1       8.949  10.156  18.724  0.00  0.00    +0.000 A 
ATOM     20  C   UNL     1       9.861  10.494  19.728  0.00  0.00    +0.000 A 
ATOM     21  C   UNL     1      10.249  11.821  19.903  0.00  0.00    +0.000 A 
ATOM     22  C   UNL     1       9.721  12.777  19.055  0.00  0.00    +0.000 A 
ATOM     23  N   UNL     1       8.855  12.497  18.060  0.00  0.00    +0.000 NA
ATOM     24  C   UNL     1       8.496  11.198  17.916  0.00  0.00    +0.000 A 
ENDBRANCH  18  19
ENDBRANCH  15  17
ENDBRANCH  14  15
ENDBRANCH  13  14
ENDBRANCH   2  13
TORSDOF 9
ENDMDL
MODEL 2
REMARK VINA RESULT:      -6.9      1.612      2.097
REMARK  Name = 
REMARK  12 active torsions:
REMARK  status: ('A' for Active; 'I' for Inactive)
REMARK    1  A    between atoms: C_1  and  O_2
REMARK    2  A    between atoms: O_2  and  C_3
REMARK    3  A    between atoms: C_3  and  C_5
REMARK    4  A    between atoms: C_5  and  N_6
REMARK    5  A    between atoms: C_5  and  C_21
REMARK    6  A    between atoms: C_7  and  C_9
REMARK    7  A    between atoms: C_9  and  C_10
REMARK    8  A    between atoms: C_10  and  C_11
REMARK    9  A    between atoms: C_11  and  C_13
REMARK   10  A    between atoms: C_14  and  C_15
REMARK   11  A    between atoms: C_21  and  C_22
REMARK   12  A    between atoms: C_21  and  C_23
REMARK                            x       y       z     vdW  Elec       q    Type
REMARK                         _______ _______ _______ _____ _____    ______ ____
ROOT
ATOM      1  N   UNL     1       4.880   4.763  18.705  0.00  0.00    +0.000 N 
ATOM      2  C   UNL     1       6.179   5.065  19.037  0.00  0.00    +0.000 C 
ATOM      3  O   UNL     1       6.557   5.206  20.198  0.00  0.00    +0.000 OA
ATOM      4  H   UNL     1       4.652   4.539  17.741  0.00  0.00    +0.000 HD
ENDROOT
BRANCH   1   5
ATOM      5  C   UNL     1       3.846   4.526  19.719  0.00  0.00    +0.000 C 
BRANCH   5   6
ATOM      6  C   UNL     1       2.486   5.130  19.300  0.00  0.00    +0.000 C 
ATOM      7  C   UNL     1       1.910   6.038  20.394  0.00  0.00    +0.000 C 
ATOM      8  C   UNL     1       2.556   5.920  17.988  0.00  0.00    +0.000 C 
ENDBRANCH   5   6
BRANCH   5   9
ATOM      9  C   UNL     1       3.725   3.019  20.007  0.00  0.00    +0.000 C 
ATOM     10  O   UNL     1       4.680   2.255  20.097  0.00  0.00    +0.000 OA
BRANCH   9  12
ATOM     11  C   UNL     1       1.927   2.464  21.423  0.00  0.00    +0.000 C 
ATOM     12  O   UNL     1       2.415   2.644  20.089  0.00  0.00    +0.000 OA
ENDBRANCH   9  12
ENDBRANCH   5   9
ENDBRANCH   1   5
BRANCH   2  13
ATOM     13  C   UNL     1       7.097   5.236  17.848  0.00  0.00    +0.000 C 
BRANCH  13  14
ATOM     14  C   UNL     1       7.941   6.501  17.995  0.00  0.00    +0.000 C 
BRANCH  14  15
ATOM     15  C   UNL     1       7.282   7.720  17.388  0.00  0.00    +0.000 C 
ATOM     16  O   UNL     1       6.264   7.657  16.701  0.00  0.00    +0.000 OA
BRANCH  15  17
ATOM     17  C   UNL     1       7.950   9.023  17.673  0.00  0.00    +0.000 C 
ATOM     18  C   UNL     1       8.734   9.179  18.751  0.00  0.00    +0.000 C 
BRANCH  18  19
ATOM     19  C   UNL     1       9.422  10.433  19.091  0.00  0.00    +0.000 A 
ATOM     20  C   UNL     1       9.643  10.852  20.406  0.00  0.00    +0.000 A 
ATOM     21  C   UNL     1      10.316  12.046  20.657  0.00  0.00    +0.000 A 
ATOM     22  C   UNL     1      10.766  12.786  19.579  0.00  0.00    +0.000 A 
ATOM     23  N   UNL     1      10.595  12.413  18.294  0.00  0.00    +0.000 NA
ATOM     24  C   UNL     1       9.935  11.248  18.083  0.00  0.00    +0.000 A 
ENDBRANCH  18  19
ENDBRANCH  15  17
ENDBRANCH  14  15
ENDBRANCH  13  14
ENDBRANCH   2  13
TORSDOF 9
ENDMDL
MODEL 3
REMARK VINA RESULT:      -6.8      1.439      1.975
REMARK  Name = 
REMARK  12 active torsions:
REMARK  status: ('A' for Active; 'I' for Inactive)
REMARK    1  A    between atoms: C_1  and  O_2
REMARK    2  A    between atoms: O_2  and  C_3
REMARK    3  A    between atoms: C_3  and  C_5
REMARK    4  A    between atoms: C_5  and  N_6
REMARK    5  A    between atoms: C_5  and  C_21
REMARK    6  A    between atoms: C_7  and  C_9
REMARK    7  A    between atoms: C_9  and  C_10
REMARK    8  A    between atoms: C_10  and  C_11
REMARK    9  A    between atoms: C_11  and  C_13
REMARK   10  A    between atoms: C_14  and  C_15
REMARK   11  A    between atoms: C_21  and  C_22
REMARK   12  A    between atoms: C_21  and  C_23
REMARK                            x       y       z     vdW  Elec       q    Type
REMARK                         _______ _______ _______ _____ _____    ______ ____
ROOT
ATOM      1  N   UNL     1       4.596   5.628  18.809  0.00  0.00    +0.000 N 
ATOM      2  C   UNL     1       5.521   4.610  18.833  0.00  0.00    +0.000 C 
ATOM      3  O   UNL     1       5.357   3.573  19.470  0.00  0.00    +0.000 OA
ATOM      4  H   UNL     1       4.729   6.406  18.171  0.00  0.00    +0.000 HD
ENDROOT
BRANCH   1   5
ATOM      5  C   UNL     1       3.305   5.531  19.502  0.00  0.00    +0.000 C 
BRANCH   5   6
ATOM      6  C   UNL     1       2.659   6.921  19.701  0.00  0.00    +0.000 C 
ATOM      7  C   UNL     1       2.254   7.551  18.362  0.00  0.00    +0.000 C 
ATOM      8  C   UNL     1       1.437   6.892  20.624  0.00  0.00    +0.000 C 
ENDBRANCH   5   6
BRANCH   5   9
ATOM      9  C   UNL     1       2.367   4.580  18.738  0.00  0.00    +0.000 C 
ATOM     10  O   UNL     1       2.374   4.435  17.521  0.00  0.00    +0.000 OA
BRANCH   9  12
ATOM     11  C   UNL     1       2.112   3.159  20.599  0.00  0.00    +0.000 C 
ATOM     12  O   UNL     1       1.495   3.969  19.592  0.00  0.00    +0.000 OA
ENDBRANCH   9  12
ENDBRANCH   5   9
ENDBRANCH   1   5
BRANCH   2  13
ATOM     13  C   UNL     1       6.769   4.892  18.027  0.00  0.00    +0.000 C 
BRANCH  13  14
ATOM     14  C   UNL     1       7.635   5.940  18.724  0.00  0.00    +0.000 C 
BRANCH  14  15
ATOM     15  C   UNL     1       7.758   7.221  17.929  0.00  0.00    +0.000 C 
ATOM     16  O   UNL     1       7.190   7.398  16.853  0.00  0.00    +0.000 OA
BRANCH  15  17
ATOM     17  C   UNL     1       8.625   8.275  18.533  0.00  0.00    +0.000 C 
ATOM     18  C   UNL     1       8.454   9.571  18.229  0.00  0.00    +0.000 C 
BRANCH  18  19
ATOM     19  C   UNL     1       9.271  10.659  18.787  0.00  0.00    +0.000 A 
ATOM     20  C   UNL     1       9.520  10.803  20.155  0.00  0.00    +0.000 A 
ATOM     21  C   UNL     1      10.316  11.850  20.615  0.00  0.00    +0.000 A 
ATOM     22  C   UNL     1      10.857  12.721  19.686  0.00  0.00    +0.000 A 
ATOM     23  N   UNL     1      10.662  12.611  18.356  0.00  0.00    +0.000 NA
ATOM     24  C   UNL     1       9.882  11.583  17.941  0.00  0.00    +0.000 A 
ENDBRANCH  18  19
ENDBRANCH  15  17
ENDBRANCH  14  15
ENDBRANCH  13  14
ENDBRANCH   2  13
TORSDOF 9
ENDMDL
MODEL 4
REMARK VINA RESULT:      -6.7      1.206      1.604
REMARK  Name = 
REMARK  12 active torsions:
REMARK  status: ('A' for Active; 'I' for Inactive)
REMARK    1  A    between atoms: C_1  and  O_2
REMARK    2  A    between atoms: O_2  and  C_3
REMARK    3  A    between atoms: C_3  and  C_5
REMARK    4  A    between atoms: C_5  and  N_6
REMARK    5  A    between atoms: C_5  and  C_21
REMARK    6  A    between atoms: C_7  and  C_9
REMARK    7  A    between atoms: C_9  and  C_10
REMARK    8  A    between atoms: C_10  and  C_11
REMARK    9  A    between atoms: C_11  and  C_13
REMARK   10  A    between atoms: C_14  and  C_15
REMARK   11  A    between atoms: C_21  and  C_22
REMARK   12  A    between atoms: C_21  and  C_23
REMARK                            x       y       z     vdW  Elec       q    Type
REMARK                         _______ _______ _______ _____ _____    ______ ____
ROOT
ATOM      1  N   UNL     1       4.492   4.990  19.680  0.00  0.00    +0.000 N 
ATOM      2  C   UNL     1       5.718   4.802  19.086  0.00  0.00    +0.000 C 
ATOM      3  O   UNL     1       5.951   3.875  18.315  0.00  0.00    +0.000 OA
ATOM      4  H   UNL     1       4.321   5.839  20.210  0.00  0.00    +0.000 HD
ENDROOT
BRANCH   1   5
ATOM      5  C   UNL     1       3.340   4.126  19.392  0.00  0.00    +0.000 C 
BRANCH   5   6
ATOM      6  C   UNL     1       2.273   4.209  20.507  0.00  0.00    +0.000 C 
ATOM      7  C   UNL     1       1.829   5.656  20.759  0.00  0.00    +0.000 C 
ATOM      8  C   UNL     1       1.034   3.354  20.222  0.00  0.00    +0.000 C 
ENDBRANCH   5   6
BRANCH   5   9
ATOM      9  C   UNL     1       2.744   4.483  18.018  0.00  0.00    +0.000 C 
ATOM     10  O   UNL     1       2.241   5.567  17.745  0.00  0.00    +0.000 OA
BRANCH   9  12
ATOM     11  C   UNL     1       3.124   2.168  17.802  0.00  0.00    +0.000 C 
ATOM     12  O   UNL     1       2.802   3.413  17.172  0.00  0.00    +0.000 OA
ENDBRANCH   9  12
ENDBRANCH   5   9
ENDBRANCH   1   5
BRANCH   2  13
ATOM     13  C   UNL     1       6.761   5.819  19.488  0.00  0.00    +0.000 C 
BRANCH  13  14
ATOM     14  C   UNL     1       7.709   6.108  18.325  0.00  0.00    +0.000 C 
BRANCH  14  15
ATOM     15  C   UNL     1       7.185   7.179  17.394  0.00  0.00    +0.000 C 
ATOM     16  O   UNL     1       6.353   6.953  16.516  0.00  0.00    +0.000 OA
BRANCH  15  17
ATOM     17  C   UNL     1       7.745   8.546  17.602  0.00  0.00    +0.000 C 
ATOM     18  C   UNL     1       8.561   8.810  18.635  0.00  0.00    +0.000 C 
BRANCH  18  19
ATOM     19  C   UNL     1       9.149  10.131  18.899  0.00  0.00    +0.000 A 
ATOM     20  C   UNL     1       9.334  11.098  17.906  0.00  0.00    +0.000 A 
ATOM     21  C   UNL     1       9.884  12.337  18.229  0.00  0.00    +0.000 A 
ATOM     22  C   UNL     1      10.221  12.583  19.548  0.00  0.00    +0.000 A 
ATOM     23  N   UNL     1      10.042  11.690  20.544  0.00  0.00    +0.000 NA
ATOM     24  C   UNL     1       9.506  10.494  20.196  0.00  0.00    +0.000 A 
ENDBRANCH  18  19
ENDBRANCH  15  17
ENDBRANCH  14  15
ENDBRANCH  13  14
ENDBRANCH   2  13
TORSDOF 9
ENDMDL
MODEL 5
REMARK VINA RESULT:      -6.7      1.676      2.260
REMARK  Name = 
REMARK  12 active torsions:
REMARK  status: ('A' for Active; 'I' for Inactive)
REMARK    1  A    between atoms: C_1  and  O_2
REMARK    2  A    between atoms: O_2  and  C_3
REMARK    3  A    between atoms: C_3  and  C_5
REMARK    4  A    between atoms: C_5  and  N_6
REMARK    5  A    between atoms: C_5  and  C_21
REMARK    6  A    between atoms: C_7  and  C_9
REMARK    7  A    between atoms: C_9  and  C_10
REMARK    8  A    between atoms: C_10  and  C_11
REMARK    9  A    between atoms: C_11  and  C_13
REMARK   10  A    between atoms: C_14  and  C_15
REMARK   11  A    between atoms: C_21  and  C_22
REMARK   12  A    between atoms: C_21  and  C_23
REMARK                            x       y       z     vdW  Elec       q    Type
REMARK                         _______ _______ _______ _____ _____    ______ ____
ROOT
ATOM      1  N   UNL     1       5.364   5.368  18.465  0.00  0.00    +0.000 N 
ATOM      2  C   UNL     1       6.629   5.398  19.005  0.00  0.00    +0.000 C 
ATOM      3  O   UNL     1       6.869   5.068  20.163  0.00  0.00    +0.000 OA
ATOM      4  H   UNL     1       5.244   5.535  17.471  0.00  0.00    +0.000 HD
ENDROOT
BRANCH   1   5
ATOM      5  C   UNL     1       4.201   4.883  19.218  0.00  0.00    +0.000 C 
BRANCH   5   6
ATOM      6  C   UNL     1       2.924   5.680  18.870  0.00  0.00    +0.000 C 
ATOM      7  C   UNL     1       2.118   6.031  20.128  0.00  0.00    +0.000 C 
ATOM      8  C   UNL     1       3.209   6.967  18.090  0.00  0.00    +0.000 C 
ENDBRANCH   5   6
BRANCH   5   9
ATOM      9  C   UNL     1       4.007   3.375  18.973  0.00  0.00    +0.000 C 
ATOM     10  O   UNL     1       3.220   2.905  18.160  0.00  0.00    +0.000 OA
BRANCH   9  12
ATOM     11  C   UNL     1       4.082   2.055  20.922  0.00  0.00    +0.000 C 
ATOM     12  O   UNL     1       4.785   2.642  19.822  0.00  0.00    +0.000 OA
ENDBRANCH   9  12
ENDBRANCH   5   9
ENDBRANCH   1   5
BRANCH   2  13
ATOM     13  C   UNL     1       7.693   5.898  18.055  0.00  0.00    +0.000 C 
BRANCH  13  14
ATOM     14  C   UNL     1       8.265   7.230  18.539  0.00  0.00    +0.000 C 
BRANCH  14  15
ATOM     15  C   UNL     1       7.767   8.409  17.732  0.00  0.00    +0.000 C 
ATOM     16  O   UNL     1       6.829   8.330  16.942  0.00  0.00    +0.000 OA
BRANCH  15  17
ATOM     17  C   UNL     1       8.494   9.693  17.952  0.00  0.00    +0.000 C 
ATOM     18  C   UNL     1       9.127   9.942  19.110  0.00  0.00    +0.000 C 
BRANCH  18  19
ATOM     19  C   UNL     1       9.861  11.184  19.393  0.00  0.00    +0.000 A 
ATOM     20  C   UNL     1       9.973  11.730  20.675  0.00  0.00    +0.000 A 
ATOM     21  C   UNL     1      10.698  12.903  20.875  0.00  0.00    +0.000 A 
ATOM     22  C   UNL     1      11.307  13.494  19.783  0.00  0.00    +0.000 A 
ATOM     23  N   UNL     1      11.245  12.994  18.531  0.00  0.00    +0.000 NA
ATOM     24  C   UNL     1      10.531  11.852  18.370  0.00  0.00    +0.000 A 
ENDBRANCH  18  19
ENDBRANCH  15  17
ENDBRANCH  14  15
ENDBRANCH  13  14
ENDBRANCH   2  13
TORSDOF 9
ENDMDL
MODEL 6
REMARK VINA RESULT:      -6.7      1.877      2.732
REMARK  Name = 
REMARK  12 active torsions:
REMARK  status: ('A' for Active; 'I' for Inactive)
REMARK    1  A    between atoms: C_1  and  O_2
REMARK    2  A    between atoms: O_2  and  C_3
REMARK    3  A    between atoms: C_3  and  C_5
REMARK    4  A    between atoms: C_5  and  N_6
REMARK    5  A    between atoms: C_5  and  C_21
REMARK    6  A    between atoms: C_7  and  C_9
REMARK    7  A    between atoms: C_9  and  C_10
REMARK    8  A    between atoms: C_10  and  C_11
REMARK    9  A    between atoms: C_11  and  C_13
REMARK   10  A    between atoms: C_14  and  C_15
REMARK   11  A    between atoms: C_21  and  C_22
REMARK   12  A    between atoms: C_21  and  C_23
REMARK                            x       y       z     vdW  Elec       q    Type
REMARK                         _______ _______ _______ _____ _____    ______ ____
ROOT
ATOM      1  N   UNL     1       4.172   5.064  18.939  0.00  0.00    +0.000 N 
ATOM      2  C   UNL     1       4.923   4.815  17.814  0.00  0.00    +0.000 C 
ATOM      3  O   UNL     1       4.432   4.699  16.694  0.00  0.00    +0.000 OA
ATOM      4  H   UNL     1       4.642   5.271  19.815  0.00  0.00    +0.000 HD
ENDROOT
BRANCH   1   5
ATOM      5  C   UNL     1       2.719   5.268  18.882  0.00  0.00    +0.000 C 
BRANCH   5   6
ATOM      6  C   UNL     1       1.948   4.003  19.322  0.00  0.00    +0.000 C 
ATOM      7  C   UNL     1       1.476   3.182  18.115  0.00  0.00    +0.000 C 
ATOM      8  C   UNL     1       2.759   3.095  20.252  0.00  0.00    +0.000 C 
ENDBRANCH   5   6
BRANCH   5   9
ATOM      9  C   UNL     1       2.326   6.490  19.732  0.00  0.00    +0.000 C 
ATOM     10  O   UNL     1       1.652   6.430  20.755  0.00  0.00    +0.000 OA
BRANCH   9  12
ATOM     11  C   UNL     1       2.221   7.934  17.876  0.00  0.00    +0.000 C 
ATOM     12  O   UNL     1       2.778   7.644  19.162  0.00  0.00    +0.000 OA
ENDBRANCH   9  12
ENDBRANCH   5   9
ENDBRANCH   1   5
BRANCH   2  13
ATOM     13  C   UNL     1       6.404   4.670  18.081  0.00  0.00    +0.000 C 
BRANCH  13  14
ATOM     14  C   UNL     1       7.008   6.007  18.510  0.00  0.00    +0.000 C 
BRANCH  14  15
ATOM     15  C   UNL     1       7.425   6.866  17.337  0.00  0.00    +0.000 C 
ATOM     16  O   UNL     1       7.575   6.419  16.202  0.00  0.00    +0.000 OA
BRANCH  15  17
ATOM     17  C   UNL     1       7.649   8.309  17.642  0.00  0.00    +0.000 C 
ATOM     18  C   UNL     1       8.688   8.705  18.395  0.00  0.00    +0.000 C 
BRANCH  18  19
ATOM     19  C   UNL     1       8.968  10.108  18.733  0.00  0.00    +0.000 A 
ATOM     20  C   UNL     1       8.811  11.159  17.825  0.00  0.00    +0.000 A 
ATOM     21  C   UNL     1       9.081  12.469  18.218  0.00  0.00    +0.000 A 
ATOM     22  C   UNL     1       9.488  12.694  19.521  0.00  0.00    +0.000 A 
ATOM     23  N   UNL     1       9.634  11.715  20.438  0.00  0.00    +0.000 NA
ATOM     24  C   UNL     1       9.365  10.452  20.024  0.00  0.00    +0.000 A 
ENDBRANCH  18  19
ENDBRANCH  15  17
ENDBRANCH  14  15
ENDBRANCH  13  14
ENDBRANCH   2  13
TORSDOF 9
ENDMDL
MODEL 7
REMARK VINA RESULT:      -6.7      1.726      2.527
REMARK  Name = 
REMARK  12 active torsions:
REMARK  status: ('A' for Active; 'I' for Inactive)
REMARK    1  A    between atoms: C_1  and  O_2
REMARK    2  A    between atoms: O_2  and  C_3
REMARK    3  A    between atoms: C_3  and  C_5
REMARK    4  A    between atoms: C_5  and  N_6
REMARK    5  A    between atoms: C_5  and  C_21
REMARK    6  A    between atoms: C_7  and  C_9
REMARK    7  A    between atoms: C_9  and  C_10
REMARK    8  A    between atoms: C_10  and  C_11
REMARK    9  A    between atoms: C_11  and  C_13
REMARK   10  A    between atoms: C_14  and  C_15
REMARK   11  A    between atoms: C_21  and  C_22
REMARK   12  A    between atoms: C_21  and  C_23
REMARK                            x       y       z     vdW  Elec       q    Type
REMARK                         _______ _______ _______ _____ _____    ______ ____
ROOT
ATOM      1  N   UNL     1       5.328   4.460  17.931  0.00  0.00    +0.000 N 
ATOM      2  C   UNL     1       6.361   4.196  17.062  0.00  0.00    +0.000 C 
ATOM      3  O   UNL     1       6.210   3.579  16.011  0.00  0.00    +0.000 OA
ATOM      4  H   UNL     1       5.488   5.077  18.721  0.00  0.00    +0.000 HD
ENDROOT
BRANCH   1   5
ATOM      5  C   UNL     1       3.942   4.071  17.642  0.00  0.00    +0.000 C 
BRANCH   5   6
ATOM      6  C   UNL     1       3.557   2.758  18.362  0.00  0.00    +0.000 C 
ATOM      7  C   UNL     1       3.438   2.960  19.878  0.00  0.00    +0.000 C 
ATOM      8  C   UNL     1       2.253   2.145  17.841  0.00  0.00    +0.000 C 
ENDBRANCH   5   6
BRANCH   5   9
ATOM      9  C   UNL     1       2.985   5.217  18.013  0.00  0.00    +0.000 C 
ATOM     10  O   UNL     1       1.773   5.189  17.833  0.00  0.00    +0.000 OA
BRANCH   9  12
ATOM     11  C   UNL     1       3.529   7.495  17.766  0.00  0.00    +0.000 C 
ATOM     12  O   UNL     1       3.675   6.283  18.513  0.00  0.00    +0.000 OA
ENDBRANCH   9  12
ENDBRANCH   5   9
ENDBRANCH   1   5
BRANCH   2  13
ATOM     13  C   UNL     1       7.705   4.710  17.528  0.00  0.00    +0.000 C 
BRANCH  13  14
ATOM     14  C   UNL     1       7.530   5.895  18.477  0.00  0.00    +0.000 C 
BRANCH  14  15
ATOM     15  C   UNL     1       7.539   7.227  17.760  0.00  0.00    +0.000 C 
ATOM     16  O   UNL     1       7.002   7.402  16.668  0.00  0.00    +0.000 OA
BRANCH  15  17
ATOM     17  C   UNL     1       8.251   8.333  18.463  0.00  0.00    +0.000 C 
ATOM     18  C   UNL     1       8.403   9.536  17.888  0.00  0.00    +0.000 C 
BRANCH  18  19
ATOM     19  C   UNL     1       9.092  10.669  18.524  0.00  0.00    +0.000 A 
ATOM     20  C   UNL     1       9.735  10.575  19.762  0.00  0.00    +0.000 A 
ATOM     21  C   UNL     1      10.382  11.686  20.300  0.00  0.00    +0.000 A 
ATOM     22  C   UNL     1      10.383  12.862  19.573  0.00  0.00    +0.000 A 
ATOM     23  N   UNL     1       9.795  12.995  18.366  0.00  0.00    +0.000 NA
ATOM     24  C   UNL     1       9.172  11.897  17.871  0.00  0.00    +0.000 A 
ENDBRANCH  18  19
ENDBRANCH  15  17
ENDBRANCH  14  15
ENDBRANCH  13  14
ENDBRANCH   2  13
TORSDOF 9
ENDMDL
MODEL 8
REMARK VINA RESULT:      -6.7      1.628      2.348
REMARK  Name = 
REMARK  12 active torsions:
REMARK  status: ('A' for Active; 'I' for Inactive)
REMARK    1  A    between atoms: C_1  and  O_2
REMARK    2  A    between atoms: O_2  and  C_3
REMARK    3  A    between atoms: C_3  and  C_5
REMARK    4  A    between atoms: C_5  and  N_6
REMARK    5  A    between atoms: C_5  and  C_21
REMARK    6  A    between atoms: C_7  and  C_9
REMARK    7  A    between atoms: C_9  and  C_10
REMARK    8  A    between atoms: C_10  and  C_11
REMARK    9  A    between atoms: C_11  and  C_13
REMARK   10  A    between atoms: C_14  and  C_15
REMARK   11  A    between atoms: C_21  and  C_22
REMARK   12  A    between atoms: C_21  and  C_23
REMARK                            x       y       z     vdW  Elec       q    Type
REMARK                         _______ _______ _______ _____ _____    ______ ____
ROOT
ATOM      1  N   UNL     1       4.780   4.037  18.359  0.00  0.00    +0.000 N 
ATOM      2  C   UNL     1       5.778   4.334  17.461  0.00  0.00    +0.000 C 
ATOM      3  O   UNL     1       5.615   4.299  16.244  0.00  0.00    +0.000 OA
ATOM      4  H   UNL     1       4.936   4.200  19.349  0.00  0.00    +0.000 HD
ENDROOT
BRANCH   1   5
ATOM      5  C   UNL     1       3.414   3.706  17.932  0.00  0.00    +0.000 C 
BRANCH   5   6
ATOM      6  C   UNL     1       2.875   2.457  18.664  0.00  0.00    +0.000 C 
ATOM      7  C   UNL     1       3.785   1.240  18.451  0.00  0.00    +0.000 C 
ATOM      8  C   UNL     1       2.684   2.675  20.169  0.00  0.00    +0.000 C 
ENDBRANCH   5   6
BRANCH   5   9
ATOM      9  C   UNL     1       2.490   4.920  18.136  0.00  0.00    +0.000 C 
ATOM     10  O   UNL     1       1.364   5.017  17.662  0.00  0.00    +0.000 OA
BRANCH   9  12
ATOM     11  C   UNL     1       2.373   7.104  19.011  0.00  0.00    +0.000 C 
ATOM     12  O   UNL     1       3.117   5.889  18.865  0.00  0.00    +0.000 OA
ENDBRANCH   9  12
ENDBRANCH   5   9
ENDBRANCH   1   5
BRANCH   2  13
ATOM     13  C   UNL     1       7.101   4.682  18.104  0.00  0.00    +0.000 C 
BRANCH  13  14
ATOM     14  C   UNL     1       7.064   6.094  18.687  0.00  0.00    +0.000 C 
BRANCH  14  15
ATOM     15  C   UNL     1       7.732   7.115  17.793  0.00  0.00    +0.000 C 
ATOM     16  O   UNL     1       7.613   7.114  16.570  0.00  0.00    +0.000 OA
BRANCH  15  17
ATOM     17  C   UNL     1       8.561   8.140  18.493  0.00  0.00    +0.000 C 
ATOM     18  C   UNL     1       8.461   9.442  18.182  0.00  0.00    +0.000 C 
BRANCH  18  19
ATOM     19  C   UNL     1       9.246  10.503  18.830  0.00  0.00    +0.000 A 
ATOM     20  C   UNL     1       9.269  10.698  20.215  0.00  0.00    +0.000 A 
ATOM     21  C   UNL     1      10.047  11.716  20.765  0.00  0.00    +0.000 A 
ATOM     22  C   UNL     1      10.797  12.504  19.911  0.00  0.00    +0.000 A 
ATOM     23  N   UNL     1      10.823  12.341  18.572  0.00  0.00    +0.000 NA
ATOM     24  C   UNL     1      10.054  11.344  18.068  0.00  0.00    +0.000 A 
ENDBRANCH  18  19
ENDBRANCH  15  17
ENDBRANCH  14  15
ENDBRANCH  13  14
ENDBRANCH   2  13
TORSDOF 9
ENDMDL
MODEL 9
REMARK VINA RESULT:      -6.6      3.339      6.909
REMARK  Name = 
REMARK  12 active torsions:
REMARK  status: ('A' for Active; 'I' for Inactive)
REMARK    1  A    between atoms: C_1  and  O_2
REMARK    2  A    between atoms: O_2  and  C_3
REMARK    3  A    between atoms: C_3  and  C_5
REMARK    4  A    between atoms: C_5  and  N_6
REMARK    5  A    between atoms: C_5  and  C_21
REMARK    6  A    between atoms: C_7  and  C_9
REMARK    7  A    between atoms: C_9  and  C_10
REMARK    8  A    between atoms: C_10  and  C_11
REMARK    9  A    between atoms: C_11  and  C_13
REMARK   10  A    between atoms: C_14  and  C_15
REMARK   11  A    between atoms: C_21  and  C_22
REMARK   12  A    between atoms: C_21  and  C_23
REMARK                            x       y       z     vdW  Elec       q    Type
REMARK                         _______ _______ _______ _____ _____    ______ ____
ROOT
ATOM      1  N   UNL     1       5.132   3.834  16.321  0.00  0.00    +0.000 N 
ATOM      2  C   UNL     1       4.857   3.851  17.668  0.00  0.00    +0.000 C 
ATOM      3  O   UNL     1       5.633   4.311  18.502  0.00  0.00    +0.000 OA
ATOM      4  H   UNL     1       4.405   3.554  15.669  0.00  0.00    +0.000 HD
ENDROOT
BRANCH   1   5
ATOM      5  C   UNL     1       6.357   4.419  15.762  0.00  0.00    +0.000 C 
BRANCH   5   6
ATOM      6  C   UNL     1       6.559   4.015  14.284  0.00  0.00    +0.000 C 
ATOM      7  C   UNL     1       5.220   3.886  13.546  0.00  0.00    +0.000 C 
ATOM      8  C   UNL     1       7.459   4.985  13.511  0.00  0.00    +0.000 C 
ENDBRANCH   5   6
BRANCH   5   9
ATOM      9  C   UNL     1       6.333   5.949  15.928  0.00  0.00    +0.000 C 
ATOM     10  O   UNL     1       5.403   6.666  15.576  0.00  0.00    +0.000 OA
BRANCH   9  12
ATOM     11  C   UNL     1       7.358   7.418  17.457  0.00  0.00    +0.000 C 
ATOM     12  O   UNL     1       7.505   6.397  16.463  0.00  0.00    +0.000 OA
ENDBRANCH   9  12
ENDBRANCH   5   9
ENDBRANCH   1   5
BRANCH   2  13
ATOM     13  C   UNL     1       3.529   3.230  18.035  0.00  0.00    +0.000 C 
BRANCH  13  14
ATOM     14  C   UNL     1       3.599   2.584  19.418  0.00  0.00    +0.000 C 
BRANCH  14  15
ATOM     15  C   UNL     1       2.726   3.283  20.437  0.00  0.00    +0.000 C 
ATOM     16  O   UNL     1       2.521   2.832  21.562  0.00  0.00    +0.000 OA
BRANCH  15  17
ATOM     17  C   UNL     1       2.115   4.568  19.989  0.00  0.00    +0.000 C 
ATOM     18  C   UNL     1       2.766   5.733  20.135  0.00  0.00    +0.000 C 
BRANCH  18  19
ATOM     19  C   UNL     1       2.225   7.034  19.717  0.00  0.00    +0.000 A 
ATOM     20  C   UNL     1       1.561   7.901  20.589  0.00  0.00    +0.000 A 
ATOM     21  C   UNL     1       1.085   9.128  20.129  0.00  0.00    +0.000 A 
ATOM     22  C   UNL     1       1.302   9.462  18.804  0.00  0.00    +0.000 A 
ATOM     23  N   UNL     1       1.954   8.667  17.931  0.00  0.00    +0.000 NA
ATOM     24  C   UNL     1       2.403   7.481  18.409  0.00  0.00    +0.000 A 
ENDBRANCH  18  19
ENDBRANCH  15  17
ENDBRANCH  14  15
ENDBRANCH  13  14
ENDBRANCH   2  13
TORSDOF 9
ENDMDL
