MODEL 1
REMARK VINA RESULT:      -8.7      0.000      0.000
REMARK  Name = 
REMARK  11 active torsions:
REMARK  status: ('A' for Active; 'I' for Inactive)
REMARK    1  A    between atoms: C_2  and  O_3
REMARK    2  A    between atoms: C_2  and  C_4
REMARK    3  A    between atoms: C_6  and  C_7
REMARK    4  A    between atoms: C_15  and  C_17
REMARK    5  A    between atoms: C_17  and  P_18
REMARK    6  A    between atoms: P_18  and  O_20
REMARK    7  A    between atoms: P_18  and  C_21
REMARK    8  A    between atoms: C_21  and  C_22
REMARK    9  A    between atoms: C_22  and  C_23
REMARK   10  A    between atoms: C_23  and  C_24
REMARK   11  A    between atoms: C_24  and  C_25
REMARK                            x       y       z     vdW  Elec       q    Type
REMARK                         _______ _______ _______ _____ _____    ______ ____
ROOT
ATOM      1  C   UNL     1       2.831   3.875  19.074  0.00  0.00    +0.000 C 
ATOM      2  C   UNL     1       1.868   4.895  19.694  0.00  0.00    +0.000 C 
ATOM      3  C   UNL     1       2.558   6.244  19.530  0.00  0.00    +0.000 C 
ATOM      4  C   UNL     1       3.454   6.064  18.308  0.00  0.00    +0.000 C 
ATOM      5  N   UNL     1       3.460   4.652  17.996  0.00  0.00    +0.000 N 
ATOM      6  C   UNL     1       4.377   4.090  17.135  0.00  0.00    +0.000 C 
ATOM      7  O   UNL     1       4.449   2.864  17.087  0.00  0.00    +0.000 OA
ENDROOT
BRANCH   3   8
ATOM      8  C   UNL     1       1.591   7.432  19.361  0.00  0.00    +0.000 C 
ATOM      9  C   UNL     1       2.023   8.314  18.174  0.00  0.00    +0.000 C 
ATOM     10  C   UNL     1       1.133   9.538  18.013  0.00  0.00    +0.000 C 
ATOM     11  C   UNL     1       1.077  10.350  19.301  0.00  0.00    +0.000 C 
ATOM     12  C   UNL     1       0.606   9.491  20.470  0.00  0.00    +0.000 C 
ATOM     13  C   UNL     1       1.485   8.259  20.652  0.00  0.00    +0.000 C 
ENDBRANCH   3   8
BRANCH   1  15
ATOM     14  O   UNL     1       0.773   2.674  18.640  0.00  0.00    +0.000 OA
ATOM     15  C   UNL     1       1.986   2.618  18.798  0.00  0.00    +0.000 C 
BRANCH  15  16
ATOM     16  O   UNL     1       2.635   1.443  18.739  0.00  0.00    +0.000 OA
ATOM     17  H   UNL     1       2.850   1.117  19.626  0.00  0.00    +0.000 HD
ENDBRANCH  15  16
ENDBRANCH   1  15
BRANCH   6  18
ATOM     18  C   UNL     1       5.172   5.018  16.228  0.00  0.00    +0.000 C 
BRANCH  18  19
ATOM     19  P   UNL     1       6.428   5.939  17.188  0.00  0.00    +0.000 P 
ATOM     20  O   UNL     1       7.483   5.571  16.130  0.00  0.00    +0.000 OA
BRANCH  19  21
ATOM     21  O   UNL     1       5.875   7.361  16.538  0.00  0.00    +0.000 OA
ATOM     22  H   UNL     1       5.900   8.043  17.262  0.00  0.00    +0.000 HD
ENDBRANCH  19  21
BRANCH  19  23
ATOM     23  C   UNL     1       7.685   6.860  18.148  0.00  0.00    +0.000 C 
BRANCH  23  24
ATOM     24  C   UNL     1       7.911   8.276  17.602  0.00  0.00    +0.000 C 
BRANCH  24  25
ATOM     25  C   UNL     1       8.769   9.154  18.501  0.00  0.00    +0.000 C 
BRANCH  25  26
ATOM     26  C   UNL     1       8.821  10.575  17.922  0.00  0.00    +0.000 C 
BRANCH  26  27
ATOM     27  C   UNL     1       9.988  11.346  18.471  0.00  0.00    +0.000 A 
ATOM     28  C   UNL     1      10.751  12.169  17.633  0.00  0.00    +0.000 A 
ATOM     29  C   UNL     1      11.855  12.855  18.139  0.00  0.00    +0.000 A 
ATOM     30  C   UNL     1      12.206  12.720  19.480  0.00  0.00    +0.000 A 
ATOM     31  C   UNL     1      11.453  11.902  20.323  0.00  0.00    +0.000 A 
ATOM     32  C   UNL     1      10.348  11.216  19.819  0.00  0.00    +0.000 A 
ENDBRANCH  26  27
ENDBRANCH  25  26
ENDBRANCH  24  25
ENDBRANCH  23  24
ENDBRANCH  19  23
ENDBRANCH  18  19
ENDBRANCH   6  18
TORSDOF 11
ENDMDL
MODEL 2
REMARK VINA RESULT:      -7.9      5.125      8.229
REMARK  Name = 
REMARK  11 active torsions:
REMARK  status: ('A' for Active; 'I' for Inactive)
REMARK    1  A    between atoms: C_2  and  O_3
REMARK    2  A    between atoms: C_2  and  C_4
REMARK    3  A    between atoms: C_6  and  C_7
REMARK    4  A    between atoms: C_15  and  C_17
REMARK    5  A    between atoms: C_17  and  P_18
REMARK    6  A    between atoms: P_18  and  O_20
REMARK    7  A    between atoms: P_18  and  C_21
REMARK    8  A    between atoms: C_21  and  C_22
REMARK    9  A    between atoms: C_22  and  C_23
REMARK   10  A    between atoms: C_23  and  C_24
REMARK   11  A    between atoms: C_24  and  C_25
REMARK                            x       y       z     vdW  Elec       q    Type
REMARK                         _______ _______ _______ _____ _____    ______ ____
ROOT
ATOM      1  C   UNL     1       0.370  10.250  21.289  0.00  0.00    +0.000 C 
ATOM      2  C   UNL     1      -0.783  11.218  21.001  0.00  0.00    +0.000 C 
ATOM      3  C   UNL     1      -0.588  11.650  19.552  0.00  0.00    +0.000 C 
ATOM      4  C   UNL     1       0.160  10.487  18.909  0.00  0.00    +0.000 C 
ATOM      5  N   UNL     1       0.579   9.612  19.981  0.00  0.00    +0.000 N 
ATOM      6  C   UNL     1       1.513   8.617  19.798  0.00  0.00    +0.000 C 
ATOM      7  O   UNL     1       1.968   8.061  20.796  0.00  0.00    +0.000 OA
ENDROOT
BRANCH   3   8
ATOM      8  C   UNL     1      -1.898  11.973  18.807  0.00  0.00    +0.000 C 
ATOM      9  C   UNL     1      -3.072  12.075  19.800  0.00  0.00    +0.000 C 
ATOM     10  C   UNL     1      -4.399  12.326  19.099  0.00  0.00    +0.000 C 
ATOM     11  C   UNL     1      -4.672  11.262  18.043  0.00  0.00    +0.000 C 
ATOM     12  C   UNL     1      -3.533  11.190  17.031  0.00  0.00    +0.000 C 
ATOM     13  C   UNL     1      -2.193  10.937  17.711  0.00  0.00    +0.000 C 
ENDBRANCH   3   8
BRANCH   1  15
ATOM     14  O   UNL     1       0.261   9.804  23.666  0.00  0.00    +0.000 OA
ATOM     15  C   UNL     1      -0.054   9.454  22.536  0.00  0.00    +0.000 C 
BRANCH  15  16
ATOM     16  O   UNL     1      -0.788   8.347  22.337  0.00  0.00    +0.000 OA
ATOM     17  H   UNL     1      -1.721   8.503  22.546  0.00  0.00    +0.000 HD
ENDBRANCH  15  16
ENDBRANCH   1  15
BRANCH   6  18
ATOM     18  C   UNL     1       1.850   8.200  18.374  0.00  0.00    +0.000 C 
BRANCH  18  19
ATOM     19  P   UNL     1       3.125   6.888  18.370  0.00  0.00    +0.000 P 
ATOM     20  O   UNL     1       2.098   5.913  17.768  0.00  0.00    +0.000 OA
BRANCH  19  21
ATOM     21  O   UNL     1       3.758   7.515  16.972  0.00  0.00    +0.000 OA
ATOM     22  H   UNL     1       4.619   7.045  16.803  0.00  0.00    +0.000 HD
ENDBRANCH  19  21
BRANCH  19  23
ATOM     23  C   UNL     1       4.401   5.576  18.366  0.00  0.00    +0.000 C 
BRANCH  23  24
ATOM     24  C   UNL     1       4.238   4.610  17.185  0.00  0.00    +0.000 C 
BRANCH  24  25
ATOM     25  C   UNL     1       4.458   3.149  17.547  0.00  0.00    +0.000 C 
BRANCH  25  26
ATOM     26  C   UNL     1       3.100   2.438  17.638  0.00  0.00    +0.000 C 
BRANCH  26  27
ATOM     27  C   UNL     1       2.486   2.604  18.999  0.00  0.00    +0.000 A 
ATOM     28  C   UNL     1       1.129   2.926  19.130  0.00  0.00    +0.000 A 
ATOM     29  C   UNL     1       0.573   3.113  20.395  0.00  0.00    +0.000 A 
ATOM     30  C   UNL     1       1.365   2.985  21.533  0.00  0.00    +0.000 A 
ATOM     31  C   UNL     1       2.718   2.665  21.413  0.00  0.00    +0.000 A 
ATOM     32  C   UNL     1       3.276   2.477  20.149  0.00  0.00    +0.000 A 
ENDBRANCH  26  27
ENDBRANCH  25  26
ENDBRANCH  24  25
ENDBRANCH  23  24
ENDBRANCH  19  23
ENDBRANCH  18  19
ENDBRANCH   6  18
TORSDOF 11
ENDMDL
MODEL 3
REMARK VINA RESULT:      -7.9      1.432      1.719
REMARK  Name = 
REMARK  11 active torsions:
REMARK  status: ('A' for Active; 'I' for Inactive)
REMARK    1  A    between atoms: C_2  and  O_3
REMARK    2  A    between atoms: C_2  and  C_4
REMARK    3  A    between atoms: C_6  and  C_7
REMARK    4  A    between atoms: C_15  and  C_17
REMARK    5  A    between atoms: C_17  and  P_18
REMARK    6  A    between atoms: P_18  and  O_20
REMARK    7  A    between atoms: P_18  and  C_21
REMARK    8  A    between atoms: C_21  and  C_22
REMARK    9  A    between atoms: C_22  and  C_23
REMARK   10  A    between atoms: C_23  and  C_24
REMARK   11  A    between atoms: C_24  and  C_25
REMARK                            x       y       z     vdW  Elec       q    Type
REMARK                         _______ _______ _______ _____ _____    ______ ____
ROOT
ATOM      1  C   UNL     1       2.443   4.396  20.577  0.00  0.00    +0.000 C 
ATOM      2  C   UNL     1       1.605   5.658  20.810  0.00  0.00    +0.000 C 
ATOM      3  C   UNL     1       2.371   6.779  20.116  0.00  0.00    +0.000 C 
ATOM      4  C   UNL     1       3.154   6.073  19.013  0.00  0.00    +0.000 C 
ATOM      5  N   UNL     1       3.038   4.653  19.258  0.00  0.00    +0.000 N 
ATOM      6  C   UNL     1       3.843   3.728  18.631  0.00  0.00    +0.000 C 
ATOM      7  O   UNL     1       3.827   2.571  19.046  0.00  0.00    +0.000 OA
ENDROOT
BRANCH   3   8
ATOM      8  C   UNL     1       1.479   7.903  19.556  0.00  0.00    +0.000 C 
ATOM      9  C   UNL     1       2.169   8.599  18.367  0.00  0.00    +0.000 C 
ATOM     10  C   UNL     1       1.350   9.762  17.826  0.00  0.00    +0.000 C 
ATOM     11  C   UNL     1       1.025  10.763  18.927  0.00  0.00    +0.000 C 
ATOM     12  C   UNL     1       0.300  10.087  20.086  0.00  0.00    +0.000 C 
ATOM     13  C   UNL     1       1.103   8.919  20.646  0.00  0.00    +0.000 C 
ENDBRANCH   3   8
BRANCH   1  15
ATOM     14  O   UNL     1       0.655   2.861  20.016  0.00  0.00    +0.000 OA
ATOM     15  C   UNL     1       1.494   3.212  20.836  0.00  0.00    +0.000 C 
BRANCH  15  16
ATOM     16  O   UNL     1       1.619   2.571  22.010  0.00  0.00    +0.000 OA
ATOM     17  H   UNL     1       2.543   2.553  22.303  0.00  0.00    +0.000 HD
ENDBRANCH  15  16
ENDBRANCH   1  15
BRANCH   6  18
ATOM     18  C   UNL     1       4.627   4.172  17.404  0.00  0.00    +0.000 C 
BRANCH  18  19
ATOM     19  P   UNL     1       6.070   5.185  17.892  0.00  0.00    +0.000 P 
ATOM     20  O   UNL     1       6.364   4.192  19.030  0.00  0.00    +0.000 OA
BRANCH  19  21
ATOM     21  O   UNL     1       6.963   4.487  16.682  0.00  0.00    +0.000 OA
ATOM     22  H   UNL     1       7.606   5.173  16.359  0.00  0.00    +0.000 HD
ENDBRANCH  19  21
BRANCH  19  23
ATOM     23  C   UNL     1       7.513   6.200  18.380  0.00  0.00    +0.000 C 
BRANCH  23  24
ATOM     24  C   UNL     1       7.788   7.337  17.386  0.00  0.00    +0.000 C 
BRANCH  24  25
ATOM     25  C   UNL     1       7.555   8.727  17.959  0.00  0.00    +0.000 C 
BRANCH  25  26
ATOM     26  C   UNL     1       8.625   9.685  17.417  0.00  0.00    +0.000 C 
BRANCH  26  27
ATOM     27  C   UNL     1       8.996  10.724  18.436  0.00  0.00    +0.000 A 
ATOM     28  C   UNL     1       9.053  12.077  18.081  0.00  0.00    +0.000 A 
ATOM     29  C   UNL     1       9.432  13.034  19.022  0.00  0.00    +0.000 A 
ATOM     30  C   UNL     1       9.759  12.646  20.319  0.00  0.00    +0.000 A 
ATOM     31  C   UNL     1       9.706  11.301  20.683  0.00  0.00    +0.000 A 
ATOM     32  C   UNL     1       9.326  10.342  19.743  0.00  0.00    +0.000 A 
ENDBRANCH  26  27
ENDBRANCH  25  26
ENDBRANCH  24  25
ENDBRANCH  23  24
ENDBRANCH  19  23
ENDBRANCH  18  19
ENDBRANCH   6  18
TORSDOF 11
ENDMDL
MODEL 4
REMARK VINA RESULT:      -7.9      0.986      1.694
REMARK  Name = 
REMARK  11 active torsions:
REMARK  status: ('A' for Active; 'I' for Inactive)
REMARK    1  A    between atoms: C_2  and  O_3
REMARK    2  A    between atoms: C_2  and  C_4
REMARK    3  A    between atoms: C_6  and  C_7
REMARK    4  A    between atoms: C_15  and  C_17
REMARK    5  A    between atoms: C_17  and  P_18
REMARK    6  A    between atoms: P_18  and  O_20
REMARK    7  A    between atoms: P_18  and  C_21
REMARK    8  A    between atoms: C_21  and  C_22
REMARK    9  A    between atoms: C_22  and  C_23
REMARK   10  A    between atoms: C_23  and  C_24
REMARK   11  A    between atoms: C_24  and  C_25
REMARK                            x       y       z     vdW  Elec       q    Type
REMARK                         _______ _______ _______ _____ _____    ______ ____
ROOT
ATOM      1  C   UNL     1       2.787   4.347  19.118  0.00  0.00    +0.000 C 
ATOM      2  C   UNL     1       2.070   5.540  19.760  0.00  0.00    +0.000 C 
ATOM      3  C   UNL     1       3.004   6.727  19.547  0.00  0.00    +0.000 C 
ATOM      4  C   UNL     1       3.795   6.364  18.294  0.00  0.00    +0.000 C 
ATOM      5  N   UNL     1       3.511   4.976  18.004  0.00  0.00    +0.000 N 
ATOM      6  C   UNL     1       4.263   4.239  17.117  0.00  0.00    +0.000 C 
ATOM      7  O   UNL     1       4.092   3.022  17.085  0.00  0.00    +0.000 OA
ENDROOT
BRANCH   3   8
ATOM      8  C   UNL     1       2.282   8.080  19.398  0.00  0.00    +0.000 C 
ATOM      9  C   UNL     1       1.183   8.226  20.469  0.00  0.00    +0.000 C 
ATOM     10  C   UNL     1       0.399   9.521  20.316  0.00  0.00    +0.000 C 
ATOM     11  C   UNL     1      -0.187   9.646  18.915  0.00  0.00    +0.000 C 
ATOM     12  C   UNL     1       0.905   9.549  17.854  0.00  0.00    +0.000 C 
ATOM     13  C   UNL     1       1.703   8.258  17.986  0.00  0.00    +0.000 C 
ENDBRANCH   3   8
BRANCH   1  15
ATOM     14  O   UNL     1       1.485   2.395  19.716  0.00  0.00    +0.000 OA
ATOM     15  C   UNL     1       1.702   3.278  18.896  0.00  0.00    +0.000 C 
BRANCH  15  16
ATOM     16  O   UNL     1       0.995   3.349  17.756  0.00  0.00    +0.000 OA
ATOM     17  H   UNL     1       0.796   2.465  17.412  0.00  0.00    +0.000 HD
ENDBRANCH  15  16
ENDBRANCH   1  15
BRANCH   6  18
ATOM     18  C   UNL     1       5.185   4.986  16.164  0.00  0.00    +0.000 C 
BRANCH  18  19
ATOM     19  P   UNL     1       6.482   5.883  17.092  0.00  0.00    +0.000 P 
ATOM     20  O   UNL     1       6.916   4.556  17.739  0.00  0.00    +0.000 OA
BRANCH  19  21
ATOM     21  O   UNL     1       7.452   5.860  15.747  0.00  0.00    +0.000 OA
ATOM     22  H   UNL     1       7.674   4.909  15.561  0.00  0.00    +0.000 HD
ENDBRANCH  19  21
BRANCH  19  23
ATOM     23  C   UNL     1       7.779   6.781  18.020  0.00  0.00    +0.000 C 
BRANCH  23  24
ATOM     24  C   UNL     1       7.769   8.287  17.723  0.00  0.00    +0.000 C 
BRANCH  24  25
ATOM     25  C   UNL     1       8.664   9.103  18.643  0.00  0.00    +0.000 C 
BRANCH  25  26
ATOM     26  C   UNL     1       9.115  10.377  17.915  0.00  0.00    +0.000 C 
BRANCH  26  27
ATOM     27  C   UNL     1       9.612  11.413  18.882  0.00  0.00    +0.000 A 
ATOM     28  C   UNL     1       9.742  11.108  20.243  0.00  0.00    +0.000 A 
ATOM     29  C   UNL     1      10.170  12.084  21.143  0.00  0.00    +0.000 A 
ATOM     30  C   UNL     1      10.466  13.368  20.692  0.00  0.00    +0.000 A 
ATOM     31  C   UNL     1      10.339  13.683  19.339  0.00  0.00    +0.000 A 
ATOM     32  C   UNL     1       9.912  12.708  18.437  0.00  0.00    +0.000 A 
ENDBRANCH  26  27
ENDBRANCH  25  26
ENDBRANCH  24  25
ENDBRANCH  23  24
ENDBRANCH  19  23
ENDBRANCH  18  19
ENDBRANCH   6  18
TORSDOF 11
ENDMDL
MODEL 5
REMARK VINA RESULT:      -7.9      4.126      9.141
REMARK  Name = 
REMARK  11 active torsions:
REMARK  status: ('A' for Active; 'I' for Inactive)
REMARK    1  A    between atoms: C_2  and  O_3
REMARK    2  A    between atoms: C_2  and  C_4
REMARK    3  A    between atoms: C_6  and  C_7
REMARK    4  A    between atoms: C_15  and  C_17
REMARK    5  A    between atoms: C_17  and  P_18
REMARK    6  A    between atoms: P_18  and  O_20
REMARK    7  A    between atoms: P_18  and  C_21
REMARK    8  A    between atoms: C_21  and  C_22
REMARK    9  A    between atoms: C_22  and  C_23
REMARK   10  A    between atoms: C_23  and  C_24
REMARK   11  A    between atoms: C_24  and  C_25
REMARK                            x       y       z     vdW  Elec       q    Type
REMARK                         _______ _______ _______ _____ _____    ______ ____
ROOT
ATOM      1  C   UNL     1       6.595   4.740  18.166  0.00  0.00    +0.000 C 
ATOM      2  C   UNL     1       7.218   4.559  16.778  0.00  0.00    +0.000 C 
ATOM      3  C   UNL     1       6.091   4.022  15.902  0.00  0.00    +0.000 C 
ATOM      4  C   UNL     1       4.819   4.546  16.562  0.00  0.00    +0.000 C 
ATOM      5  N   UNL     1       5.205   5.093  17.844  0.00  0.00    +0.000 N 
ATOM      6  C   UNL     1       4.285   5.395  18.824  0.00  0.00    +0.000 C 
ATOM      7  O   UNL     1       4.704   5.654  19.950  0.00  0.00    +0.000 OA
ENDROOT
BRANCH   3   8
ATOM      8  C   UNL     1       6.185   4.443  14.423  0.00  0.00    +0.000 C 
ATOM      9  C   UNL     1       5.775   3.276  13.504  0.00  0.00    +0.000 C 
ATOM     10  C   UNL     1       5.918   3.627  12.030  0.00  0.00    +0.000 C 
ATOM     11  C   UNL     1       7.331   4.098  11.712  0.00  0.00    +0.000 C 
ATOM     12  C   UNL     1       7.723   5.284  12.589  0.00  0.00    +0.000 C 
ATOM     13  C   UNL     1       7.590   4.955  14.070  0.00  0.00    +0.000 C 
ENDBRANCH   3   8
BRANCH   1  15
ATOM     14  O   UNL     1       7.997   6.701  18.398  0.00  0.00    +0.000 OA
ATOM     15  C   UNL     1       7.533   5.697  18.924  0.00  0.00    +0.000 C 
BRANCH  15  16
ATOM     16  O   UNL     1       7.830   5.386  20.196  0.00  0.00    +0.000 OA
ATOM     17  H   UNL     1       8.384   4.592  20.243  0.00  0.00    +0.000 HD
ENDBRANCH  15  16
ENDBRANCH   1  15
BRANCH   6  18
ATOM     18  C   UNL     1       2.819   5.487  18.428  0.00  0.00    +0.000 C 
BRANCH  18  19
ATOM     19  P   UNL     1       2.298   7.236  18.287  0.00  0.00    +0.000 P 
ATOM     20  O   UNL     1       2.367   7.365  19.818  0.00  0.00    +0.000 OA
BRANCH  19  21
ATOM     21  O   UNL     1       3.854   7.663  17.906  0.00  0.00    +0.000 OA
ATOM     22  H   UNL     1       4.345   6.825  17.692  0.00  0.00    +0.000 HD
ENDBRANCH  19  21
BRANCH  19  23
ATOM     23  C   UNL     1       1.776   8.985  18.144  0.00  0.00    +0.000 C 
BRANCH  23  24
ATOM     24  C   UNL     1       0.950   9.445  19.352  0.00  0.00    +0.000 C 
BRANCH  24  25
ATOM     25  C   UNL     1      -0.061  10.535  19.029  0.00  0.00    +0.000 C 
BRANCH  25  26
ATOM     26  C   UNL     1      -0.869  10.126  17.789  0.00  0.00    +0.000 C 
BRANCH  26  27
ATOM     27  C   UNL     1      -2.269  10.669  17.845  0.00  0.00    +0.000 A 
ATOM     28  C   UNL     1      -3.204  10.322  16.862  0.00  0.00    +0.000 A 
ATOM     29  C   UNL     1      -4.491  10.857  16.899  0.00  0.00    +0.000 A 
ATOM     30  C   UNL     1      -4.851  11.741  17.913  0.00  0.00    +0.000 A 
ATOM     31  C   UNL     1      -3.927  12.094  18.896  0.00  0.00    +0.000 A 
ATOM     32  C   UNL     1      -2.639  11.559  18.862  0.00  0.00    +0.000 A 
ENDBRANCH  26  27
ENDBRANCH  25  26
ENDBRANCH  24  25
ENDBRANCH  23  24
ENDBRANCH  19  23
ENDBRANCH  18  19
ENDBRANCH   6  18
TORSDOF 11
ENDMDL
MODEL 6
REMARK VINA RESULT:      -7.9      1.401      1.880
REMARK  Name = 
REMARK  11 active torsions:
REMARK  status: ('A' for Active; 'I' for Inactive)
REMARK    1  A    between atoms: C_2  and  O_3
REMARK    2  A    between atoms: C_2  and  C_4
REMARK    3  A    between atoms: C_6  and  C_7
REMARK    4  A    between atoms: C_15  and  C_17
REMARK    5  A    between atoms: C_17  and  P_18
REMARK    6  A    between atoms: P_18  and  O_20
REMARK    7  A    between atoms: P_18  and  C_21
REMARK    8  A    between atoms: C_21  and  C_22
REMARK    9  A    between atoms: C_22  and  C_23
REMARK   10  A    between atoms: C_23  and  C_24
REMARK   11  A    between atoms: C_24  and  C_25
REMARK                            x       y       z     vdW  Elec       q    Type
REMARK                         _______ _______ _______ _____ _____    ______ ____
ROOT
ATOM      1  C   UNL     1       2.708   4.960  20.406  0.00  0.00    +0.000 C 
ATOM      2  C   UNL     1       1.834   6.148  20.824  0.00  0.00    +0.000 C 
ATOM      3  C   UNL     1       2.286   7.305  19.939  0.00  0.00    +0.000 C 
ATOM      4  C   UNL     1       2.832   6.629  18.685  0.00  0.00    +0.000 C 
ATOM      5  N   UNL     1       2.924   5.215  18.975  0.00  0.00    +0.000 N 
ATOM      6  C   UNL     1       3.634   4.344  18.180  0.00  0.00    +0.000 C 
ATOM      7  O   UNL     1       3.838   3.208  18.605  0.00  0.00    +0.000 OA
ENDROOT
BRANCH   3   8
ATOM      8  C   UNL     1       1.173   8.317  19.606  0.00  0.00    +0.000 C 
ATOM      9  C   UNL     1       1.580   9.190  18.403  0.00  0.00    +0.000 C 
ATOM     10  C   UNL     1       0.537  10.251  18.082  0.00  0.00    +0.000 C 
ATOM     11  C   UNL     1       0.237  11.113  19.302  0.00  0.00    +0.000 C 
ATOM     12  C   UNL     1      -0.211  10.256  20.482  0.00  0.00    +0.000 C 
ATOM     13  C   UNL     1       0.820   9.187  20.823  0.00  0.00    +0.000 C 
ENDBRANCH   3   8
BRANCH   1  15
ATOM     14  O   UNL     1       2.250   3.193  21.997  0.00  0.00    +0.000 OA
ATOM     15  C   UNL     1       1.979   3.705  20.919  0.00  0.00    +0.000 C 
BRANCH  15  16
ATOM     16  O   UNL     1       1.026   3.183  20.129  0.00  0.00    +0.000 OA
ATOM     17  H   UNL     1       0.146   3.499  20.387  0.00  0.00    +0.000 HD
ENDBRANCH  15  16
ENDBRANCH   1  15
BRANCH   6  18
ATOM     18  C   UNL     1       4.035   4.807  16.787  0.00  0.00    +0.000 C 
BRANCH  18  19
ATOM     19  P   UNL     1       5.687   5.592  16.818  0.00  0.00    +0.000 P 
ATOM     20  O   UNL     1       6.334   4.197  16.807  0.00  0.00    +0.000 OA
BRANCH  19  21
ATOM     21  O   UNL     1       5.585   5.860  15.185  0.00  0.00    +0.000 OA
ATOM     22  H   UNL     1       5.657   6.842  15.043  0.00  0.00    +0.000 HD
ENDBRANCH  19  21
BRANCH  19  23
ATOM     23  C   UNL     1       7.339   6.379  16.850  0.00  0.00    +0.000 C 
BRANCH  23  24
ATOM     24  C   UNL     1       7.535   7.269  18.085  0.00  0.00    +0.000 C 
BRANCH  24  25
ATOM     25  C   UNL     1       7.998   8.682  17.760  0.00  0.00    +0.000 C 
BRANCH  25  26
ATOM     26  C   UNL     1       8.977   9.158  18.843  0.00  0.00    +0.000 C 
BRANCH  26  27
ATOM     27  C   UNL     1       9.242  10.632  18.730  0.00  0.00    +0.000 A 
ATOM     28  C   UNL     1      10.153  11.256  19.592  0.00  0.00    +0.000 A 
ATOM     29  C   UNL     1      10.369  12.632  19.506  0.00  0.00    +0.000 A 
ATOM     30  C   UNL     1       9.677  13.390  18.566  0.00  0.00    +0.000 A 
ATOM     31  C   UNL     1       8.767  12.778  17.703  0.00  0.00    +0.000 A 
ATOM     32  C   UNL     1       8.550  11.402  17.786  0.00  0.00    +0.000 A 
ENDBRANCH  26  27
ENDBRANCH  25  26
ENDBRANCH  24  25
ENDBRANCH  23  24
ENDBRANCH  19  23
ENDBRANCH  18  19
ENDBRANCH   6  18
TORSDOF 11
ENDMDL
MODEL 7
REMARK VINA RESULT:      -7.8      1.423      1.765
REMARK  Name = 
REMARK  11 active torsions:
REMARK  status: ('A' for Active; 'I' for Inactive)
REMARK    1  A    between atoms: C_2  and  O_3
REMARK    2  A    between atoms: C_2  and  C_4
REMARK    3  A    between atoms: C_6  and  C_7
REMARK    4  A    between atoms: C_15  and  C_17
REMARK    5  A    between atoms: C_17  and  P_18
REMARK    6  A    between atoms: P_18  and  O_20
REMARK    7  A    between atoms: P_18  and  C_21
REMARK    8  A    between atoms: C_21  and  C_22
REMARK    9  A    between atoms: C_22  and  C_23
REMARK   10  A    between atoms: C_23  and  C_24
REMARK   11  A    between atoms: C_24  and  C_25
REMARK                            x       y       z     vdW  Elec       q    Type
REMARK                         _______ _______ _______ _____ _____    ______ ____
ROOT
ATOM      1  C   UNL     1       2.462   5.255  20.667  0.00  0.00    +0.000 C 
ATOM      2  C   UNL     1       1.526   6.418  21.017  0.00  0.00    +0.000 C 
ATOM      3  C   UNL     1       2.055   7.607  20.222  0.00  0.00    +0.000 C 
ATOM      4  C   UNL     1       2.752   6.978  19.020  0.00  0.00    +0.000 C 
ATOM      5  N   UNL     1       2.834   5.557  19.278  0.00  0.00    +0.000 N 
ATOM      6  C   UNL     1       3.645   4.721  18.544  0.00  0.00    +0.000 C 
ATOM      7  O   UNL     1       3.820   3.575  18.957  0.00  0.00    +0.000 OA
ENDROOT
BRANCH   3   8
ATOM      8  C   UNL     1       0.970   8.614  19.794  0.00  0.00    +0.000 C 
ATOM      9  C   UNL     1       1.537   9.613  18.767  0.00  0.00    +0.000 C 
ATOM     10  C   UNL     1       0.516  10.669  18.368  0.00  0.00    +0.000 C 
ATOM     11  C   UNL     1      -0.029  11.397  19.590  0.00  0.00    +0.000 C 
ATOM     12  C   UNL     1      -0.633  10.414  20.588  0.00  0.00    +0.000 C 
ATOM     13  C   UNL     1       0.372   9.348  21.005  0.00  0.00    +0.000 C 
ENDBRANCH   3   8
BRANCH   1  15
ATOM     14  O   UNL     1       2.065   3.261  21.983  0.00  0.00    +0.000 OA
ATOM     15  C   UNL     1       1.702   3.975  21.057  0.00  0.00    +0.000 C 
BRANCH  15  16
ATOM     16  O   UNL     1       0.613   3.664  20.334  0.00  0.00    +0.000 OA
ATOM     17  H   UNL     1       0.757   3.838  19.391  0.00  0.00    +0.000 HD
ENDBRANCH  15  16
ENDBRANCH   1  15
BRANCH   6  18
ATOM     18  C   UNL     1       4.194   5.232  17.220  0.00  0.00    +0.000 C 
BRANCH  18  19
ATOM     19  P   UNL     1       5.957   5.693  17.387  0.00  0.00    +0.000 P 
ATOM     20  O   UNL     1       5.624   7.097  16.851  0.00  0.00    +0.000 OA
BRANCH  19  21
ATOM     21  O   UNL     1       5.728   5.959  19.008  0.00  0.00    +0.000 OA
ATOM     22  H   UNL     1       5.611   5.069  19.437  0.00  0.00    +0.000 HD
ENDBRANCH  19  21
BRANCH  19  23
ATOM     23  C   UNL     1       7.720   6.154  17.554  0.00  0.00    +0.000 C 
BRANCH  23  24
ATOM     24  C   UNL     1       7.966   7.637  17.239  0.00  0.00    +0.000 C 
BRANCH  24  25
ATOM     25  C   UNL     1       8.507   8.436  18.415  0.00  0.00    +0.000 C 
BRANCH  25  26
ATOM     26  C   UNL     1       8.334   9.935  18.133  0.00  0.00    +0.000 C 
BRANCH  26  27
ATOM     27  C   UNL     1       9.459  10.735  18.723  0.00  0.00    +0.000 A 
ATOM     28  C   UNL     1      10.512  11.183  17.914  0.00  0.00    +0.000 A 
ATOM     29  C   UNL     1      11.572  11.895  18.473  0.00  0.00    +0.000 A 
ATOM     30  C   UNL     1      11.591  12.162  19.840  0.00  0.00    +0.000 A 
ATOM     31  C   UNL     1      10.548  11.720  20.655  0.00  0.00    +0.000 A 
ATOM     32  C   UNL     1       9.486  11.008  20.097  0.00  0.00    +0.000 A 
ENDBRANCH  26  27
ENDBRANCH  25  26
ENDBRANCH  24  25
ENDBRANCH  23  24
ENDBRANCH  19  23
ENDBRANCH  18  19
ENDBRANCH   6  18
TORSDOF 11
ENDMDL
MODEL 8
REMARK VINA RESULT:      -7.6      4.113      9.153
REMARK  Name = 
REMARK  11 active torsions:
REMARK  status: ('A' for Active; 'I' for Inactive)
REMARK    1  A    between atoms: C_2  and  O_3
REMARK    2  A    between atoms: C_2  and  C_4
REMARK    3  A    between atoms: C_6  and  C_7
REMARK    4  A    between atoms: C_15  and  C_17
REMARK    5  A    between atoms: C_17  and  P_18
REMARK    6  A    between atoms: P_18  and  O_20
REMARK    7  A    between atoms: P_18  and  C_21
REMARK    8  A    between atoms: C_21  and  C_22
REMARK    9  A    between atoms: C_22  and  C_23
REMARK   10  A    between atoms: C_23  and  C_24
REMARK   11  A    between atoms: C_24  and  C_25
REMARK                            x       y       z     vdW  Elec       q    Type
REMARK                         _______ _______ _______ _____ _____    ______ ____
ROOT
ATOM      1  C   UNL     1       6.726   4.694  18.037  0.00  0.00    +0.000 C 
ATOM      2  C   UNL     1       7.283   4.502  16.621  0.00  0.00    +0.000 C 
ATOM      3  C   UNL     1       6.101   4.011  15.792  0.00  0.00    +0.000 C 
ATOM      4  C   UNL     1       4.877   4.574  16.509  0.00  0.00    +0.000 C 
ATOM      5  N   UNL     1       5.337   5.097  17.776  0.00  0.00    +0.000 N 
ATOM      6  C   UNL     1       4.471   5.424  18.796  0.00  0.00    +0.000 C 
ATOM      7  O   UNL     1       4.946   5.659  19.905  0.00  0.00    +0.000 OA
ENDROOT
BRANCH   3   8
ATOM      8  C   UNL     1       6.147   4.440  14.313  0.00  0.00    +0.000 C 
ATOM      9  C   UNL     1       5.622   3.309  13.407  0.00  0.00    +0.000 C 
ATOM     10  C   UNL     1       5.713   3.665  11.930  0.00  0.00    +0.000 C 
ATOM     11  C   UNL     1       7.134   4.054  11.545  0.00  0.00    +0.000 C 
ATOM     12  C   UNL     1       7.640   5.205  12.409  0.00  0.00    +0.000 C 
ATOM     13  C   UNL     1       7.561   4.870  13.893  0.00  0.00    +0.000 C 
ENDBRANCH   3   8
BRANCH   1  15
ATOM     14  O   UNL     1       8.319   5.256  19.771  0.00  0.00    +0.000 OA
ATOM     15  C   UNL     1       7.728   5.611  18.759  0.00  0.00    +0.000 C 
BRANCH  15  16
ATOM     16  O   UNL     1       7.932   6.831  18.235  0.00  0.00    +0.000 OA
ATOM     17  H   UNL     1       8.423   7.399  18.849  0.00  0.00    +0.000 HD
ENDBRANCH  15  16
ENDBRANCH   1  15
BRANCH   6  18
ATOM     18  C   UNL     1       2.993   5.570  18.465  0.00  0.00    +0.000 C 
BRANCH  18  19
ATOM     19  P   UNL     1       2.557   7.331  18.226  0.00  0.00    +0.000 P 
ATOM     20  O   UNL     1       1.310   6.899  17.435  0.00  0.00    +0.000 OA
BRANCH  19  21
ATOM     21  O   UNL     1       1.911   7.373  19.753  0.00  0.00    +0.000 OA
ATOM     22  H   UNL     1       2.502   6.825  20.336  0.00  0.00    +0.000 HD
ENDBRANCH  19  21
BRANCH  19  23
ATOM     23  C   UNL     1       2.121   9.093  17.987  0.00  0.00    +0.000 C 
BRANCH  23  24
ATOM     24  C   UNL     1       1.261   9.640  19.135  0.00  0.00    +0.000 C 
BRANCH  24  25
ATOM     25  C   UNL     1       0.073  10.470  18.674  0.00  0.00    +0.000 C 
BRANCH  25  26
ATOM     26  C   UNL     1      -0.741   9.666  17.649  0.00  0.00    +0.000 C 
BRANCH  26  27
ATOM     27  C   UNL     1      -2.041  10.347  17.329  0.00  0.00    +0.000 A 
ATOM     28  C   UNL     1      -2.781  10.974  18.340  0.00  0.00    +0.000 A 
ATOM     29  C   UNL     1      -4.005  11.575  18.043  0.00  0.00    +0.000 A 
ATOM     30  C   UNL     1      -4.498  11.549  16.741  0.00  0.00    +0.000 A 
ATOM     31  C   UNL     1      -3.769  10.927  15.727  0.00  0.00    +0.000 A 
ATOM     32  C   UNL     1      -2.544  10.327  16.022  0.00  0.00    +0.000 A 
ENDBRANCH  26  27
ENDBRANCH  25  26
ENDBRANCH  24  25
ENDBRANCH  23  24
ENDBRANCH  19  23
ENDBRANCH  18  19
ENDBRANCH   6  18
TORSDOF 11
ENDMDL
MODEL 9
REMARK VINA RESULT:      -7.5      4.235      8.425
REMARK  Name = 
REMARK  11 active torsions:
REMARK  status: ('A' for Active; 'I' for Inactive)
REMARK    1  A    between atoms: C_2  and  O_3
REMARK    2  A    between atoms: C_2  and  C_4
REMARK    3  A    between atoms: C_6  and  C_7
REMARK    4  A    between atoms: C_15  and  C_17
REMARK    5  A    between atoms: C_17  and  P_18
REMARK    6  A    between atoms: P_18  and  O_20
REMARK    7  A    between atoms: P_18  and  C_21
REMARK    8  A    between atoms: C_21  and  C_22
REMARK    9  A    between atoms: C_22  and  C_23
REMARK   10  A    between atoms: C_23  and  C_24
REMARK   11  A    between atoms: C_24  and  C_25
REMARK                            x       y       z     vdW  Elec       q    Type
REMARK                         _______ _______ _______ _____ _____    ______ ____
ROOT
ATOM      1  C   UNL     1       6.352   4.717  18.133  0.00  0.00    +0.000 C 
ATOM      2  C   UNL     1       7.017   4.497  16.769  0.00  0.00    +0.000 C 
ATOM      3  C   UNL     1       5.892   4.043  15.846  0.00  0.00    +0.000 C 
ATOM      4  C   UNL     1       4.633   4.651  16.458  0.00  0.00    +0.000 C 
ATOM      5  N   UNL     1       5.004   5.166  17.757  0.00  0.00    +0.000 N 
ATOM      6  C   UNL     1       4.069   5.528  18.701  0.00  0.00    +0.000 C 
ATOM      7  O   UNL     1       4.459   5.754  19.845  0.00  0.00    +0.000 OA
ENDROOT
BRANCH   3   8
ATOM      8  C   UNL     1       6.074   4.460  14.375  0.00  0.00    +0.000 C 
ATOM      9  C   UNL     1       5.719   3.292  13.435  0.00  0.00    +0.000 C 
ATOM     10  C   UNL     1       5.950   3.640  11.971  0.00  0.00    +0.000 C 
ATOM     11  C   UNL     1       7.381   4.109  11.737  0.00  0.00    +0.000 C 
ATOM     12  C   UNL     1       7.721   5.296  12.634  0.00  0.00    +0.000 C 
ATOM     13  C   UNL     1       7.499   4.970  14.106  0.00  0.00    +0.000 C 
ENDBRANCH   3   8
BRANCH   1  15
ATOM     14  O   UNL     1       7.627   5.351  20.092  0.00  0.00    +0.000 OA
ATOM     15  C   UNL     1       7.323   5.604  18.933  0.00  0.00    +0.000 C 
BRANCH  15  16
ATOM     16  O   UNL     1       7.829   6.680  18.308  0.00  0.00    +0.000 OA
ATOM     17  H   UNL     1       8.760   6.545  18.075  0.00  0.00    +0.000 HD
ENDBRANCH  15  16
ENDBRANCH   1  15
BRANCH   6  18
ATOM     18  C   UNL     1       2.629   5.723  18.247  0.00  0.00    +0.000 C 
BRANCH  18  19
ATOM     19  P   UNL     1       2.242   7.504  18.078  0.00  0.00    +0.000 P 
ATOM     20  O   UNL     1       2.167   7.617  19.611  0.00  0.00    +0.000 OA
BRANCH  19  21
ATOM     21  O   UNL     1       3.854   7.828  17.860  0.00  0.00    +0.000 OA
ATOM     22  H   UNL     1       4.292   6.974  17.598  0.00  0.00    +0.000 HD
ENDBRANCH  19  21
BRANCH  19  23
ATOM     23  C   UNL     1       1.855   9.285  17.909  0.00  0.00    +0.000 C 
BRANCH  23  24
ATOM     24  C   UNL     1       0.648   9.701  18.761  0.00  0.00    +0.000 C 
BRANCH  24  25
ATOM     25  C   UNL     1       0.383  11.199  18.766  0.00  0.00    +0.000 C 
BRANCH  25  26
ATOM     26  C   UNL     1       0.880  11.798  20.089  0.00  0.00    +0.000 C 
BRANCH  26  27
ATOM     27  C   UNL     1      -0.198  11.784  21.134  0.00  0.00    +0.000 A 
ATOM     28  C   UNL     1      -1.184  12.779  21.150  0.00  0.00    +0.000 A 
ATOM     29  C   UNL     1      -2.162  12.781  22.144  0.00  0.00    +0.000 A 
ATOM     30  C   UNL     1      -2.160  11.795  23.128  0.00  0.00    +0.000 A 
ATOM     31  C   UNL     1      -1.182  10.800  23.122  0.00  0.00    +0.000 A 
ATOM     32  C   UNL     1      -0.204  10.796  22.128  0.00  0.00    +0.000 A 
ENDBRANCH  26  27
ENDBRANCH  25  26
ENDBRANCH  24  25
ENDBRANCH  23  24
ENDBRANCH  19  23
ENDBRANCH  18  19
ENDBRANCH   6  18
TORSDOF 11
ENDMDL
