MODEL 1
REMARK VINA RESULT:      -6.9      0.000      0.000
REMARK  Name = 
REMARK  12 active torsions:
REMARK  status: ('A' for Active; 'I' for Inactive)
REMARK    1  A    between atoms: C_2  and  C_3
REMARK    2  A    between atoms: C_3  and  N_4
REMARK    3  A    between atoms: N_10  and  C_11
REMARK    4  A    between atoms: C_11  and  C_12
REMARK    5  A    between atoms: C_11  and  C_25
REMARK    6  A    between atoms: C_15  and  C_16
REMARK    7  A    between atoms: N_18  and  C_19
REMARK    8  A    between atoms: N_18  and  C_21
REMARK    9  A    between atoms: C_19  and  C_20
REMARK   10  A    between atoms: C_21  and  C_22
REMARK   11  A    between atoms: C_29  and  O_30
REMARK   12  A    between atoms: O_30  and  C_31
REMARK                            x       y       z     vdW  Elec       q    Type
REMARK                         _______ _______ _______ _____ _____    ______ ____
ROOT
ATOM      1  C   UNL     1       0.842  11.928  19.240  0.00  0.00    +0.000 C 
ENDROOT
BRANCH   1   8
ATOM      2  N   UNL     1      -1.581  12.505  21.251  0.00  0.00    +0.000 NA
ATOM      3  C   UNL     1      -1.765  13.888  20.879  0.00  0.00    +0.000 C 
ATOM      4  C   UNL     1      -3.279  13.808  20.688  0.00  0.00    +0.000 C 
ATOM      5  C   UNL     1      -3.509  12.466  19.995  0.00  0.00    +0.000 C 
ATOM      6  C   UNL     1      -2.222  11.646  20.246  0.00  0.00    +0.000 C 
ATOM      7  C   UNL     1      -1.510  11.374  18.854  0.00  0.00    +0.000 C 
ATOM      8  N   UNL     1      -0.358  12.232  18.416  0.00  0.00    +0.000 NA
ATOM      9  C   UNL     1      -0.862  13.605  18.350  0.00  0.00    +0.000 C 
ATOM     10  C   UNL     1      -1.058  14.447  19.621  0.00  0.00    +0.000 C 
BRANCH   2  11
ATOM     11  C   UNL     1      -0.717  12.038  22.308  0.00  0.00    +0.000 C 
BRANCH  11  13
ATOM     12  C   UNL     1      -0.177   9.707  23.277  0.00  0.00    +0.000 C 
ATOM     13  C   UNL     1      -0.970  10.753  23.052  0.00  0.00    +0.000 C 
ENDBRANCH  11  13
ENDBRANCH   2  11
ENDBRANCH   1   8
BRANCH   1  14
ATOM     14  C   UNL     1       1.241  10.441  19.120  0.00  0.00    +0.000 A 
ATOM     15  C   UNL     1       1.206   9.521  20.175  0.00  0.00    +0.000 A 
ATOM     16  C   UNL     1       1.703   8.209  19.993  0.00  0.00    +0.000 A 
ATOM     17  C   UNL     1       2.297   7.826  18.780  0.00  0.00    +0.000 A 
ATOM     18  C   UNL     1       2.318   8.755  17.737  0.00  0.00    +0.000 A 
ATOM     19  C   UNL     1       1.765  10.009  17.892  0.00  0.00    +0.000 A 
BRANCH  17  20
ATOM     20  C   UNL     1       2.860   6.502  18.389  0.00  0.00    +0.000 C 
ATOM     21  O   UNL     1       3.602   6.521  17.399  0.00  0.00    +0.000 OA
ATOM     22  N   UNL     1       2.659   5.311  19.094  0.00  0.00    +0.000 N 
BRANCH  22  23
ATOM     23  C   UNL     1       1.737   5.131  20.217  0.00  0.00    +0.000 C 
ATOM     24  C   UNL     1       0.912   3.851  20.238  0.00  0.00    +0.000 C 
ENDBRANCH  22  23
BRANCH  22  25
ATOM     25  C   UNL     1       3.382   4.150  18.557  0.00  0.00    +0.000 C 
ATOM     26  C   UNL     1       4.562   3.754  19.437  0.00  0.00    +0.000 C 
ENDBRANCH  22  25
ENDBRANCH  17  20
ENDBRANCH   1  14
BRANCH   1  27
ATOM     27  C   UNL     1       2.051  12.842  19.473  0.00  0.00    +0.000 A 
ATOM     28  C   UNL     1       2.893  13.374  18.502  0.00  0.00    +0.000 A 
ATOM     29  C   UNL     1       3.934  14.240  18.863  0.00  0.00    +0.000 A 
ATOM     30  C   UNL     1       4.176  14.556  20.204  0.00  0.00    +0.000 A 
ATOM     31  C   UNL     1       3.351  14.047  21.199  0.00  0.00    +0.000 A 
ATOM     32  C   UNL     1       2.283  13.239  20.826  0.00  0.00    +0.000 A 
BRANCH  31  33
ATOM     33  O   UNL     1       3.682  14.399  22.483  0.00  0.00    +0.000 OA
ATOM     34  C   UNL     1       5.050  14.284  22.863  0.00  0.00    +0.000 C 
ENDBRANCH  31  33
ENDBRANCH   1  27
TORSDOF 9
ENDMDL
MODEL 2
REMARK VINA RESULT:      -6.6      0.945      1.463
REMARK  Name = 
REMARK  12 active torsions:
REMARK  status: ('A' for Active; 'I' for Inactive)
REMARK    1  A    between atoms: C_2  and  C_3
REMARK    2  A    between atoms: C_3  and  N_4
REMARK    3  A    between atoms: N_10  and  C_11
REMARK    4  A    between atoms: C_11  and  C_12
REMARK    5  A    between atoms: C_11  and  C_25
REMARK    6  A    between atoms: C_15  and  C_16
REMARK    7  A    between atoms: N_18  and  C_19
REMARK    8  A    between atoms: N_18  and  C_21
REMARK    9  A    between atoms: C_19  and  C_20
REMARK   10  A    between atoms: C_21  and  C_22
REMARK   11  A    between atoms: C_29  and  O_30
REMARK   12  A    between atoms: O_30  and  C_31
REMARK                            x       y       z     vdW  Elec       q    Type
REMARK                         _______ _______ _______ _____ _____    ______ ____
ROOT
ATOM      1  C   UNL     1       0.739  11.929  19.401  0.00  0.00    +0.000 C 
ENDROOT
BRANCH   1   8
ATOM      2  N   UNL     1      -1.721  12.672  21.311  0.00  0.00    +0.000 NA
ATOM      3  C   UNL     1      -1.846  14.043  20.878  0.00  0.00    +0.000 C 
ATOM      4  C   UNL     1      -3.355  14.006  20.643  0.00  0.00    +0.000 C 
ATOM      5  C   UNL     1      -3.612  12.644  20.001  0.00  0.00    +0.000 C 
ATOM      6  C   UNL     1      -2.361  11.793  20.324  0.00  0.00    +0.000 C 
ATOM      7  C   UNL     1      -1.619  11.438  18.967  0.00  0.00    +0.000 C 
ATOM      8  N   UNL     1      -0.426  12.238  18.529  0.00  0.00    +0.000 NA
ATOM      9  C   UNL     1      -0.880  13.623  18.391  0.00  0.00    +0.000 C 
ATOM     10  C   UNL     1      -1.083  14.524  19.619  0.00  0.00    +0.000 C 
BRANCH   2  11
ATOM     11  C   UNL     1      -0.904  12.222  22.414  0.00  0.00    +0.000 C 
BRANCH  11  13
ATOM     12  C   UNL     1      -0.508   9.806  23.235  0.00  0.00    +0.000 C 
ATOM     13  C   UNL     1      -1.191  10.949  23.166  0.00  0.00    +0.000 C 
ENDBRANCH  11  13
ENDBRANCH   2  11
ENDBRANCH   1   8
BRANCH   1  14
ATOM     14  C   UNL     1       1.171  10.454  19.257  0.00  0.00    +0.000 A 
ATOM     15  C   UNL     1       1.211   9.531  20.308  0.00  0.00    +0.000 A 
ATOM     16  C   UNL     1       1.733   8.233  20.098  0.00  0.00    +0.000 A 
ATOM     17  C   UNL     1       2.278   7.869  18.857  0.00  0.00    +0.000 A 
ATOM     18  C   UNL     1       2.224   8.800  17.817  0.00  0.00    +0.000 A 
ATOM     19  C   UNL     1       1.646  10.039  18.004  0.00  0.00    +0.000 A 
BRANCH  17  20
ATOM     20  C   UNL     1       2.857   6.562  18.434  0.00  0.00    +0.000 C 
ATOM     21  O   UNL     1       3.587   6.611  17.436  0.00  0.00    +0.000 OA
ATOM     22  N   UNL     1       2.682   5.354  19.118  0.00  0.00    +0.000 N 
BRANCH  22  23
ATOM     23  C   UNL     1       1.776   5.139  20.247  0.00  0.00    +0.000 C 
ATOM     24  C   UNL     1       0.987   3.835  20.264  0.00  0.00    +0.000 C 
ENDBRANCH  22  23
BRANCH  22  25
ATOM     25  C   UNL     1       3.416   4.215  18.551  0.00  0.00    +0.000 C 
ATOM     26  C   UNL     1       4.679   3.897  19.343  0.00  0.00    +0.000 C 
ENDBRANCH  22  25
ENDBRANCH  17  20
ENDBRANCH   1  14
BRANCH   1  27
ATOM     27  C   UNL     1       1.918  12.856  19.720  0.00  0.00    +0.000 A 
ATOM     28  C   UNL     1       2.330  13.277  20.980  0.00  0.00    +0.000 A 
ATOM     29  C   UNL     1       3.463  14.089  21.121  0.00  0.00    +0.000 A 
ATOM     30  C   UNL     1       4.180  14.528  20.002  0.00  0.00    +0.000 A 
ATOM     31  C   UNL     1       3.799  14.122  18.729  0.00  0.00    +0.000 A 
ATOM     32  C   UNL     1       2.711  13.265  18.603  0.00  0.00    +0.000 A 
BRANCH  31  33
ATOM     33  O   UNL     1       4.552  14.621  17.697  0.00  0.00    +0.000 OA
ATOM     34  C   UNL     1       5.849  15.117  18.011  0.00  0.00    +0.000 C 
ENDBRANCH  31  33
ENDBRANCH   1  27
TORSDOF 9
ENDMDL
MODEL 3
REMARK VINA RESULT:      -6.5      1.303      2.239
REMARK  Name = 
REMARK  12 active torsions:
REMARK  status: ('A' for Active; 'I' for Inactive)
REMARK    1  A    between atoms: C_2  and  C_3
REMARK    2  A    between atoms: C_3  and  N_4
REMARK    3  A    between atoms: N_10  and  C_11
REMARK    4  A    between atoms: C_11  and  C_12
REMARK    5  A    between atoms: C_11  and  C_25
REMARK    6  A    between atoms: C_15  and  C_16
REMARK    7  A    between atoms: N_18  and  C_19
REMARK    8  A    between atoms: N_18  and  C_21
REMARK    9  A    between atoms: C_19  and  C_20
REMARK   10  A    between atoms: C_21  and  C_22
REMARK   11  A    between atoms: C_29  and  O_30
REMARK   12  A    between atoms: O_30  and  C_31
REMARK                            x       y       z     vdW  Elec       q    Type
REMARK                         _______ _______ _______ _____ _____    ______ ____
ROOT
ATOM      1  C   UNL     1       0.979  12.021  19.312  0.00  0.00    +0.000 C 
ENDROOT
BRANCH   1   8
ATOM      2  N   UNL     1      -1.562  12.455  21.210  0.00  0.00    +0.000 NA
ATOM      3  C   UNL     1      -1.791  13.835  20.851  0.00  0.00    +0.000 C 
ATOM      4  C   UNL     1      -3.288  13.691  20.585  0.00  0.00    +0.000 C 
ATOM      5  C   UNL     1      -3.424  12.352  19.863  0.00  0.00    +0.000 C 
ATOM      6  C   UNL     1      -2.114  11.586  20.164  0.00  0.00    +0.000 C 
ATOM      7  C   UNL     1      -1.325  11.369  18.804  0.00  0.00    +0.000 C 
ATOM      8  N   UNL     1      -0.193  12.286  18.435  0.00  0.00    +0.000 NA
ATOM      9  C   UNL     1      -0.755  13.636  18.364  0.00  0.00    +0.000 C 
ATOM     10  C   UNL     1      -1.050  14.446  19.637  0.00  0.00    +0.000 C 
BRANCH   2  11
ATOM     11  C   UNL     1      -0.729  12.010  22.302  0.00  0.00    +0.000 C 
BRANCH  11  13
ATOM     12  C   UNL     1      -0.231   9.697  23.336  0.00  0.00    +0.000 C 
ATOM     13  C   UNL     1      -1.010  10.746  23.071  0.00  0.00    +0.000 C 
ENDBRANCH  11  13
ENDBRANCH   2  11
ENDBRANCH   1   8
BRANCH   1  14
ATOM     14  C   UNL     1       1.503  10.581  19.127  0.00  0.00    +0.000 A 
ATOM     15  C   UNL     1       1.952  10.048  17.913  0.00  0.00    +0.000 A 
ATOM     16  C   UNL     1       2.303   8.680  17.821  0.00  0.00    +0.000 A 
ATOM     17  C   UNL     1       2.145   7.822  18.920  0.00  0.00    +0.000 A 
ATOM     18  C   UNL     1       1.702   8.371  20.125  0.00  0.00    +0.000 A 
ATOM     19  C   UNL     1       1.432   9.720  20.232  0.00  0.00    +0.000 A 
BRANCH  17  20
ATOM     20  C   UNL     1       2.467   6.370  19.029  0.00  0.00    +0.000 C 
ATOM     21  O   UNL     1       1.843   5.760  19.905  0.00  0.00    +0.000 OA
ATOM     22  N   UNL     1       3.346   5.683  18.184  0.00  0.00    +0.000 N 
BRANCH  22  23
ATOM     23  C   UNL     1       4.214   6.297  17.178  0.00  0.00    +0.000 C 
ATOM     24  C   UNL     1       5.703   6.362  17.493  0.00  0.00    +0.000 C 
ENDBRANCH  22  23
BRANCH  22  25
ATOM     25  C   UNL     1       3.441   4.240  18.440  0.00  0.00    +0.000 C 
ATOM     26  C   UNL     1       3.098   3.417  17.204  0.00  0.00    +0.000 C 
ENDBRANCH  22  25
ENDBRANCH  17  20
ENDBRANCH   1  14
BRANCH   1  27
ATOM     27  C   UNL     1       2.095  13.009  19.674  0.00  0.00    +0.000 A 
ATOM     28  C   UNL     1       2.446  13.438  20.949  0.00  0.00    +0.000 A 
ATOM     29  C   UNL     1       3.528  14.310  21.131  0.00  0.00    +0.000 A 
ATOM     30  C   UNL     1       4.251  14.800  20.038  0.00  0.00    +0.000 A 
ATOM     31  C   UNL     1       3.930  14.387  18.751  0.00  0.00    +0.000 A 
ATOM     32  C   UNL     1       2.896  13.473  18.585  0.00  0.00    +0.000 A 
BRANCH  31  33
ATOM     33  O   UNL     1       4.684  14.938  17.746  0.00  0.00    +0.000 OA
ATOM     34  C   UNL     1       6.095  14.751  17.806  0.00  0.00    +0.000 C 
ENDBRANCH  31  33
ENDBRANCH   1  27
TORSDOF 9
ENDMDL
MODEL 4
REMARK VINA RESULT:      -6.5      0.974      1.721
REMARK  Name = 
REMARK  12 active torsions:
REMARK  status: ('A' for Active; 'I' for Inactive)
REMARK    1  A    between atoms: C_2  and  C_3
REMARK    2  A    between atoms: C_3  and  N_4
REMARK    3  A    between atoms: N_10  and  C_11
REMARK    4  A    between atoms: C_11  and  C_12
REMARK    5  A    between atoms: C_11  and  C_25
REMARK    6  A    between atoms: C_15  and  C_16
REMARK    7  A    between atoms: N_18  and  C_19
REMARK    8  A    between atoms: N_18  and  C_21
REMARK    9  A    between atoms: C_19  and  C_20
REMARK   10  A    between atoms: C_21  and  C_22
REMARK   11  A    between atoms: C_29  and  O_30
REMARK   12  A    between atoms: O_30  and  C_31
REMARK                            x       y       z     vdW  Elec       q    Type
REMARK                         _______ _______ _______ _____ _____    ______ ____
ROOT
ATOM      1  C   UNL     1       1.017  11.819  19.127  0.00  0.00    +0.000 C 
ENDROOT
BRANCH   1   8
ATOM      2  N   UNL     1      -1.443  12.318  21.114  0.00  0.00    +0.000 NA
ATOM      3  C   UNL     1      -1.697  13.680  20.708  0.00  0.00    +0.000 C 
ATOM      4  C   UNL     1      -3.204  13.517  20.513  0.00  0.00    +0.000 C 
ATOM      5  C   UNL     1      -3.360  12.148  19.853  0.00  0.00    +0.000 C 
ATOM      6  C   UNL     1      -2.033  11.403  20.129  0.00  0.00    +0.000 C 
ATOM      7  C   UNL     1      -1.301  11.134  18.747  0.00  0.00    +0.000 C 
ATOM      8  N   UNL     1      -0.193  12.040  18.292  0.00  0.00    +0.000 NA
ATOM      9  C   UNL     1      -0.768  13.383  18.189  0.00  0.00    +0.000 C 
ATOM     10  C   UNL     1      -1.013  14.244  19.438  0.00  0.00    +0.000 C 
BRANCH   2  11
ATOM     11  C   UNL     1      -0.561  11.924  22.186  0.00  0.00    +0.000 C 
BRANCH  11  13
ATOM     12  C   UNL     1      -0.184   9.604  23.256  0.00  0.00    +0.000 C 
ATOM     13  C   UNL     1      -0.849  10.745  23.079  0.00  0.00    +0.000 C 
ENDBRANCH  11  13
ENDBRANCH   2  11
ENDBRANCH   1   8
BRANCH   1  14
ATOM     14  C   UNL     1       1.555  10.381  18.965  0.00  0.00    +0.000 A 
ATOM     15  C   UNL     1       2.012   9.834  17.760  0.00  0.00    +0.000 A 
ATOM     16  C   UNL     1       2.375   8.469  17.688  0.00  0.00    +0.000 A 
ATOM     17  C   UNL     1       2.223   7.625  18.799  0.00  0.00    +0.000 A 
ATOM     18  C   UNL     1       1.772   8.188  19.996  0.00  0.00    +0.000 A 
ATOM     19  C   UNL     1       1.490   9.536  20.083  0.00  0.00    +0.000 A 
BRANCH  17  20
ATOM     20  C   UNL     1       2.559   6.178  18.931  0.00  0.00    +0.000 C 
ATOM     21  O   UNL     1       1.702   5.492  19.500  0.00  0.00    +0.000 OA
ATOM     22  N   UNL     1       3.707   5.576  18.405  0.00  0.00    +0.000 N 
BRANCH  22  23
ATOM     23  C   UNL     1       4.836   6.281  17.798  0.00  0.00    +0.000 C 
ATOM     24  C   UNL     1       4.927   6.264  16.277  0.00  0.00    +0.000 C 
ENDBRANCH  22  23
BRANCH  22  25
ATOM     25  C   UNL     1       3.779   4.121  18.595  0.00  0.00    +0.000 C 
ATOM     26  C   UNL     1       3.215   3.360  17.401  0.00  0.00    +0.000 C 
ENDBRANCH  22  25
ENDBRANCH  17  20
ENDBRANCH   1  14
BRANCH   1  27
ATOM     27  C   UNL     1       2.132  12.832  19.414  0.00  0.00    +0.000 A 
ATOM     28  C   UNL     1       2.950  13.457  18.479  0.00  0.00    +0.000 A 
ATOM     29  C   UNL     1       3.898  14.406  18.887  0.00  0.00    +0.000 A 
ATOM     30  C   UNL     1       4.071  14.715  20.241  0.00  0.00    +0.000 A 
ATOM     31  C   UNL     1       3.267  14.113  21.200  0.00  0.00    +0.000 A 
ATOM     32  C   UNL     1       2.287  13.221  20.781  0.00  0.00    +0.000 A 
BRANCH  31  33
ATOM     33  O   UNL     1       3.527  14.468  22.500  0.00  0.00    +0.000 OA
ATOM     34  C   UNL     1       3.729  15.850  22.775  0.00  0.00    +0.000 C 
ENDBRANCH  31  33
ENDBRANCH   1  27
TORSDOF 9
ENDMDL
MODEL 5
REMARK VINA RESULT:      -6.5      2.832      8.869
REMARK  Name = 
REMARK  12 active torsions:
REMARK  status: ('A' for Active; 'I' for Inactive)
REMARK    1  A    between atoms: C_2  and  C_3
REMARK    2  A    between atoms: C_3  and  N_4
REMARK    3  A    between atoms: N_10  and  C_11
REMARK    4  A    between atoms: C_11  and  C_12
REMARK    5  A    between atoms: C_11  and  C_25
REMARK    6  A    between atoms: C_15  and  C_16
REMARK    7  A    between atoms: N_18  and  C_19
REMARK    8  A    between atoms: N_18  and  C_21
REMARK    9  A    between atoms: C_19  and  C_20
REMARK   10  A    between atoms: C_21  and  C_22
REMARK   11  A    between atoms: C_29  and  O_30
REMARK   12  A    between atoms: O_30  and  C_31
REMARK                            x       y       z     vdW  Elec       q    Type
REMARK                         _______ _______ _______ _____ _____    ______ ____
ROOT
ATOM      1  C   UNL     1       3.383   5.897  18.877  0.00  0.00    +0.000 C 
ENDROOT
BRANCH   1   8
ATOM      2  N   UNL     1       3.756   3.240  17.129  0.00  0.00    +0.000 NA
ATOM      3  C   UNL     1       4.408   2.467  18.159  0.00  0.00    +0.000 C 
ATOM      4  C   UNL     1       3.534   1.223  18.012  0.00  0.00    +0.000 C 
ATOM      5  C   UNL     1       2.122   1.767  17.803  0.00  0.00    +0.000 C 
ATOM      6  C   UNL     1       2.307   3.241  17.371  0.00  0.00    +0.000 C 
ATOM      7  C   UNL     1       1.681   4.183  18.484  0.00  0.00    +0.000 C 
ATOM      8  N   UNL     1       2.567   4.827  19.511  0.00  0.00    +0.000 NA
ATOM      9  C   UNL     1       3.231   3.739  20.231  0.00  0.00    +0.000 C 
ATOM     10  C   UNL     1       4.423   2.986  19.618  0.00  0.00    +0.000 C 
BRANCH   2  11
ATOM     11  C   UNL     1       4.433   4.064  16.157  0.00  0.00    +0.000 C 
BRANCH  11  13
ATOM     12  C   UNL     1       6.684   4.572  15.000  0.00  0.00    +0.000 C 
ATOM     13  C   UNL     1       5.885   3.873  15.805  0.00  0.00    +0.000 C 
ENDBRANCH  11  13
ENDBRANCH   2  11
ENDBRANCH   1   8
BRANCH   1  14
ATOM     14  C   UNL     1       2.706   7.277  19.021  0.00  0.00    +0.000 A 
ATOM     15  C   UNL     1       1.992   7.698  20.149  0.00  0.00    +0.000 A 
ATOM     16  C   UNL     1       1.309   8.937  20.139  0.00  0.00    +0.000 A 
ATOM     17  C   UNL     1       1.279   9.732  18.982  0.00  0.00    +0.000 A 
ATOM     18  C   UNL     1       2.002   9.300  17.868  0.00  0.00    +0.000 A 
ATOM     19  C   UNL     1       2.729   8.128  17.906  0.00  0.00    +0.000 A 
BRANCH  17  20
ATOM     20  C   UNL     1       0.635  11.061  18.775  0.00  0.00    +0.000 C 
ATOM     21  O   UNL     1       1.396  12.032  18.871  0.00  0.00    +0.000 OA
ATOM     22  N   UNL     1      -0.706  11.251  18.423  0.00  0.00    +0.000 N 
BRANCH  22  23
ATOM     23  C   UNL     1      -1.728  10.205  18.369  0.00  0.00    +0.000 C 
ATOM     24  C   UNL     1      -2.366   9.929  17.013  0.00  0.00    +0.000 C 
ENDBRANCH  22  23
BRANCH  22  25
ATOM     25  C   UNL     1      -1.089  12.651  18.196  0.00  0.00    +0.000 C 
ATOM     26  C   UNL     1      -1.656  13.299  19.454  0.00  0.00    +0.000 C 
ENDBRANCH  22  25
ENDBRANCH  17  20
ENDBRANCH   1  14
BRANCH   1  27
ATOM     27  C   UNL     1       4.913   5.993  18.858  0.00  0.00    +0.000 A 
ATOM     28  C   UNL     1       5.806   5.237  19.609  0.00  0.00    +0.000 A 
ATOM     29  C   UNL     1       7.188   5.402  19.447  0.00  0.00    +0.000 A 
ATOM     30  C   UNL     1       7.701   6.356  18.561  0.00  0.00    +0.000 A 
ATOM     31  C   UNL     1       6.837   7.125  17.791  0.00  0.00    +0.000 A 
ATOM     32  C   UNL     1       5.469   6.910  17.912  0.00  0.00    +0.000 A 
BRANCH  31  33
ATOM     33  O   UNL     1       7.436   8.044  16.967  0.00  0.00    +0.000 OA
ATOM     34  C   UNL     1       8.085   9.152  17.583  0.00  0.00    +0.000 C 
ENDBRANCH  31  33
ENDBRANCH   1  27
TORSDOF 9
ENDMDL
MODEL 6
REMARK VINA RESULT:      -6.4      2.638      8.931
REMARK  Name = 
REMARK  12 active torsions:
REMARK  status: ('A' for Active; 'I' for Inactive)
REMARK    1  A    between atoms: C_2  and  C_3
REMARK    2  A    between atoms: C_3  and  N_4
REMARK    3  A    between atoms: N_10  and  C_11
REMARK    4  A    between atoms: C_11  and  C_12
REMARK    5  A    between atoms: C_11  and  C_25
REMARK    6  A    between atoms: C_15  and  C_16
REMARK    7  A    between atoms: N_18  and  C_19
REMARK    8  A    between atoms: N_18  and  C_21
REMARK    9  A    between atoms: C_19  and  C_20
REMARK   10  A    between atoms: C_21  and  C_22
REMARK   11  A    between atoms: C_29  and  O_30
REMARK   12  A    between atoms: O_30  and  C_31
REMARK                            x       y       z     vdW  Elec       q    Type
REMARK                         _______ _______ _______ _____ _____    ______ ____
ROOT
ATOM      1  C   UNL     1       3.359   5.875  18.905  0.00  0.00    +0.000 C 
ENDROOT
BRANCH   1   8
ATOM      2  N   UNL     1       3.661   3.169  17.220  0.00  0.00    +0.000 NA
ATOM      3  C   UNL     1       4.390   2.438  18.229  0.00  0.00    +0.000 C 
ATOM      4  C   UNL     1       3.528   1.178  18.177  0.00  0.00    +0.000 C 
ATOM      5  C   UNL     1       2.097   1.696  18.043  0.00  0.00    +0.000 C 
ATOM      6  C   UNL     1       2.231   3.157  17.554  0.00  0.00    +0.000 C 
ATOM      7  C   UNL     1       1.662   4.126  18.675  0.00  0.00    +0.000 C 
ATOM      8  N   UNL     1       2.602   4.815  19.623  0.00  0.00    +0.000 NA
ATOM      9  C   UNL     1       3.328   3.760  20.332  0.00  0.00    +0.000 C 
ATOM     10  C   UNL     1       4.490   3.004  19.667  0.00  0.00    +0.000 C 
BRANCH   2  11
ATOM     11  C   UNL     1       4.262   3.971  16.181  0.00  0.00    +0.000 C 
BRANCH  11  13
ATOM     12  C   UNL     1       6.539   4.735  15.236  0.00  0.00    +0.000 C 
ATOM     13  C   UNL     1       5.717   3.858  15.812  0.00  0.00    +0.000 C 
ENDBRANCH  11  13
ENDBRANCH   2  11
ENDBRANCH   1   8
BRANCH   1  14
ATOM     14  C   UNL     1       2.619   7.228  18.963  0.00  0.00    +0.000 A 
ATOM     15  C   UNL     1       2.035   7.766  20.117  0.00  0.00    +0.000 A 
ATOM     16  C   UNL     1       1.277   8.959  20.042  0.00  0.00    +0.000 A 
ATOM     17  C   UNL     1       1.041   9.585  18.809  0.00  0.00    +0.000 A 
ATOM     18  C   UNL     1       1.636   9.039  17.670  0.00  0.00    +0.000 A 
ATOM     19  C   UNL     1       2.437   7.919  17.756  0.00  0.00    +0.000 A 
BRANCH  17  20
ATOM     20  C   UNL     1       0.290  10.842  18.524  0.00  0.00    +0.000 C 
ATOM     21  O   UNL     1      -0.881  10.681  18.162  0.00  0.00    +0.000 OA
ATOM     22  N   UNL     1       0.799  12.132  18.706  0.00  0.00    +0.000 N 
BRANCH  22  23
ATOM     23  C   UNL     1       2.186  12.462  19.036  0.00  0.00    +0.000 C 
ATOM     24  C   UNL     1       2.827  13.611  18.267  0.00  0.00    +0.000 C 
ENDBRANCH  22  23
BRANCH  22  25
ATOM     25  C   UNL     1      -0.157  13.214  18.432  0.00  0.00    +0.000 C 
ATOM     26  C   UNL     1      -0.668  13.863  19.713  0.00  0.00    +0.000 C 
ENDBRANCH  22  25
ENDBRANCH  17  20
ENDBRANCH   1  14
BRANCH   1  27
ATOM     27  C   UNL     1       4.882   6.041  18.857  0.00  0.00    +0.000 A 
ATOM     28  C   UNL     1       5.825   5.290  19.549  0.00  0.00    +0.000 A 
ATOM     29  C   UNL     1       7.195   5.525  19.365  0.00  0.00    +0.000 A 
ATOM     30  C   UNL     1       7.643   6.544  18.517  0.00  0.00    +0.000 A 
ATOM     31  C   UNL     1       6.728   7.310  17.806  0.00  0.00    +0.000 A 
ATOM     32  C   UNL     1       5.374   7.028  17.946  0.00  0.00    +0.000 A 
BRANCH  31  33
ATOM     33  O   UNL     1       7.266   8.295  17.017  0.00  0.00    +0.000 OA
ATOM     34  C   UNL     1       8.113   9.251  17.647  0.00  0.00    +0.000 C 
ENDBRANCH  31  33
ENDBRANCH   1  27
TORSDOF 9
ENDMDL
MODEL 7
REMARK VINA RESULT:      -6.3      2.244      5.003
REMARK  Name = 
REMARK  12 active torsions:
REMARK  status: ('A' for Active; 'I' for Inactive)
REMARK    1  A    between atoms: C_2  and  C_3
REMARK    2  A    between atoms: C_3  and  N_4
REMARK    3  A    between atoms: N_10  and  C_11
REMARK    4  A    between atoms: C_11  and  C_12
REMARK    5  A    between atoms: C_11  and  C_25
REMARK    6  A    between atoms: C_15  and  C_16
REMARK    7  A    between atoms: N_18  and  C_19
REMARK    8  A    between atoms: N_18  and  C_21
REMARK    9  A    between atoms: C_19  and  C_20
REMARK   10  A    between atoms: C_21  and  C_22
REMARK   11  A    between atoms: C_29  and  O_30
REMARK   12  A    between atoms: O_30  and  C_31
REMARK                            x       y       z     vdW  Elec       q    Type
REMARK                         _______ _______ _______ _____ _____    ______ ____
ROOT
ATOM      1  C   UNL     1      -1.195  11.374  19.657  0.00  0.00    +0.000 C 
ENDROOT
BRANCH   1   8
ATOM      2  N   UNL     1       0.191  14.251  19.891  0.00  0.00    +0.000 NA
ATOM      3  C   UNL     1      -1.002  14.967  20.276  0.00  0.00    +0.000 C 
ATOM      4  C   UNL     1      -0.381  15.696  21.467  0.00  0.00    +0.000 C 
ATOM      5  C   UNL     1       0.513  14.652  22.133  0.00  0.00    +0.000 C 
ATOM      6  C   UNL     1       0.737  13.558  21.064  0.00  0.00    +0.000 C 
ATOM      7  C   UNL     1       0.081  12.205  21.573  0.00  0.00    +0.000 C 
ATOM      8  N   UNL     1      -1.277  11.795  21.081  0.00  0.00    +0.000 NA
ATOM      9  C   UNL     1      -2.201  12.861  21.470  0.00  0.00    +0.000 C 
ATOM     10  C   UNL     1      -2.272  14.182  20.686  0.00  0.00    +0.000 C 
BRANCH   2  11
ATOM     11  C   UNL     1       0.642  14.062  18.533  0.00  0.00    +0.000 C 
BRANCH  11  13
ATOM     12  C   UNL     1       2.656  12.497  18.133  0.00  0.00    +0.000 C 
ATOM     13  C   UNL     1       2.062  13.688  18.197  0.00  0.00    +0.000 C 
ENDBRANCH  11  13
ENDBRANCH   2  11
ENDBRANCH   1   8
BRANCH   1  14
ATOM     14  C   UNL     1      -0.212  10.198  19.476  0.00  0.00    +0.000 A 
ATOM     15  C   UNL     1       0.327   9.443  20.525  0.00  0.00    +0.000 A 
ATOM     16  C   UNL     1       1.311   8.461  20.265  0.00  0.00    +0.000 A 
ATOM     17  C   UNL     1       1.812   8.271  18.968  0.00  0.00    +0.000 A 
ATOM     18  C   UNL     1       1.260   9.028  17.933  0.00  0.00    +0.000 A 
ATOM     19  C   UNL     1       0.247   9.932  18.177  0.00  0.00    +0.000 A 
BRANCH  17  20
ATOM     20  C   UNL     1       2.828   7.290  18.490  0.00  0.00    +0.000 C 
ATOM     21  O   UNL     1       3.543   7.686  17.562  0.00  0.00    +0.000 OA
ATOM     22  N   UNL     1       3.049   6.031  19.059  0.00  0.00    +0.000 N 
BRANCH  22  23
ATOM     23  C   UNL     1       2.220   5.405  20.091  0.00  0.00    +0.000 C 
ATOM     24  C   UNL     1       1.431   4.166  19.689  0.00  0.00    +0.000 C 
ENDBRANCH  22  23
BRANCH  22  25
ATOM     25  C   UNL     1       4.158   5.274  18.464  0.00  0.00    +0.000 C 
ATOM     26  C   UNL     1       5.394   5.274  19.357  0.00  0.00    +0.000 C 
ENDBRANCH  22  25
ENDBRANCH  17  20
ENDBRANCH   1  14
BRANCH   1  27
ATOM     27  C   UNL     1      -2.345  11.338  18.643  0.00  0.00    +0.000 A 
ATOM     28  C   UNL     1      -3.692  11.564  18.903  0.00  0.00    +0.000 A 
ATOM     29  C   UNL     1      -4.629  11.547  17.860  0.00  0.00    +0.000 A 
ATOM     30  C   UNL     1      -4.239  11.262  16.547  0.00  0.00    +0.000 A 
ATOM     31  C   UNL     1      -2.901  11.037  16.251  0.00  0.00    +0.000 A 
ATOM     32  C   UNL     1      -1.971  11.118  17.281  0.00  0.00    +0.000 A 
BRANCH  31  33
ATOM     33  O   UNL     1      -2.624  10.747  14.939  0.00  0.00    +0.000 OA
ATOM     34  C   UNL     1      -3.620  10.052  14.196  0.00  0.00    +0.000 C 
ENDBRANCH  31  33
ENDBRANCH   1  27
TORSDOF 9
ENDMDL
MODEL 8
REMARK VINA RESULT:      -6.2      2.635      9.035
REMARK  Name = 
REMARK  12 active torsions:
REMARK  status: ('A' for Active; 'I' for Inactive)
REMARK    1  A    between atoms: C_2  and  C_3
REMARK    2  A    between atoms: C_3  and  N_4
REMARK    3  A    between atoms: N_10  and  C_11
REMARK    4  A    between atoms: C_11  and  C_12
REMARK    5  A    between atoms: C_11  and  C_25
REMARK    6  A    between atoms: C_15  and  C_16
REMARK    7  A    between atoms: N_18  and  C_19
REMARK    8  A    between atoms: N_18  and  C_21
REMARK    9  A    between atoms: C_19  and  C_20
REMARK   10  A    between atoms: C_21  and  C_22
REMARK   11  A    between atoms: C_29  and  O_30
REMARK   12  A    between atoms: O_30  and  C_31
REMARK                            x       y       z     vdW  Elec       q    Type
REMARK                         _______ _______ _______ _____ _____    ______ ____
ROOT
ATOM      1  C   UNL     1       3.309   5.897  18.735  0.00  0.00    +0.000 C 
ENDROOT
BRANCH   1   8
ATOM      2  N   UNL     1       3.731   3.147  17.150  0.00  0.00    +0.000 NA
ATOM      3  C   UNL     1       4.386   2.445  18.228  0.00  0.00    +0.000 C 
ATOM      4  C   UNL     1       3.529   1.182  18.149  0.00  0.00    +0.000 C 
ATOM      5  C   UNL     1       2.112   1.694  17.899  0.00  0.00    +0.000 C 
ATOM      6  C   UNL     1       2.280   3.141  17.381  0.00  0.00    +0.000 C 
ATOM      7  C   UNL     1       1.633   4.139  18.432  0.00  0.00    +0.000 C 
ATOM      8  N   UNL     1       2.503   4.855  19.426  0.00  0.00    +0.000 NA
ATOM      9  C   UNL     1       3.177   3.821  20.213  0.00  0.00    +0.000 C 
ATOM     10  C   UNL     1       4.383   3.050  19.654  0.00  0.00    +0.000 C 
BRANCH   2  11
ATOM     11  C   UNL     1       4.404   3.921  16.135  0.00  0.00    +0.000 C 
BRANCH  11  13
ATOM     12  C   UNL     1       6.708   4.569  15.166  0.00  0.00    +0.000 C 
ATOM     13  C   UNL     1       5.881   3.795  15.867  0.00  0.00    +0.000 C 
ENDBRANCH  11  13
ENDBRANCH   2  11
ENDBRANCH   1   8
BRANCH   1  14
ATOM     14  C   UNL     1       2.590   7.262  18.748  0.00  0.00    +0.000 A 
ATOM     15  C   UNL     1       2.564   8.158  17.672  0.00  0.00    +0.000 A 
ATOM     16  C   UNL     1       1.976   9.436  17.822  0.00  0.00    +0.000 A 
ATOM     17  C   UNL     1       1.472   9.854  19.063  0.00  0.00    +0.000 A 
ATOM     18  C   UNL     1       1.500   8.946  20.124  0.00  0.00    +0.000 A 
ATOM     19  C   UNL     1       2.005   7.674  19.955  0.00  0.00    +0.000 A 
BRANCH  17  20
ATOM     20  C   UNL     1       0.808  11.141  19.420  0.00  0.00    +0.000 C 
ATOM     21  O   UNL     1      -0.218  11.030  20.102  0.00  0.00    +0.000 OA
ATOM     22  N   UNL     1       1.304  12.409  19.098  0.00  0.00    +0.000 N 
BRANCH  22  23
ATOM     23  C   UNL     1       2.446  12.680  18.224  0.00  0.00    +0.000 C 
ATOM     24  C   UNL     1       3.329  13.868  18.586  0.00  0.00    +0.000 C 
ENDBRANCH  22  23
BRANCH  22  25
ATOM     25  C   UNL     1       0.515  13.530  19.627  0.00  0.00    +0.000 C 
ATOM     26  C   UNL     1      -0.297  14.221  18.538  0.00  0.00    +0.000 C 
ENDBRANCH  22  25
ENDBRANCH  17  20
ENDBRANCH   1  14
BRANCH   1  27
ATOM     27  C   UNL     1       4.836   6.038  18.755  0.00  0.00    +0.000 A 
ATOM     28  C   UNL     1       5.730   5.308  19.529  0.00  0.00    +0.000 A 
ATOM     29  C   UNL     1       7.111   5.514  19.404  0.00  0.00    +0.000 A 
ATOM     30  C   UNL     1       7.619   6.482  18.531  0.00  0.00    +0.000 A 
ATOM     31  C   UNL     1       6.753   7.226  17.738  0.00  0.00    +0.000 A 
ATOM     32  C   UNL     1       5.390   6.971  17.824  0.00  0.00    +0.000 A 
BRANCH  31  33
ATOM     33  O   UNL     1       7.347   8.163  16.930  0.00  0.00    +0.000 OA
ATOM     34  C   UNL     1       8.084   9.203  17.564  0.00  0.00    +0.000 C 
ENDBRANCH  31  33
ENDBRANCH   1  27
TORSDOF 9
ENDMDL
MODEL 9
REMARK VINA RESULT:      -6.1      2.529      5.297
REMARK  Name = 
REMARK  12 active torsions:
REMARK  status: ('A' for Active; 'I' for Inactive)
REMARK    1  A    between atoms: C_2  and  C_3
REMARK    2  A    between atoms: C_3  and  N_4
REMARK    3  A    between atoms: N_10  and  C_11
REMARK    4  A    between atoms: C_11  and  C_12
REMARK    5  A    between atoms: C_11  and  C_25
REMARK    6  A    between atoms: C_15  and  C_16
REMARK    7  A    between atoms: N_18  and  C_19
REMARK    8  A    between atoms: N_18  and  C_21
REMARK    9  A    between atoms: C_19  and  C_20
REMARK   10  A    between atoms: C_21  and  C_22
REMARK   11  A    between atoms: C_29  and  O_30
REMARK   12  A    between atoms: O_30  and  C_31
REMARK                            x       y       z     vdW  Elec       q    Type
REMARK                         _______ _______ _______ _____ _____    ______ ____
ROOT
ATOM      1  C   UNL     1      -0.526  10.977  19.302  0.00  0.00    +0.000 C 
ENDROOT
BRANCH   1   8
ATOM      2  N   UNL     1       1.052  13.754  19.517  0.00  0.00    +0.000 NA
ATOM      3  C   UNL     1      -0.108  14.573  19.779  0.00  0.00    +0.000 C 
ATOM      4  C   UNL     1       0.477  15.312  20.980  0.00  0.00    +0.000 C 
ATOM      5  C   UNL     1       1.238  14.240  21.758  0.00  0.00    +0.000 C 
ATOM      6  C   UNL     1       1.457  13.081  20.758  0.00  0.00    +0.000 C 
ATOM      7  C   UNL     1       0.665  11.806  21.273  0.00  0.00    +0.000 C 
ATOM      8  N   UNL     1      -0.681  11.471  20.697  0.00  0.00    +0.000 NA
ATOM      9  C   UNL     1      -1.548  12.620  20.966  0.00  0.00    +0.000 C 
ATOM     10  C   UNL     1      -1.461  13.902  20.123  0.00  0.00    +0.000 C 
BRANCH   2  11
ATOM     11  C   UNL     1       1.586  13.467  18.207  0.00  0.00    +0.000 C 
BRANCH  11  13
ATOM     12  C   UNL     1       3.688  14.919  17.838  0.00  0.00    +0.000 C 
ATOM     13  C   UNL     1       3.012  13.771  17.830  0.00  0.00    +0.000 C 
ENDBRANCH  11  13
ENDBRANCH   2  11
ENDBRANCH   1   8
BRANCH   1  14
ATOM     14  C   UNL     1       0.556   9.880  19.214  0.00  0.00    +0.000 A 
ATOM     15  C   UNL     1       1.438   9.718  18.138  0.00  0.00    +0.000 A 
ATOM     16  C   UNL     1       2.317   8.610  18.097  0.00  0.00    +0.000 A 
ATOM     17  C   UNL     1       2.276   7.622  19.093  0.00  0.00    +0.000 A 
ATOM     18  C   UNL     1       1.394   7.802  20.162  0.00  0.00    +0.000 A 
ATOM     19  C   UNL     1       0.592   8.922  20.238  0.00  0.00    +0.000 A 
BRANCH  17  20
ATOM     20  C   UNL     1       3.118   6.400  19.238  0.00  0.00    +0.000 C 
ATOM     21  O   UNL     1       2.822   5.670  20.191  0.00  0.00    +0.000 OA
ATOM     22  N   UNL     1       4.131   6.021  18.349  0.00  0.00    +0.000 N 
BRANCH  22  23
ATOM     23  C   UNL     1       4.641   6.833  17.244  0.00  0.00    +0.000 C 
ATOM     24  C   UNL     1       6.153   6.994  17.143  0.00  0.00    +0.000 C 
ENDBRANCH  22  23
BRANCH  22  25
ATOM     25  C   UNL     1       4.769   4.735  18.659  0.00  0.00    +0.000 C 
ATOM     26  C   UNL     1       4.381   3.650  17.661  0.00  0.00    +0.000 C 
ENDBRANCH  22  25
ENDBRANCH  17  20
ENDBRANCH   1  14
BRANCH   1  27
ATOM     27  C   UNL     1      -1.642  10.784  18.268  0.00  0.00    +0.000 A 
ATOM     28  C   UNL     1      -1.609   9.958  17.151  0.00  0.00    +0.000 A 
ATOM     29  C   UNL     1      -2.731   9.845  16.318  0.00  0.00    +0.000 A 
ATOM     30  C   UNL     1      -3.891  10.587  16.566  0.00  0.00    +0.000 A 
ATOM     31  C   UNL     1      -3.960  11.418  17.677  0.00  0.00    +0.000 A 
ATOM     32  C   UNL     1      -2.865  11.476  18.532  0.00  0.00    +0.000 A 
BRANCH  31  33
ATOM     33  O   UNL     1      -5.131  12.118  17.823  0.00  0.00    +0.000 OA
ATOM     34  C   UNL     1      -6.308  11.374  18.120  0.00  0.00    +0.000 C 
ENDBRANCH  31  33
ENDBRANCH   1  27
TORSDOF 9
ENDMDL
