MODEL 1
REMARK VINA RESULT:      -7.0      0.000      0.000
REMARK  Name = 
REMARK  4 active torsions:
REMARK  status: ('A' for Active; 'I' for Inactive)
REMARK    1  A    between atoms: C_2  and  O_3
REMARK    2  A    between atoms: C_2  and  C_4
REMARK    3  A    between atoms: C_6  and  O_7
REMARK    4  A    between atoms: O_7  and  C_8
REMARK                            x       y       z     vdW  Elec       q    Type
REMARK                         _______ _______ _______ _____ _____    ______ ____
ROOT
ATOM      1  C   UNK     1       6.637   4.197  16.084  0.00  0.00    +0.000 C 
ATOM      2  C   UNK     1       5.616   5.075  16.772  0.00  0.00    +0.000 C 
ATOM      3  C   UNK     1       6.017   4.976  18.233  0.00  0.00    +0.000 C 
ATOM      4  C   UNK     1       7.553   4.910  18.145  0.00  0.00    +0.000 C 
ATOM      5  N   UNK     1       7.926   4.564  16.747  0.00  0.00    +0.000 NA
ATOM      6  H   UNK     1       8.507   3.719  16.784  0.00  0.00    +0.000 HD
ENDROOT
BRANCH   1   8
ATOM      7  O   UNK     1       5.973   3.959  13.751  0.00  0.00    +0.000 OA
ATOM      8  C   UNK     1       6.687   4.491  14.585  0.00  0.00    +0.000 C 
BRANCH   8   9
ATOM      9  O   UNK     1       7.612   5.437  14.283  0.00  0.00    +0.000 OA
ATOM     10  H   UNK     1       7.154   6.101  13.714  0.00  0.00    +0.000 HD
ENDBRANCH   8   9
ENDBRANCH   1   8
BRANCH   3  11
ATOM     11  O   UNK     1       5.561   3.749  18.822  0.00  0.00    +0.000 OA
BRANCH  11  12
ATOM     12  C   UNK     1       4.234   3.431  18.697  0.00  0.00    +0.000 A 
ATOM     13  C   UNK     1       3.710   2.449  17.855  0.00  0.00    +0.000 A 
ATOM     14  C   UNK     1       2.343   2.164  17.862  0.00  0.00    +0.000 A 
ATOM     15  C   UNK     1       1.484   2.879  18.695  0.00  0.00    +0.000 A 
ATOM     16  C   UNK     1       2.002   3.871  19.524  0.00  0.00    +0.000 A 
ATOM     17 CL   UNK     1       0.941   4.762  20.545  0.00  0.00    +0.000 Cl
ATOM     18  C   UNK     1       3.371   4.140  19.537  0.00  0.00    +0.000 A 
ENDBRANCH  11  12
ENDBRANCH   3  11
TORSDOF 4
ENDMDL
MODEL 2
REMARK VINA RESULT:      -7.0      1.398      1.842
REMARK  Name = 
REMARK  4 active torsions:
REMARK  status: ('A' for Active; 'I' for Inactive)
REMARK    1  A    between atoms: C_2  and  O_3
REMARK    2  A    between atoms: C_2  and  C_4
REMARK    3  A    between atoms: C_6  and  O_7
REMARK    4  A    between atoms: O_7  and  C_8
REMARK                            x       y       z     vdW  Elec       q    Type
REMARK                         _______ _______ _______ _____ _____    ______ ____
ROOT
ATOM      1  C   UNK     1       6.545   4.256  16.103  0.00  0.00    +0.000 C 
ATOM      2  C   UNK     1       5.714   5.394  16.653  0.00  0.00    +0.000 C 
ATOM      3  C   UNK     1       5.967   5.304  18.148  0.00  0.00    +0.000 C 
ATOM      4  C   UNK     1       7.445   4.874  18.203  0.00  0.00    +0.000 C 
ATOM      5  N   UNK     1       7.829   4.357  16.862  0.00  0.00    +0.000 NA
ATOM      6  H   UNK     1       8.187   3.404  16.992  0.00  0.00    +0.000 HD
ENDROOT
BRANCH   1   8
ATOM      7  O   UNK     1       6.212   3.783  13.736  0.00  0.00    +0.000 OA
ATOM      8  C   UNK     1       6.778   4.428  14.603  0.00  0.00    +0.000 C 
BRANCH   8   9
ATOM      9  O   UNK     1       7.682   5.404  14.337  0.00  0.00    +0.000 OA
ATOM     10  H   UNK     1       7.587   5.616  13.377  0.00  0.00    +0.000 HD
ENDBRANCH   8   9
ENDBRANCH   1   8
BRANCH   3  11
ATOM     11  O   UNK     1       5.187   4.261  18.751  0.00  0.00    +0.000 OA
BRANCH  11  12
ATOM     12  C   UNK     1       4.029   4.613  19.393  0.00  0.00    +0.000 A 
ATOM     13  C   UNK     1       3.436   5.876  19.363  0.00  0.00    +0.000 A 
ATOM     14  C   UNK     1       2.214   6.102  20.002  0.00  0.00    +0.000 A 
ATOM     15  C   UNK     1       1.590   5.070  20.701  0.00  0.00    +0.000 A 
ATOM     16  C   UNK     1       2.189   3.814  20.748  0.00  0.00    +0.000 A 
ATOM     17 CL   UNK     1       1.424   2.542  21.619  0.00  0.00    +0.000 Cl
ATOM     18  C   UNK     1       3.395   3.580  20.088  0.00  0.00    +0.000 A 
ENDBRANCH  11  12
ENDBRANCH   3  11
TORSDOF 4
ENDMDL
MODEL 3
REMARK VINA RESULT:      -7.0      1.794      2.463
REMARK  Name = 
REMARK  4 active torsions:
REMARK  status: ('A' for Active; 'I' for Inactive)
REMARK    1  A    between atoms: C_2  and  O_3
REMARK    2  A    between atoms: C_2  and  C_4
REMARK    3  A    between atoms: C_6  and  O_7
REMARK    4  A    between atoms: O_7  and  C_8
REMARK                            x       y       z     vdW  Elec       q    Type
REMARK                         _______ _______ _______ _____ _____    ______ ____
ROOT
ATOM      1  C   UNK     1       5.687   4.758  15.750  0.00  0.00    +0.000 C 
ATOM      2  C   UNK     1       5.631   6.198  16.207  0.00  0.00    +0.000 C 
ATOM      3  C   UNK     1       4.919   6.099  17.545  0.00  0.00    +0.000 C 
ATOM      4  C   UNK     1       5.463   4.771  18.105  0.00  0.00    +0.000 C 
ATOM      5  N   UNK     1       6.075   4.009  16.984  0.00  0.00    +0.000 NA
ATOM      6  H   UNK     1       5.615   3.092  16.948  0.00  0.00    +0.000 HD
ENDROOT
BRANCH   1   8
ATOM      7  O   UNK     1       7.712   5.284  14.500  0.00  0.00    +0.000 OA
ATOM      8  C   UNK     1       6.729   4.576  14.647  0.00  0.00    +0.000 C 
BRANCH   8   9
ATOM      9  O   UNK     1       6.448   3.514  13.851  0.00  0.00    +0.000 OA
ATOM     10  H   UNK     1       6.134   2.794  14.449  0.00  0.00    +0.000 HD
ENDBRANCH   8   9
ENDBRANCH   1   8
BRANCH   3  11
ATOM     11  O   UNK     1       3.501   5.953  17.377  0.00  0.00    +0.000 OA
BRANCH  11  12
ATOM     12  C   UNK     1       2.780   5.436  18.421  0.00  0.00    +0.000 A 
ATOM     13  C   UNK     1       2.634   6.027  19.678  0.00  0.00    +0.000 A 
ATOM     14  C   UNK     1       1.815   5.440  20.646  0.00  0.00    +0.000 A 
ATOM     15  C   UNK     1       1.157   4.243  20.373  0.00  0.00    +0.000 A 
ATOM     16  C   UNK     1       1.315   3.642  19.127  0.00  0.00    +0.000 A 
ATOM     17 CL   UNK     1       0.511   2.158  18.793  0.00  0.00    +0.000 Cl
ATOM     18  C   UNK     1       2.112   4.240  18.149  0.00  0.00    +0.000 A 
ENDBRANCH  11  12
ENDBRANCH   3  11
TORSDOF 4
ENDMDL
MODEL 4
REMARK VINA RESULT:      -6.9      1.097      1.873
REMARK  Name = 
REMARK  4 active torsions:
REMARK  status: ('A' for Active; 'I' for Inactive)
REMARK    1  A    between atoms: C_2  and  O_3
REMARK    2  A    between atoms: C_2  and  C_4
REMARK    3  A    between atoms: C_6  and  O_7
REMARK    4  A    between atoms: O_7  and  C_8
REMARK                            x       y       z     vdW  Elec       q    Type
REMARK                         _______ _______ _______ _____ _____    ______ ____
ROOT
ATOM      1  C   UNK     1       6.558   4.167  16.006  0.00  0.00    +0.000 C 
ATOM      2  C   UNK     1       5.688   5.237  16.628  0.00  0.00    +0.000 C 
ATOM      3  C   UNK     1       5.978   5.086  18.111  0.00  0.00    +0.000 C 
ATOM      4  C   UNK     1       7.474   4.724  18.115  0.00  0.00    +0.000 C 
ATOM      5  N   UNK     1       7.853   4.290  16.743  0.00  0.00    +0.000 NA
ATOM      6  H   UNK     1       8.256   3.350  16.818  0.00  0.00    +0.000 HD
ENDROOT
BRANCH   1   8
ATOM      7  O   UNK     1       7.261   5.424  14.040  0.00  0.00    +0.000 OA
ATOM      8  C   UNK     1       6.750   4.422  14.512  0.00  0.00    +0.000 C 
BRANCH   8   9
ATOM      9  O   UNK     1       6.304   3.386  13.758  0.00  0.00    +0.000 OA
ATOM     10  H   UNK     1       6.986   3.235  13.060  0.00  0.00    +0.000 HD
ENDBRANCH   8   9
ENDBRANCH   1   8
BRANCH   3  11
ATOM     11  O   UNK     1       5.260   3.980  18.677  0.00  0.00    +0.000 OA
BRANCH  11  12
ATOM     12  C   UNK     1       3.987   4.205  19.133  0.00  0.00    +0.000 A 
ATOM     13  C   UNK     1       3.563   5.337  19.830  0.00  0.00    +0.000 A 
ATOM     14  C   UNK     1       2.221   5.489  20.186  0.00  0.00    +0.000 A 
ATOM     15  C   UNK     1       1.297   4.495  19.870  0.00  0.00    +0.000 A 
ATOM     16  C   UNK     1       1.721   3.357  19.190  0.00  0.00    +0.000 A 
ATOM     17 CL   UNK     1       0.582   2.123  18.807  0.00  0.00    +0.000 Cl
ATOM     18  C   UNK     1       3.056   3.215  18.810  0.00  0.00    +0.000 A 
ENDBRANCH  11  12
ENDBRANCH   3  11
TORSDOF 4
ENDMDL
MODEL 5
REMARK VINA RESULT:      -6.9      0.904      1.080
REMARK  Name = 
REMARK  4 active torsions:
REMARK  status: ('A' for Active; 'I' for Inactive)
REMARK    1  A    between atoms: C_2  and  O_3
REMARK    2  A    between atoms: C_2  and  C_4
REMARK    3  A    between atoms: C_6  and  O_7
REMARK    4  A    between atoms: O_7  and  C_8
REMARK                            x       y       z     vdW  Elec       q    Type
REMARK                         _______ _______ _______ _____ _____    ______ ____
ROOT
ATOM      1  C   UNK     1       6.447   4.144  15.375  0.00  0.00    +0.000 C 
ATOM      2  C   UNK     1       5.194   4.910  15.731  0.00  0.00    +0.000 C 
ATOM      3  C   UNK     1       5.077   4.689  17.229  0.00  0.00    +0.000 C 
ATOM      4  C   UNK     1       6.551   4.693  17.674  0.00  0.00    +0.000 C 
ATOM      5  N   UNK     1       7.402   4.498  16.469  0.00  0.00    +0.000 NA
ATOM      6  H   UNK     1       7.994   3.677  16.641  0.00  0.00    +0.000 HD
ENDROOT
BRANCH   1   8
ATOM      7  O   UNK     1       6.634   4.107  12.946  0.00  0.00    +0.000 OA
ATOM      8  C   UNK     1       6.985   4.581  14.014  0.00  0.00    +0.000 C 
BRANCH   8   9
ATOM      9  O   UNK     1       7.894   5.583  14.124  0.00  0.00    +0.000 OA
ATOM     10  H   UNK     1       7.865   6.079  13.270  0.00  0.00    +0.000 HD
ENDBRANCH   8   9
ENDBRANCH   1   8
BRANCH   3  11
ATOM     11  O   UNK     1       4.535   3.394  17.529  0.00  0.00    +0.000 OA
BRANCH  11  12
ATOM     12  C   UNK     1       3.321   3.336  18.160  0.00  0.00    +0.000 A 
ATOM     13  C   UNK     1       2.392   2.300  18.041  0.00  0.00    +0.000 A 
ATOM     14  C   UNK     1       1.212   2.316  18.789  0.00  0.00    +0.000 A 
ATOM     15  C   UNK     1       0.940   3.383  19.643  0.00  0.00    +0.000 A 
ATOM     16  C   UNK     1       1.856   4.426  19.751  0.00  0.00    +0.000 A 
ATOM     17 CL   UNK     1       1.516   5.749  20.797  0.00  0.00    +0.000 Cl
ATOM     18  C   UNK     1       3.047   4.399  19.024  0.00  0.00    +0.000 A 
ENDBRANCH  11  12
ENDBRANCH   3  11
TORSDOF 4
ENDMDL
MODEL 6
REMARK VINA RESULT:      -6.9      1.934      2.190
REMARK  Name = 
REMARK  4 active torsions:
REMARK  status: ('A' for Active; 'I' for Inactive)
REMARK    1  A    between atoms: C_2  and  O_3
REMARK    2  A    between atoms: C_2  and  C_4
REMARK    3  A    between atoms: C_6  and  O_7
REMARK    4  A    between atoms: O_7  and  C_8
REMARK                            x       y       z     vdW  Elec       q    Type
REMARK                         _______ _______ _______ _____ _____    ______ ____
ROOT
ATOM      1  C   UNK     1       6.588   5.333  15.916  0.00  0.00    +0.000 C 
ATOM      2  C   UNK     1       5.219   5.974  15.890  0.00  0.00    +0.000 C 
ATOM      3  C   UNK     1       5.197   6.775  17.180  0.00  0.00    +0.000 C 
ATOM      4  C   UNK     1       6.654   7.261  17.286  0.00  0.00    +0.000 C 
ATOM      5  N   UNK     1       7.488   6.437  16.369  0.00  0.00    +0.000 NA
ATOM      6  H   UNK     1       8.237   6.016  16.930  0.00  0.00    +0.000 HD
ENDROOT
BRANCH   1   8
ATOM      7  O   UNK     1       6.448   3.909  13.943  0.00  0.00    +0.000 OA
ATOM      8  C   UNK     1       6.984   4.837  14.526  0.00  0.00    +0.000 C 
BRANCH   8   9
ATOM      9  O   UNK     1       7.999   5.565  13.996  0.00  0.00    +0.000 OA
ATOM     10  H   UNK     1       7.765   6.514  14.141  0.00  0.00    +0.000 HD
ENDBRANCH   8   9
ENDBRANCH   1   8
BRANCH   3  11
ATOM     11  O   UNK     1       4.934   5.936  18.315  0.00  0.00    +0.000 OA
BRANCH  11  12
ATOM     12  C   UNK     1       3.893   5.050  18.232  0.00  0.00    +0.000 A 
ATOM     13  C   UNK     1       2.562   5.382  17.974  0.00  0.00    +0.000 A 
ATOM     14  C   UNK     1       1.594   4.383  17.843  0.00  0.00    +0.000 A 
ATOM     15  C   UNK     1       1.946   3.044  17.997  0.00  0.00    +0.000 A 
ATOM     16  C   UNK     1       3.270   2.710  18.272  0.00  0.00    +0.000 A 
ATOM     17 CL   UNK     1       3.704   1.057  18.472  0.00  0.00    +0.000 Cl
ATOM     18  C   UNK     1       4.243   3.705  18.376  0.00  0.00    +0.000 A 
ENDBRANCH  11  12
ENDBRANCH   3  11
TORSDOF 4
ENDMDL
MODEL 7
REMARK VINA RESULT:      -6.8      1.476      1.524
REMARK  Name = 
REMARK  4 active torsions:
REMARK  status: ('A' for Active; 'I' for Inactive)
REMARK    1  A    between atoms: C_2  and  O_3
REMARK    2  A    between atoms: C_2  and  C_4
REMARK    3  A    between atoms: C_6  and  O_7
REMARK    4  A    between atoms: O_7  and  C_8
REMARK                            x       y       z     vdW  Elec       q    Type
REMARK                         _______ _______ _______ _____ _____    ______ ____
ROOT
ATOM      1  C   UNK     1       6.652   4.919  15.510  0.00  0.00    +0.000 C 
ATOM      2  C   UNK     1       5.199   5.328  15.602  0.00  0.00    +0.000 C 
ATOM      3  C   UNK     1       5.080   5.824  17.033  0.00  0.00    +0.000 C 
ATOM      4  C   UNK     1       6.445   6.499  17.259  0.00  0.00    +0.000 C 
ATOM      5  N   UNK     1       7.378   6.029  16.199  0.00  0.00    +0.000 NA
ATOM      6  H   UNK     1       8.195   5.621  16.667  0.00  0.00    +0.000 HD
ENDROOT
BRANCH   1   8
ATOM      7  O   UNK     1       6.584   4.046  13.235  0.00  0.00    +0.000 OA
ATOM      8  C   UNK     1       7.092   4.797  14.051  0.00  0.00    +0.000 C 
BRANCH   8   9
ATOM      9  O   UNK     1       8.109   5.645  13.754  0.00  0.00    +0.000 OA
ATOM     10  H   UNK     1       8.768   5.119  13.241  0.00  0.00    +0.000 HD
ENDBRANCH   8   9
ENDBRANCH   1   8
BRANCH   3  11
ATOM     11  O   UNK     1       4.974   4.733  17.960  0.00  0.00    +0.000 OA
BRANCH  11  12
ATOM     12  C   UNK     1       3.722   4.356  18.369  0.00  0.00    +0.000 A 
ATOM     13  C   UNK     1       2.558   4.443  17.605  0.00  0.00    +0.000 A 
ATOM     14  C   UNK     1       1.344   3.962  18.103  0.00  0.00    +0.000 A 
ATOM     15  C   UNK     1       1.282   3.415  19.383  0.00  0.00    +0.000 A 
ATOM     16  C   UNK     1       2.439   3.343  20.155  0.00  0.00    +0.000 A 
ATOM     17 CL   UNK     1       2.362   2.676  21.740  0.00  0.00    +0.000 Cl
ATOM     18  C   UNK     1       3.657   3.798  19.649  0.00  0.00    +0.000 A 
ENDBRANCH  11  12
ENDBRANCH   3  11
TORSDOF 4
ENDMDL
MODEL 8
REMARK VINA RESULT:      -6.8      2.525      3.398
REMARK  Name = 
REMARK  4 active torsions:
REMARK  status: ('A' for Active; 'I' for Inactive)
REMARK    1  A    between atoms: C_2  and  O_3
REMARK    2  A    between atoms: C_2  and  C_4
REMARK    3  A    between atoms: C_6  and  O_7
REMARK    4  A    between atoms: O_7  and  C_8
REMARK                            x       y       z     vdW  Elec       q    Type
REMARK                         _______ _______ _______ _____ _____    ______ ____
ROOT
ATOM      1  C   UNK     1       6.526   6.229  18.110  0.00  0.00    +0.000 C 
ATOM      2  C   UNK     1       5.796   4.905  18.140  0.00  0.00    +0.000 C 
ATOM      3  C   UNK     1       4.810   5.038  16.993  0.00  0.00    +0.000 C 
ATOM      4  C   UNK     1       5.620   5.842  15.959  0.00  0.00    +0.000 C 
ATOM      5  N   UNK     1       6.780   6.461  16.655  0.00  0.00    +0.000 NA
ATOM      6  H   UNK     1       6.733   7.473  16.491  0.00  0.00    +0.000 HD
ENDROOT
BRANCH   1   8
ATOM      7  O   UNK     1       8.256   5.138  19.436  0.00  0.00    +0.000 OA
ATOM      8  C   UNK     1       7.837   6.146  18.890  0.00  0.00    +0.000 C 
BRANCH   8   9
ATOM      9  O   UNK     1       8.504   7.328  18.891  0.00  0.00    +0.000 OA
ATOM     10  H   UNK     1       8.573   7.608  19.835  0.00  0.00    +0.000 HD
ENDBRANCH   8   9
ENDBRANCH   1   8
BRANCH   3  11
ATOM     11  O   UNK     1       3.673   5.830  17.366  0.00  0.00    +0.000 OA
BRANCH  11  12
ATOM     12  C   UNK     1       2.882   5.376  18.389  0.00  0.00    +0.000 A 
ATOM     13  C   UNK     1       2.669   6.032  19.603  0.00  0.00    +0.000 A 
ATOM     14  C   UNK     1       1.784   5.506  20.548  0.00  0.00    +0.000 A 
ATOM     15  C   UNK     1       1.125   4.305  20.295  0.00  0.00    +0.000 A 
ATOM     16  C   UNK     1       1.349   3.639  19.093  0.00  0.00    +0.000 A 
ATOM     17 CL   UNK     1       0.543   2.150  18.784  0.00  0.00    +0.000 Cl
ATOM     18  C   UNK     1       2.212   4.176  18.137  0.00  0.00    +0.000 A 
ENDBRANCH  11  12
ENDBRANCH   3  11
TORSDOF 4
ENDMDL
MODEL 9
REMARK VINA RESULT:      -6.8      1.510      2.211
REMARK  Name = 
REMARK  4 active torsions:
REMARK  status: ('A' for Active; 'I' for Inactive)
REMARK    1  A    between atoms: C_2  and  O_3
REMARK    2  A    between atoms: C_2  and  C_4
REMARK    3  A    between atoms: C_6  and  O_7
REMARK    4  A    between atoms: O_7  and  C_8
REMARK                            x       y       z     vdW  Elec       q    Type
REMARK                         _______ _______ _______ _____ _____    ______ ____
ROOT
ATOM      1  C   UNK     1       6.620   4.994  15.830  0.00  0.00    +0.000 C 
ATOM      2  C   UNK     1       5.163   5.395  15.885  0.00  0.00    +0.000 C 
ATOM      3  C   UNK     1       5.038   6.020  17.263  0.00  0.00    +0.000 C 
ATOM      4  C   UNK     1       6.397   6.727  17.425  0.00  0.00    +0.000 C 
ATOM      5  N   UNK     1       7.334   6.170  16.413  0.00  0.00    +0.000 NA
ATOM      6  H   UNK     1       8.155   5.815  16.917  0.00  0.00    +0.000 HD
ENDROOT
BRANCH   1   8
ATOM      7  O   UNK     1       7.833   5.453  13.767  0.00  0.00    +0.000 OA
ATOM      8  C   UNK     1       7.061   4.742  14.389  0.00  0.00    +0.000 C 
BRANCH   8   9
ATOM      9  O   UNK     1       6.509   3.613  13.877  0.00  0.00    +0.000 OA
ATOM     10  H   UNK     1       6.065   3.155  14.631  0.00  0.00    +0.000 HD
ENDBRANCH   8   9
ENDBRANCH   1   8
BRANCH   3  11
ATOM     11  O   UNK     1       4.943   5.019  18.288  0.00  0.00    +0.000 OA
BRANCH  11  12
ATOM     12  C   UNK     1       3.748   4.882  18.944  0.00  0.00    +0.000 A 
ATOM     13  C   UNK     1       3.238   5.765  19.897  0.00  0.00    +0.000 A 
ATOM     14  C   UNK     1       1.973   5.559  20.451  0.00  0.00    +0.000 A 
ATOM     15  C   UNK     1       1.218   4.450  20.075  0.00  0.00    +0.000 A 
ATOM     16  C   UNK     1       1.731   3.557  19.138  0.00  0.00    +0.000 A 
ATOM     17 CL   UNK     1       0.803   2.181  18.680  0.00  0.00    +0.000 Cl
ATOM     18  C   UNK     1       2.983   3.775  18.563  0.00  0.00    +0.000 A 
ENDBRANCH  11  12
ENDBRANCH   3  11
TORSDOF 4
ENDMDL
