MODEL 1
REMARK VINA RESULT:      -8.8      0.000      0.000
REMARK  Name = 
REMARK  2 active torsions:
REMARK  status: ('A' for Active; 'I' for Inactive)
REMARK    1  A    between atoms: C_1  and  N_2
REMARK    2  A    between atoms: N_19  and  C_20
REMARK                            x       y       z     vdW  Elec       q    Type
REMARK                         _______ _______ _______ _____ _____    ______ ____
ROOT
ATOM      1  C   UNL     1       7.825   4.408  17.811  0.00  0.00    +0.000 C 
ATOM      2  N   UNL     1       7.454   5.690  18.516  0.00  0.00    +0.000 N 
ATOM      3  N   UNL     1       6.240   5.487  19.151  0.00  0.00    +0.000 NA
ATOM      4  C   UNL     1       5.416   5.686  18.096  0.00  0.00    +0.000 A 
ATOM      5  C   UNL     1       6.071   6.731  17.273  0.00  0.00    +0.000 A 
ATOM      6  C   UNL     1       7.312   7.056  17.912  0.00  0.00    +0.000 A 
ATOM      7  C   UNL     1       8.545   8.309  17.830  0.00  0.00    +0.000 C 
ATOM      8  N   UNL     1       8.324   9.919  18.325  0.00  0.00    +0.000 NA
ATOM      9  C   UNL     1       9.418  11.153  18.075  0.00  0.00    +0.000 C 
ATOM     10  C   UNL     1       9.542  12.977  18.036  0.00  0.00    +0.000 C 
ATOM     11  N   UNL     1       8.976  14.313  18.533  0.00  0.00    +0.000 NA
ATOM     12  C   UNL     1       7.541  14.562  18.419  0.00  0.00    +0.000 C 
ATOM     13  C   UNL     1       6.854  16.015  18.593  0.00  0.00    +0.000 C 
ATOM     14  N   UNL     1       5.425  15.694  18.650  0.00  0.00    +0.000 NA
ATOM     15  C   UNL     1       4.366  16.680  18.659  0.00  0.00    +0.000 C 
ATOM     16  C   UNL     1       3.057  15.911  18.624  0.00  0.00    +0.000 A 
ATOM     17  C   UNL     1       2.903  14.508  18.468  0.00  0.00    +0.000 A 
ATOM     18  C   UNL     1       1.558  14.237  18.609  0.00  0.00    +0.000 A 
ATOM     19  N   UNL     1       0.968  15.475  18.769  0.00  0.00    +0.000 N 
ATOM     20  C   UNL     1      -0.410  15.738  18.890  0.00  0.00    +0.000 C 
ATOM     21  N   UNL     1       1.855  16.489  18.821  0.00  0.00    +0.000 NA
ATOM     22  C   UNL     1       0.793  12.955  18.565  0.00  0.00    +0.000 C 
ATOM     23  N   UNL     1       1.754  11.880  18.453  0.00  0.00    +0.000 NA
ATOM     24  C   UNL     1       1.076  10.569  18.344  0.00  0.00    +0.000 C 
ATOM     25  C   UNL     1       2.153   9.503  18.171  0.00  0.00    +0.000 C 
ATOM     26  N   UNL     1       1.535   8.186  18.030  0.00  0.00    +0.000 NA
ATOM     27  C   UNL     1       2.600   7.195  18.001  0.00  0.00    +0.000 C 
ATOM     28  C   UNL     1       2.058   5.774  18.116  0.00  0.00    +0.000 C 
ATOM     29  N   UNL     1       3.056   4.886  18.698  0.00  0.00    +0.000 NA
ATOM     30  C   UNL     1       4.252   4.689  17.871  0.00  0.00    +0.000 C 
ATOM     31  H   UNL     1       8.549   9.759  19.320  0.00  0.00    +0.000 HD
ATOM     32  H   UNL     1       9.464  15.073  18.052  0.00  0.00    +0.000 HD
ATOM     33  H   UNL     1       5.298  15.105  19.487  0.00  0.00    +0.000 HD
ATOM     34  H   UNL     1       2.347  11.856  19.278  0.00  0.00    +0.000 HD
ATOM     35  H   UNL     1       0.995   8.146  17.165  0.00  0.00    +0.000 HD
ATOM     36  H   UNL     1       3.353   5.238  19.609  0.00  0.00    +0.000 HD
ENDROOT
TORSDOF 0
ENDMDL
MODEL 2
REMARK VINA RESULT:      -8.2      1.363      6.203
REMARK  Name = 
REMARK  2 active torsions:
REMARK  status: ('A' for Active; 'I' for Inactive)
REMARK    1  A    between atoms: C_1  and  N_2
REMARK    2  A    between atoms: N_19  and  C_20
REMARK                            x       y       z     vdW  Elec       q    Type
REMARK                         _______ _______ _______ _____ _____    ______ ____
ROOT
ATOM      1  C   UNL     1       1.841   4.202  18.661  0.00  0.00    +0.000 C 
ATOM      2  N   UNL     1       2.328   5.465  17.993  0.00  0.00    +0.000 N 
ATOM      3  N   UNL     1       3.501   5.163  17.323  0.00  0.00    +0.000 NA
ATOM      4  C   UNL     1       4.362   5.238  18.364  0.00  0.00    +0.000 A 
ATOM      5  C   UNL     1       3.834   6.312  19.239  0.00  0.00    +0.000 A 
ATOM      6  C   UNL     1       2.621   6.785  18.640  0.00  0.00    +0.000 A 
ATOM      7  C   UNL     1       1.524   8.153  18.795  0.00  0.00    +0.000 C 
ATOM      8  N   UNL     1       1.900   9.750  18.351  0.00  0.00    +0.000 NA
ATOM      9  C   UNL     1       0.943  11.079  18.670  0.00  0.00    +0.000 C 
ATOM     10  C   UNL     1       1.007  12.903  18.774  0.00  0.00    +0.000 C 
ATOM     11  N   UNL     1       1.697  14.192  18.312  0.00  0.00    +0.000 NA
ATOM     12  C   UNL     1       3.152  14.290  18.400  0.00  0.00    +0.000 C 
ATOM     13  C   UNL     1       3.980  15.671  18.261  0.00  0.00    +0.000 C 
ATOM     14  N   UNL     1       5.367  15.208  18.160  0.00  0.00    +0.000 NA
ATOM     15  C   UNL     1       6.522  16.082  18.160  0.00  0.00    +0.000 C 
ATOM     16  C   UNL     1       7.745  15.182  18.138  0.00  0.00    +0.000 A 
ATOM     17  C   UNL     1       7.758  13.766  18.240  0.00  0.00    +0.000 A 
ATOM     18  C   UNL     1       9.065  13.365  18.059  0.00  0.00    +0.000 A 
ATOM     19  N   UNL     1       9.775  14.542  17.928  0.00  0.00    +0.000 N 
ATOM     20  C   UNL     1      11.171  14.668  17.784  0.00  0.00    +0.000 C 
ATOM     21  N   UNL     1       8.996  15.642  17.932  0.00  0.00    +0.000 NA
ATOM     22  C   UNL     1       9.695  12.011  18.040  0.00  0.00    +0.000 C 
ATOM     23  N   UNL     1       8.632  11.036  18.137  0.00  0.00    +0.000 NA
ATOM     24  C   UNL     1       9.173   9.660  18.185  0.00  0.00    +0.000 C 
ATOM     25  C   UNL     1       7.997   8.703  18.346  0.00  0.00    +0.000 C 
ATOM     26  N   UNL     1       8.480   7.326  18.427  0.00  0.00    +0.000 NA
ATOM     27  C   UNL     1       7.320   6.448  18.446  0.00  0.00    +0.000 C 
ATOM     28  C   UNL     1       7.711   4.984  18.269  0.00  0.00    +0.000 C 
ATOM     29  N   UNL     1       6.616   4.225  17.680  0.00  0.00    +0.000 NA
ATOM     30  C   UNL     1       5.423   4.120  18.527  0.00  0.00    +0.000 C 
ATOM     31  H   UNL     1       1.640   9.650  17.357  0.00  0.00    +0.000 HD
ATOM     32  H   UNL     1       1.298  14.980  18.830  0.00  0.00    +0.000 HD
ATOM     33  H   UNL     1       5.417  14.641  17.300  0.00  0.00    +0.000 HD
ATOM     34  H   UNL     1       8.023  11.103  17.326  0.00  0.00    +0.000 HD
ATOM     35  H   UNL     1       9.029   7.199  19.276  0.00  0.00    +0.000 HD
ATOM     36  H   UNL     1       6.339   4.639  16.789  0.00  0.00    +0.000 HD
ENDROOT
TORSDOF 0
ENDMDL
MODEL 3
REMARK VINA RESULT:      -6.8      1.608      9.725
REMARK  Name = 
REMARK  2 active torsions:
REMARK  status: ('A' for Active; 'I' for Inactive)
REMARK    1  A    between atoms: C_1  and  N_2
REMARK    2  A    between atoms: N_19  and  C_20
REMARK                            x       y       z     vdW  Elec       q    Type
REMARK                         _______ _______ _______ _____ _____    ______ ____
ROOT
ATOM      1  C   UNL     1       8.486  18.223  19.023  0.00  0.00    +0.000 C 
ATOM      2  N   UNL     1       7.851  16.939  19.496  0.00  0.00    +0.000 N 
ATOM      3  N   UNL     1       8.858  16.126  19.989  0.00  0.00    +0.000 NA
ATOM      4  C   UNL     1       9.306  15.615  18.820  0.00  0.00    +0.000 A 
ATOM      5  C   UNL     1       8.107  15.489  17.956  0.00  0.00    +0.000 A 
ATOM      6  C   UNL     1       6.995  15.998  18.703  0.00  0.00    +0.000 A 
ATOM      7  C   UNL     1       5.237  15.986  18.616  0.00  0.00    +0.000 C 
ATOM      8  N   UNL     1       4.265  14.614  18.859  0.00  0.00    +0.000 NA
ATOM      9  C   UNL     1       2.619  14.550  18.591  0.00  0.00    +0.000 C 
ATOM     10  C   UNL     1       1.252  13.366  18.326  0.00  0.00    +0.000 C 
ATOM     11  N   UNL     1       0.717  11.948  18.562  0.00  0.00    +0.000 NA
ATOM     12  C   UNL     1       1.565  10.806  18.231  0.00  0.00    +0.000 C 
ATOM     13  C   UNL     1       1.035   9.283  18.119  0.00  0.00    +0.000 C 
ATOM     14  N   UNL     1       2.279   8.512  18.031  0.00  0.00    +0.000 NA
ATOM     15  C   UNL     1       2.342   7.089  17.770  0.00  0.00    +0.000 C 
ATOM     16  C   UNL     1       3.814   6.733  17.668  0.00  0.00    +0.000 A 
ATOM     17  C   UNL     1       4.909   7.637  17.682  0.00  0.00    +0.000 A 
ATOM     18  C   UNL     1       6.057   6.874  17.682  0.00  0.00    +0.000 A 
ATOM     19  N   UNL     1       5.609   5.571  17.598  0.00  0.00    +0.000 N 
ATOM     20  C   UNL     1       6.406   4.414  17.501  0.00  0.00    +0.000 C 
ATOM     21  N   UNL     1       4.265   5.463  17.629  0.00  0.00    +0.000 NA
ATOM     22  C   UNL     1       7.501   7.252  17.710  0.00  0.00    +0.000 C 
ATOM     23  N   UNL     1       7.571   8.688  17.869  0.00  0.00    +0.000 NA
ATOM     24  C   UNL     1       8.974   9.160  17.847  0.00  0.00    +0.000 C 
ATOM     25  C   UNL     1       8.954  10.680  17.959  0.00  0.00    +0.000 C 
ATOM     26  N   UNL     1      10.319  11.202  17.916  0.00  0.00    +0.000 NA
ATOM     27  C   UNL     1      10.255  12.635  18.158  0.00  0.00    +0.000 C 
ATOM     28  C   UNL     1      11.638  13.236  18.390  0.00  0.00    +0.000 C 
ATOM     29  N   UNL     1      11.549  14.437  19.210  0.00  0.00    +0.000 NA
ATOM     30  C   UNL     1      10.836  15.553  18.579  0.00  0.00    +0.000 C 
ATOM     31  H   UNL     1       4.216  14.696  19.886  0.00  0.00    +0.000 HD
ATOM     32  H   UNL     1      -0.164  11.842  18.052  0.00  0.00    +0.000 HD
ATOM     33  H   UNL     1       2.782   8.681  18.915  0.00  0.00    +0.000 HD
ATOM     34  H   UNL     1       7.165   8.960  18.759  0.00  0.00    +0.000 HD
ATOM     35  H   UNL     1      10.732  11.019  17.002  0.00  0.00    +0.000 HD
ATOM     36  H   UNL     1      11.090  14.225  20.097  0.00  0.00    +0.000 HD
ENDROOT
TORSDOF 0
ENDMDL
MODEL 4
REMARK VINA RESULT:      -6.7      1.754      7.759
REMARK  Name = 
REMARK  2 active torsions:
REMARK  status: ('A' for Active; 'I' for Inactive)
REMARK    1  A    between atoms: C_1  and  N_2
REMARK    2  A    between atoms: N_19  and  C_20
REMARK                            x       y       z     vdW  Elec       q    Type
REMARK                         _______ _______ _______ _____ _____    ______ ____
ROOT
ATOM      1  C   UNL     1      12.326  13.842  18.460  0.00  0.00    +0.000 C 
ATOM      2  N   UNL     1      11.032  13.389  17.831  0.00  0.00    +0.000 N 
ATOM      3  N   UNL     1      10.329  14.520  17.449  0.00  0.00    +0.000 NA
ATOM      4  C   UNL     1       9.778  14.837  18.644  0.00  0.00    +0.000 A 
ATOM      5  C   UNL     1       9.508  13.542  19.312  0.00  0.00    +0.000 A 
ATOM      6  C   UNL     1       9.980  12.509  18.437  0.00  0.00    +0.000 A 
ATOM      7  C   UNL     1       9.833  10.764  18.263  0.00  0.00    +0.000 C 
ATOM      8  N   UNL     1       8.411   9.954  17.807  0.00  0.00    +0.000 NA
ATOM      9  C   UNL     1       8.208   8.298  17.825  0.00  0.00    +0.000 C 
ATOM     10  C   UNL     1       6.912   7.009  17.822  0.00  0.00    +0.000 C 
ATOM     11  N   UNL     1       5.476   6.633  17.434  0.00  0.00    +0.000 NA
ATOM     12  C   UNL     1       4.381   7.516  17.826  0.00  0.00    +0.000 C 
ATOM     13  C   UNL     1       2.819   7.103  17.777  0.00  0.00    +0.000 C 
ATOM     14  N   UNL     1       2.138   8.381  18.007  0.00  0.00    +0.000 NA
ATOM     15  C   UNL     1       0.710   8.524  18.198  0.00  0.00    +0.000 C 
ATOM     16  C   UNL     1       0.458   9.991  18.497  0.00  0.00    +0.000 A 
ATOM     17  C   UNL     1       1.440  10.997  18.693  0.00  0.00    +0.000 A 
ATOM     18  C   UNL     1       0.766  12.193  18.823  0.00  0.00    +0.000 A 
ATOM     19  N   UNL     1      -0.570  11.847  18.770  0.00  0.00    +0.000 N 
ATOM     20  C   UNL     1      -1.669  12.715  18.922  0.00  0.00    +0.000 C 
ATOM     21  N   UNL     1      -0.775  10.535  18.535  0.00  0.00    +0.000 NA
ATOM     22  C   UNL     1       1.251  13.590  19.028  0.00  0.00    +0.000 C 
ATOM     23  N   UNL     1       2.695  13.563  18.958  0.00  0.00    +0.000 NA
ATOM     24  C   UNL     1       3.267  14.904  19.212  0.00  0.00    +0.000 C 
ATOM     25  C   UNL     1       4.786  14.775  19.179  0.00  0.00    +0.000 C 
ATOM     26  N   UNL     1       5.404  16.072  19.451  0.00  0.00    +0.000 NA
ATOM     27  C   UNL     1       6.841  15.925  19.279  0.00  0.00    +0.000 C 
ATOM     28  C   UNL     1       7.555  17.272  19.286  0.00  0.00    +0.000 C 
ATOM     29  N   UNL     1       8.797  17.203  18.527  0.00  0.00    +0.000 NA
ATOM     30  C   UNL     1       9.814  16.316  19.103  0.00  0.00    +0.000 C 
ATOM     31  H   UNL     1       8.555  10.046  16.789  0.00  0.00    +0.000 HD
ATOM     32  H   UNL     1       5.273   5.700  17.802  0.00  0.00    +0.000 HD
ATOM     33  H   UNL     1       2.400   8.990  17.217  0.00  0.00    +0.000 HD
ATOM     34  H   UNL     1       2.993  13.267  18.034  0.00  0.00    +0.000 HD
ATOM     35  H   UNL     1       5.193  16.363  20.405  0.00  0.00    +0.000 HD
ATOM     36  H   UNL     1       8.610  16.894  17.572  0.00  0.00    +0.000 HD
ENDROOT
TORSDOF 0
ENDMDL
MODEL 5
REMARK VINA RESULT:      -6.3      1.684      9.959
REMARK  Name = 
REMARK  2 active torsions:
REMARK  status: ('A' for Active; 'I' for Inactive)
REMARK    1  A    between atoms: C_1  and  N_2
REMARK    2  A    between atoms: N_19  and  C_20
REMARK                            x       y       z     vdW  Elec       q    Type
REMARK                         _______ _______ _______ _____ _____    ______ ____
ROOT
ATOM      1  C   UNL     1       6.745  18.188  20.069  0.00  0.00    +0.000 C 
ATOM      2  N   UNL     1       6.376  16.763  20.401  0.00  0.00    +0.000 N 
ATOM      3  N   UNL     1       7.528  16.112  20.807  0.00  0.00    +0.000 NA
ATOM      4  C   UNL     1       8.045  15.822  19.590  0.00  0.00    +0.000 A 
ATOM      5  C   UNL     1       6.877  15.559  18.716  0.00  0.00    +0.000 A 
ATOM      6  C   UNL     1       5.701  15.763  19.510  0.00  0.00    +0.000 A 
ATOM      7  C   UNL     1       3.977  15.422  19.417  0.00  0.00    +0.000 C 
ATOM      8  N   UNL     1       3.291  13.871  19.510  0.00  0.00    +0.000 NA
ATOM      9  C   UNL     1       1.683  13.520  19.233  0.00  0.00    +0.000 C 
ATOM     10  C   UNL     1       0.563  12.130  18.840  0.00  0.00    +0.000 C 
ATOM     11  N   UNL     1       0.315  10.619  18.922  0.00  0.00    +0.000 NA
ATOM     12  C   UNL     1       1.360   9.702  18.473  0.00  0.00    +0.000 C 
ATOM     13  C   UNL     1       1.129   8.126  18.198  0.00  0.00    +0.000 C 
ATOM     14  N   UNL     1       2.496   7.623  18.031  0.00  0.00    +0.000 NA
ATOM     15  C   UNL     1       2.826   6.274  17.621  0.00  0.00    +0.000 C 
ATOM     16  C   UNL     1       4.337   6.220  17.485  0.00  0.00    +0.000 A 
ATOM     17  C   UNL     1       5.238   7.312  17.598  0.00  0.00    +0.000 A 
ATOM     18  C   UNL     1       6.511   6.788  17.519  0.00  0.00    +0.000 A 
ATOM     19  N   UNL     1       6.319   5.440  17.295  0.00  0.00    +0.000 N 
ATOM     20  C   UNL     1       7.322   4.474  17.078  0.00  0.00    +0.000 C 
ATOM     21  N   UNL     1       5.022   5.072  17.311  0.00  0.00    +0.000 NA
ATOM     22  C   UNL     1       7.857   7.432  17.591  0.00  0.00    +0.000 C 
ATOM     23  N   UNL     1       7.653   8.830  17.902  0.00  0.00    +0.000 NA
ATOM     24  C   UNL     1       8.938   9.562  17.934  0.00  0.00    +0.000 C 
ATOM     25  C   UNL     1       8.630  11.030  18.208  0.00  0.00    +0.000 C 
ATOM     26  N   UNL     1       9.868  11.807  18.224  0.00  0.00    +0.000 NA
ATOM     27  C   UNL     1       9.535  13.167  18.617  0.00  0.00    +0.000 C 
ATOM     28  C   UNL     1      10.782  13.994  18.915  0.00  0.00    +0.000 C 
ATOM     29  N   UNL     1      10.479  15.063  19.859  0.00  0.00    +0.000 NA
ATOM     30  C   UNL     1       9.554  16.081  19.349  0.00  0.00    +0.000 C 
ATOM     31  H   UNL     1       3.246  13.833  20.540  0.00  0.00    +0.000 HD
ATOM     32  H   UNL     1      -0.539  10.399  18.402  0.00  0.00    +0.000 HD
ATOM     33  H   UNL     1       2.974   7.791  18.930  0.00  0.00    +0.000 HD
ATOM     34  H   UNL     1       7.218   8.923  18.815  0.00  0.00    +0.000 HD
ATOM     35  H   UNL     1      10.292  11.804  17.297  0.00  0.00    +0.000 HD
ATOM     36  H   UNL     1      10.085  14.675  20.716  0.00  0.00    +0.000 HD
ENDROOT
TORSDOF 0
ENDMDL
MODEL 6
REMARK VINA RESULT:      -6.1      5.876     10.265
REMARK  Name = 
REMARK  2 active torsions:
REMARK  status: ('A' for Active; 'I' for Inactive)
REMARK    1  A    between atoms: C_1  and  N_2
REMARK    2  A    between atoms: N_19  and  C_20
REMARK                            x       y       z     vdW  Elec       q    Type
REMARK                         _______ _______ _______ _____ _____    ______ ____
ROOT
ATOM      1  C   UNL     1      -7.715  12.213  19.668  0.00  0.00    +0.000 C 
ATOM      2  N   UNL     1      -6.604  13.227  19.786  0.00  0.00    +0.000 N 
ATOM      3  N   UNL     1      -5.937  13.266  18.572  0.00  0.00    +0.000 NA
ATOM      4  C   UNL     1      -5.136  12.189  18.739  0.00  0.00    +0.000 A 
ATOM      5  C   UNL     1      -4.801  12.163  20.183  0.00  0.00    +0.000 A 
ATOM      6  C   UNL     1      -5.497  13.255  20.797  0.00  0.00    +0.000 A 
ATOM      7  C   UNL     1      -5.480  14.135  22.321  0.00  0.00    +0.000 C 
ATOM      8  N   UNL     1      -4.227  15.163  22.831  0.00  0.00    +0.000 NA
ATOM      9  C   UNL     1      -4.112  15.847  24.349  0.00  0.00    +0.000 C 
ATOM     10  C   UNL     1      -2.913  16.634  25.482  0.00  0.00    +0.000 C 
ATOM     11  N   UNL     1      -1.611  17.432  25.621  0.00  0.00    +0.000 NA
ATOM     12  C   UNL     1      -0.413  16.961  24.929  0.00  0.00    +0.000 C 
ATOM     13  C   UNL     1       1.081  17.497  25.233  0.00  0.00    +0.000 C 
ATOM     14  N   UNL     1       1.860  16.928  24.130  0.00  0.00    +0.000 NA
ATOM     15  C   UNL     1       3.302  17.001  24.024  0.00  0.00    +0.000 C 
ATOM     16  C   UNL     1       3.688  16.204  22.790  0.00  0.00    +0.000 A 
ATOM     17  C   UNL     1       2.821  15.423  21.981  0.00  0.00    +0.000 A 
ATOM     18  C   UNL     1       3.569  14.974  20.913  0.00  0.00    +0.000 A 
ATOM     19  N   UNL     1       4.845  15.439  21.163  0.00  0.00    +0.000 N 
ATOM     20  C   UNL     1       5.995  15.190  20.388  0.00  0.00    +0.000 C 
ATOM     21  N   UNL     1       4.928  16.214  22.263  0.00  0.00    +0.000 NA
ATOM     22  C   UNL     1       3.210  14.134  19.732  0.00  0.00    +0.000 C 
ATOM     23  N   UNL     1       1.783  13.903  19.780  0.00  0.00    +0.000 NA
ATOM     24  C   UNL     1       1.347  13.024  18.673  0.00  0.00    +0.000 C 
ATOM     25  C   UNL     1      -0.150  12.785  18.832  0.00  0.00    +0.000 C 
ATOM     26  N   UNL     1      -0.630  11.897  17.774  0.00  0.00    +0.000 NA
ATOM     27  C   UNL     1      -2.077  11.808  17.891  0.00  0.00    +0.000 C 
ATOM     28  C   UNL     1      -2.704  11.116  16.685  0.00  0.00    +0.000 C 
ATOM     29  N   UNL     1      -4.077  11.561  16.489  0.00  0.00    +0.000 NA
ATOM     30  C   UNL     1      -4.998  11.183  17.568  0.00  0.00    +0.000 C 
ATOM     31  H   UNL     1      -4.574  16.006  22.346  0.00  0.00    +0.000 HD
ATOM     32  H   UNL     1      -1.385  17.517  26.616  0.00  0.00    +0.000 HD
ATOM     33  H   UNL     1       1.473  17.337  23.266  0.00  0.00    +0.000 HD
ATOM     34  H   UNL     1       1.286  14.784  19.693  0.00  0.00    +0.000 HD
ATOM     35  H   UNL     1      -0.212  10.974  17.880  0.00  0.00    +0.000 HD
ATOM     36  H   UNL     1      -4.108  12.575  16.385  0.00  0.00    +0.000 HD
ENDROOT
TORSDOF 0
ENDMDL
MODEL 7
REMARK VINA RESULT:      -6.0      2.150     10.104
REMARK  Name = 
REMARK  2 active torsions:
REMARK  status: ('A' for Active; 'I' for Inactive)
REMARK    1  A    between atoms: C_1  and  N_2
REMARK    2  A    between atoms: N_19  and  C_20
REMARK                            x       y       z     vdW  Elec       q    Type
REMARK                         _______ _______ _______ _____ _____    ______ ____
ROOT
ATOM      1  C   UNL     1       5.334  17.861  20.334  0.00  0.00    +0.000 C 
ATOM      2  N   UNL     1       5.369  16.414  20.761  0.00  0.00    +0.000 N 
ATOM      3  N   UNL     1       6.695  16.019  20.806  0.00  0.00    +0.000 NA
ATOM      4  C   UNL     1       6.881  15.761  19.491  0.00  0.00    +0.000 A 
ATOM      5  C   UNL     1       5.585  15.229  19.004  0.00  0.00    +0.000 A 
ATOM      6  C   UNL     1       4.677  15.253  20.112  0.00  0.00    +0.000 A 
ATOM      7  C   UNL     1       3.104  14.587  20.538  0.00  0.00    +0.000 C 
ATOM      8  N   UNL     1       2.798  12.942  20.832  0.00  0.00    +0.000 NA
ATOM      9  C   UNL     1       1.283  12.277  21.046  0.00  0.00    +0.000 C 
ATOM     10  C   UNL     1       0.397  10.679  21.006  0.00  0.00    +0.000 C 
ATOM     11  N   UNL     1       0.489   9.156  21.159  0.00  0.00    +0.000 NA
ATOM     12  C   UNL     1       1.518   8.428  20.420  0.00  0.00    +0.000 C 
ATOM     13  C   UNL     1       1.535   6.824  20.227  0.00  0.00    +0.000 C 
ATOM     14  N   UNL     1       2.865   6.580  19.661  0.00  0.00    +0.000 NA
ATOM     15  C   UNL     1       3.322   5.296  19.171  0.00  0.00    +0.000 C 
ATOM     16  C   UNL     1       4.707   5.521  18.591  0.00  0.00    +0.000 A 
ATOM     17  C   UNL     1       5.366   6.769  18.430  0.00  0.00    +0.000 A 
ATOM     18  C   UNL     1       6.637   6.493  17.976  0.00  0.00    +0.000 A 
ATOM     19  N   UNL     1       6.661   5.121  17.820  0.00  0.00    +0.000 N 
ATOM     20  C   UNL     1       7.728   4.352  17.314  0.00  0.00    +0.000 C 
ATOM     21  N   UNL     1       5.525   4.516  18.222  0.00  0.00    +0.000 NA
ATOM     22  C   UNL     1       7.789   7.383  17.643  0.00  0.00    +0.000 C 
ATOM     23  N   UNL     1       7.411   8.733  18.000  0.00  0.00    +0.000 NA
ATOM     24  C   UNL     1       8.478   9.696  17.647  0.00  0.00    +0.000 C 
ATOM     25  C   UNL     1       7.978  11.093  17.999  0.00  0.00    +0.000 C 
ATOM     26  N   UNL     1       8.986  12.089  17.645  0.00  0.00    +0.000 NA
ATOM     27  C   UNL     1       8.519  13.383  18.119  0.00  0.00    +0.000 C 
ATOM     28  C   UNL     1       9.608  14.448  18.031  0.00  0.00    +0.000 C 
ATOM     29  N   UNL     1       9.388  15.494  19.022  0.00  0.00    +0.000 NA
ATOM     30  C   UNL     1       8.171  16.286  18.810  0.00  0.00    +0.000 C 
ATOM     31  H   UNL     1       3.064  12.958  21.829  0.00  0.00    +0.000 HD
ATOM     32  H   UNL     1      -0.418   8.748  20.917  0.00  0.00    +0.000 HD
ATOM     33  H   UNL     1       3.541   6.889  20.376  0.00  0.00    +0.000 HD
ATOM     34  H   UNL     1       7.253   8.796  19.001  0.00  0.00    +0.000 HD
ATOM     35  H   UNL     1       9.113  12.112  16.634  0.00  0.00    +0.000 HD
ATOM     36  H   UNL     1       9.347  15.091  19.958  0.00  0.00    +0.000 HD
ENDROOT
TORSDOF 0
ENDMDL
MODEL 8
REMARK VINA RESULT:      -6.0      6.032     11.105
REMARK  Name = 
REMARK  2 active torsions:
REMARK  status: ('A' for Active; 'I' for Inactive)
REMARK    1  A    between atoms: C_1  and  N_2
REMARK    2  A    between atoms: N_19  and  C_20
REMARK                            x       y       z     vdW  Elec       q    Type
REMARK                         _______ _______ _______ _____ _____    ______ ____
ROOT
ATOM      1  C   UNL     1       4.284  18.111  21.980  0.00  0.00    +0.000 C 
ATOM      2  N   UNL     1       3.185  17.164  22.396  0.00  0.00    +0.000 N 
ATOM      3  N   UNL     1       3.476  15.919  21.865  0.00  0.00    +0.000 NA
ATOM      4  C   UNL     1       3.003  16.111  20.612  0.00  0.00    +0.000 A 
ATOM      5  C   UNL     1       1.826  16.999  20.764  0.00  0.00    +0.000 A 
ATOM      6  C   UNL     1       1.712  17.314  22.158  0.00  0.00    +0.000 A 
ATOM      7  C   UNL     1       0.529  18.017  23.255  0.00  0.00    +0.000 C 
ATOM      8  N   UNL     1      -0.931  17.276  23.708  0.00  0.00    +0.000 NA
ATOM      9  C   UNL     1      -2.141  18.012  24.591  0.00  0.00    +0.000 C 
ATOM     10  C   UNL     1      -3.916  17.860  24.998  0.00  0.00    +0.000 C 
ATOM     11  N   UNL     1      -5.125  16.928  25.145  0.00  0.00    +0.000 NA
ATOM     12  C   UNL     1      -5.456  16.017  24.053  0.00  0.00    +0.000 C 
ATOM     13  C   UNL     1      -6.858  15.222  23.925  0.00  0.00    +0.000 C 
ATOM     14  N   UNL     1      -6.595  14.273  22.839  0.00  0.00    +0.000 NA
ATOM     15  C   UNL     1      -7.598  13.417  22.241  0.00  0.00    +0.000 C 
ATOM     16  C   UNL     1      -6.916  12.680  21.103  0.00  0.00    +0.000 A 
ATOM     17  C   UNL     1      -5.595  12.892  20.627  0.00  0.00    +0.000 A 
ATOM     18  C   UNL     1      -5.358  11.931  19.667  0.00  0.00    +0.000 A 
ATOM     19  N   UNL     1      -6.549  11.242  19.563  0.00  0.00    +0.000 N 
ATOM     20  C   UNL     1      -6.838  10.195  18.664  0.00  0.00    +0.000 C 
ATOM     21  N   UNL     1      -7.485  11.650  20.445  0.00  0.00    +0.000 NA
ATOM     22  C   UNL     1      -4.155  11.636  18.832  0.00  0.00    +0.000 C 
ATOM     23  N   UNL     1      -3.094  12.514  19.273  0.00  0.00    +0.000 NA
ATOM     24  C   UNL     1      -1.875  12.330  18.455  0.00  0.00    +0.000 C 
ATOM     25  C   UNL     1      -0.832  13.329  18.945  0.00  0.00    +0.000 C 
ATOM     26  N   UNL     1       0.388  13.208  18.150  0.00  0.00    +0.000 NA
ATOM     27  C   UNL     1       1.391  14.083  18.738  0.00  0.00    +0.000 C 
ATOM     28  C   UNL     1       2.775  13.842  18.144  0.00  0.00    +0.000 C 
ATOM     29  N   UNL     1       3.817  14.210  19.095  0.00  0.00    +0.000 NA
ATOM     30  C   UNL     1       3.869  15.641  19.415  0.00  0.00    +0.000 C 
ATOM     31  H   UNL     1      -0.535  16.723  24.485  0.00  0.00    +0.000 HD
ATOM     32  H   UNL     1      -5.953  17.496  25.341  0.00  0.00    +0.000 HD
ATOM     33  H   UNL     1      -5.835  13.661  23.172  0.00  0.00    +0.000 HD
ATOM     34  H   UNL     1      -2.855  12.311  20.239  0.00  0.00    +0.000 HD
ATOM     35  H   UNL     1       0.204  13.485  17.186  0.00  0.00    +0.000 HD
ATOM     36  H   UNL     1       3.698  13.693  19.966  0.00  0.00    +0.000 HD
ENDROOT
TORSDOF 0
ENDMDL
MODEL 9
REMARK VINA RESULT:      -6.0      2.587      7.569
REMARK  Name = 
REMARK  2 active torsions:
REMARK  status: ('A' for Active; 'I' for Inactive)
REMARK    1  A    between atoms: C_1  and  N_2
REMARK    2  A    between atoms: N_19  and  C_20
REMARK                            x       y       z     vdW  Elec       q    Type
REMARK                         _______ _______ _______ _____ _____    ______ ____
ROOT
ATOM      1  C   UNL     1      12.329  12.375  18.893  0.00  0.00    +0.000 C 
ATOM      2  N   UNL     1      10.902  12.371  18.400  0.00  0.00    +0.000 N 
ATOM      3  N   UNL     1      10.427  13.670  18.472  0.00  0.00    +0.000 NA
ATOM      4  C   UNL     1      10.101  13.701  19.785  0.00  0.00    +0.000 A 
ATOM      5  C   UNL     1       9.631  12.332  20.109  0.00  0.00    +0.000 A 
ATOM      6  C   UNL     1       9.760  11.549  18.916  0.00  0.00    +0.000 A 
ATOM      7  C   UNL     1       9.213   9.994  18.299  0.00  0.00    +0.000 C 
ATOM      8  N   UNL     1       7.605   9.625  17.893  0.00  0.00    +0.000 NA
ATOM      9  C   UNL     1       7.046   8.105  17.492  0.00  0.00    +0.000 C 
ATOM     10  C   UNL     1       5.506   7.129  17.362  0.00  0.00    +0.000 C 
ATOM     11  N   UNL     1       3.989   7.148  17.143  0.00  0.00    +0.000 NA
ATOM     12  C   UNL     1       3.167   8.049  17.947  0.00  0.00    +0.000 C 
ATOM     13  C   UNL     1       1.557   7.953  18.061  0.00  0.00    +0.000 C 
ATOM     14  N   UNL     1       1.206   9.200  18.747  0.00  0.00    +0.000 NA
ATOM     15  C   UNL     1      -0.124   9.528  19.217  0.00  0.00    +0.000 C 
ATOM     16  C   UNL     1      -0.011  10.854  19.946  0.00  0.00    +0.000 A 
ATOM     17  C   UNL     1       1.184  11.564  20.236  0.00  0.00    +0.000 A 
ATOM     18  C   UNL     1       0.809  12.762  20.804  0.00  0.00    +0.000 A 
ATOM     19  N   UNL     1      -0.567  12.690  20.893  0.00  0.00    +0.000 N 
ATOM     20  C   UNL     1      -1.423  13.651  21.466  0.00  0.00    +0.000 C 
ATOM     21  N   UNL     1      -1.082  11.570  20.347  0.00  0.00    +0.000 NA
ATOM     22  C   UNL     1       1.610  13.922  21.297  0.00  0.00    +0.000 C 
ATOM     23  N   UNL     1       2.995  13.663  20.971  0.00  0.00    +0.000 NA
ATOM     24  C   UNL     1       3.873  14.741  21.478  0.00  0.00    +0.000 C 
ATOM     25  C   UNL     1       5.312  14.362  21.147  0.00  0.00    +0.000 C 
ATOM     26  N   UNL     1       6.228  15.384  21.652  0.00  0.00    +0.000 NA
ATOM     27  C   UNL     1       7.568  15.045  21.197  0.00  0.00    +0.000 C 
ATOM     28  C   UNL     1       8.557  16.178  21.449  0.00  0.00    +0.000 C 
ATOM     29  N   UNL     1       9.657  16.124  20.495  0.00  0.00    +0.000 NA
ATOM     30  C   UNL     1      10.514  14.940  20.619  0.00  0.00    +0.000 C 
ATOM     31  H   UNL     1       7.648   9.995  16.931  0.00  0.00    +0.000 HD
ATOM     32  H   UNL     1       3.628   6.199  17.270  0.00  0.00    +0.000 HD
ATOM     33  H   UNL     1       1.503   9.964  18.121  0.00  0.00    +0.000 HD
ATOM     34  H   UNL     1       3.112  13.615  19.963  0.00  0.00    +0.000 HD
ATOM     35  H   UNL     1       6.198  15.404  22.671  0.00  0.00    +0.000 HD
ATOM     36  H   UNL     1       9.298  16.159  19.540  0.00  0.00    +0.000 HD
ENDROOT
TORSDOF 0
ENDMDL
