MODEL 1
REMARK VINA RESULT:      -8.4      0.000      0.000
REMARK  Name = 
REMARK  11 active torsions:
REMARK  status: ('A' for Active; 'I' for Inactive)
REMARK    1  A    between atoms: C_1  and  C_2
REMARK    2  A    between atoms: C_2  and  C_3
REMARK    3  A    between atoms: C_6  and  O_7
REMARK    4  A    between atoms: C_8  and  C_9
REMARK    5  A    between atoms: C_9  and  C_10
REMARK    6  A    between atoms: C_10  and  C_11
REMARK    7  A    between atoms: C_11  and  O_12
REMARK    8  A    between atoms: O_12  and  C_13
REMARK    9  A    between atoms: C_22  and  C_23
REMARK   10  A    between atoms: C_23  and  C_24
REMARK   11  A    between atoms: C_24  and  C_25
REMARK                            x       y       z     vdW  Elec       q    Type
REMARK                         _______ _______ _______ _____ _____    ______ ____
ROOT
ATOM      1  C   UNL     1       5.170   6.608  15.416  0.00  0.00    +0.000 C 
ATOM      2  C   UNL     1       5.873   5.974  16.600  0.00  0.00    +0.000 C 
ATOM      3  C   UNL     1       6.633   7.124  17.334  0.00  0.00    +0.000 C 
ATOM      4  C   UNL     1       4.915   5.180  17.456  0.00  0.00    +0.000 A 
ATOM      5  C   UNL     1       3.936   4.253  17.077  0.00  0.00    +0.000 A 
ATOM      6  C   UNL     1       3.477   3.342  18.011  0.00  0.00    +0.000 A 
ATOM      7  C   UNL     1       3.783   3.510  19.355  0.00  0.00    +0.000 A 
ATOM      8  C   UNL     1       4.988   4.176  19.610  0.00  0.00    +0.000 A 
ATOM      9  C   UNL     1       5.642   4.754  18.527  0.00  0.00    +0.000 A 
ATOM     10  O   UNL     1       6.833   4.212  17.913  0.00  0.00    +0.000 OA
ATOM     11  C   UNL     1       6.890   4.828  16.510  0.00  0.00    +0.000 C 
ENDROOT
BRANCH   6  12
ATOM     12  O   UNL     1       2.883   2.177  17.601  0.00  0.00    +0.000 OA
ATOM     13  H   UNL     1       1.956   2.250  17.911  0.00  0.00    +0.000 HD
ENDBRANCH   6  12
BRANCH   7  14
ATOM     14  C   UNL     1       2.745   3.158  20.393  0.00  0.00    +0.000 C 
BRANCH  14  15
ATOM     15  C   UNL     1       2.265   4.300  21.272  0.00  0.00    +0.000 C 
BRANCH  15  16
ATOM     16  C   UNL     1       1.501   5.300  20.430  0.00  0.00    +0.000 C 
BRANCH  16  17
ATOM     17  O   UNL     1       1.653   6.612  20.953  0.00  0.00    +0.000 OA
BRANCH  17  18
ATOM     18  C   UNL     1       1.725   7.586  19.985  0.00  0.00    +0.000 A 
ATOM     19  C   UNL     1       1.127   8.848  20.065  0.00  0.00    +0.000 A 
ATOM     20  C   UNL     1       1.263   9.756  19.017  0.00  0.00    +0.000 A 
ATOM     21  C   UNL     1       2.013   9.402  17.902  0.00  0.00    +0.000 A 
ATOM     22  C   UNL     1       2.613   8.145  17.805  0.00  0.00    +0.000 A 
ATOM     23  C   UNL     1       2.476   7.240  18.862  0.00  0.00    +0.000 A 
ENDBRANCH  17  18
ENDBRANCH  16  17
ENDBRANCH  15  16
ENDBRANCH  14  15
ENDBRANCH   7  14
BRANCH  11  24
ATOM     24  C   UNL     1       6.660   3.830  15.332  0.00  0.00    +0.000 C 
BRANCH  24  25
ATOM     25  C   UNL     1       6.728   4.430  13.894  0.00  0.00    +0.000 C 
BRANCH  25  26
ATOM     26  C   UNL     1       6.046   3.659  12.790  0.00  0.00    +0.000 A 
ATOM     27  C   UNL     1       6.686   2.554  12.220  0.00  0.00    +0.000 A 
ATOM     28  C   UNL     1       6.034   1.803  11.241  0.00  0.00    +0.000 A 
ATOM     29  C   UNL     1       4.745   2.131  10.832  0.00  0.00    +0.000 A 
ATOM     30  C   UNL     1       4.090   3.207  11.412  0.00  0.00    +0.000 A 
ATOM     31  C   UNL     1       4.734   3.969  12.388  0.00  0.00    +0.000 A 
ENDBRANCH  25  26
ENDBRANCH  24  25
ENDBRANCH  11  24
TORSDOF 9
ENDMDL
MODEL 2
REMARK VINA RESULT:      -7.4      1.159      1.738
REMARK  Name = 
REMARK  11 active torsions:
REMARK  status: ('A' for Active; 'I' for Inactive)
REMARK    1  A    between atoms: C_1  and  C_2
REMARK    2  A    between atoms: C_2  and  C_3
REMARK    3  A    between atoms: C_6  and  O_7
REMARK    4  A    between atoms: C_8  and  C_9
REMARK    5  A    between atoms: C_9  and  C_10
REMARK    6  A    between atoms: C_10  and  C_11
REMARK    7  A    between atoms: C_11  and  O_12
REMARK    8  A    between atoms: O_12  and  C_13
REMARK    9  A    between atoms: C_22  and  C_23
REMARK   10  A    between atoms: C_23  and  C_24
REMARK   11  A    between atoms: C_24  and  C_25
REMARK                            x       y       z     vdW  Elec       q    Type
REMARK                         _______ _______ _______ _____ _____    ______ ____
ROOT
ATOM      1  C   UNL     1       4.939   6.317  15.441  0.00  0.00    +0.000 C 
ATOM      2  C   UNL     1       5.821   5.918  16.607  0.00  0.00    +0.000 C 
ATOM      3  C   UNL     1       6.265   7.242  17.303  0.00  0.00    +0.000 C 
ATOM      4  C   UNL     1       5.139   4.911  17.502  0.00  0.00    +0.000 A 
ATOM      5  C   UNL     1       4.435   3.748  17.165  0.00  0.00    +0.000 A 
ATOM      6  C   UNL     1       4.266   2.764  18.123  0.00  0.00    +0.000 A 
ATOM      7  C   UNL     1       4.556   3.033  19.455  0.00  0.00    +0.000 A 
ATOM      8  C   UNL     1       5.544   4.003  19.663  0.00  0.00    +0.000 A 
ATOM      9  C   UNL     1       5.985   4.716  18.552  0.00  0.00    +0.000 A 
ATOM     10  O   UNL     1       7.259   4.503  17.904  0.00  0.00    +0.000 OA
ATOM     11  C   UNL     1       7.106   5.086  16.494  0.00  0.00    +0.000 C 
ENDROOT
BRANCH   6  12
ATOM     12  O   UNL     1       3.997   1.476  17.745  0.00  0.00    +0.000 OA
ATOM     13  H   UNL     1       4.816   1.172  17.300  0.00  0.00    +0.000 HD
ENDBRANCH   6  12
BRANCH   7  14
ATOM     14  C   UNL     1       3.682   2.434  20.530  0.00  0.00    +0.000 C 
BRANCH  14  15
ATOM     15  C   UNL     1       2.234   2.179  20.149  0.00  0.00    +0.000 C 
BRANCH  15  16
ATOM     16  C   UNL     1       1.328   3.054  20.990  0.00  0.00    +0.000 C 
BRANCH  16  17
ATOM     17  O   UNL     1       0.556   3.913  20.162  0.00  0.00    +0.000 OA
BRANCH  17  18
ATOM     18  C   UNL     1       1.232   5.038  19.753  0.00  0.00    +0.000 A 
ATOM     19  C   UNL     1       1.718   6.039  20.601  0.00  0.00    +0.000 A 
ATOM     20  C   UNL     1       2.386   7.142  20.073  0.00  0.00    +0.000 A 
ATOM     21  C   UNL     1       2.579   7.228  18.700  0.00  0.00    +0.000 A 
ATOM     22  C   UNL     1       2.096   6.239  17.839  0.00  0.00    +0.000 A 
ATOM     23  C   UNL     1       1.430   5.133  18.376  0.00  0.00    +0.000 A 
ENDBRANCH  17  18
ENDBRANCH  16  17
ENDBRANCH  15  16
ENDBRANCH  14  15
ENDBRANCH   7  14
BRANCH  11  24
ATOM     24  C   UNL     1       7.119   4.041  15.334  0.00  0.00    +0.000 C 
BRANCH  24  25
ATOM     25  C   UNL     1       6.943   4.607  13.892  0.00  0.00    +0.000 C 
BRANCH  25  26
ATOM     26  C   UNL     1       6.227   3.735  12.889  0.00  0.00    +0.000 A 
ATOM     27  C   UNL     1       4.882   3.980  12.595  0.00  0.00    +0.000 A 
ATOM     28  C   UNL     1       4.233   3.213  11.624  0.00  0.00    +0.000 A 
ATOM     29  C   UNL     1       4.913   2.215  10.934  0.00  0.00    +0.000 A 
ATOM     30  C   UNL     1       6.254   1.983  11.198  0.00  0.00    +0.000 A 
ATOM     31  C   UNL     1       6.912   2.739  12.170  0.00  0.00    +0.000 A 
ENDBRANCH  25  26
ENDBRANCH  24  25
ENDBRANCH  11  24
TORSDOF 9
ENDMDL
MODEL 3
REMARK VINA RESULT:      -7.3      1.797      3.484
REMARK  Name = 
REMARK  11 active torsions:
REMARK  status: ('A' for Active; 'I' for Inactive)
REMARK    1  A    between atoms: C_1  and  C_2
REMARK    2  A    between atoms: C_2  and  C_3
REMARK    3  A    between atoms: C_6  and  O_7
REMARK    4  A    between atoms: C_8  and  C_9
REMARK    5  A    between atoms: C_9  and  C_10
REMARK    6  A    between atoms: C_10  and  C_11
REMARK    7  A    between atoms: C_11  and  O_12
REMARK    8  A    between atoms: O_12  and  C_13
REMARK    9  A    between atoms: C_22  and  C_23
REMARK   10  A    between atoms: C_23  and  C_24
REMARK   11  A    between atoms: C_24  and  C_25
REMARK                            x       y       z     vdW  Elec       q    Type
REMARK                         _______ _______ _______ _____ _____    ______ ____
ROOT
ATOM      1  C   UNL     1       7.677   7.692  17.382  0.00  0.00    +0.000 C 
ATOM      2  C   UNL     1       7.215   6.340  17.887  0.00  0.00    +0.000 C 
ATOM      3  C   UNL     1       8.296   5.850  18.901  0.00  0.00    +0.000 C 
ATOM      4  C   UNL     1       5.803   6.397  18.420  0.00  0.00    +0.000 A 
ATOM      5  C   UNL     1       4.661   6.986  17.864  0.00  0.00    +0.000 A 
ATOM      6  C   UNL     1       3.414   6.564  18.289  0.00  0.00    +0.000 A 
ATOM      7  C   UNL     1       3.297   5.769  19.422  0.00  0.00    +0.000 A 
ATOM      8  C   UNL     1       4.403   4.955  19.692  0.00  0.00    +0.000 A 
ATOM      9  C   UNL     1       5.550   5.159  18.930  0.00  0.00    +0.000 A 
ATOM     10  O   UNL     1       5.989   4.278  17.871  0.00  0.00    +0.000 OA
ATOM     11  C   UNL     1       6.930   5.120  17.000  0.00  0.00    +0.000 C 
ENDROOT
BRANCH   6  12
ATOM     12  O   UNL     1       2.314   6.766  17.498  0.00  0.00    +0.000 OA
ATOM     13  H   UNL     1       1.757   5.972  17.641  0.00  0.00    +0.000 HD
ENDBRANCH   6  12
BRANCH   7  14
ATOM     14  C   UNL     1       2.124   5.981  20.348  0.00  0.00    +0.000 C 
BRANCH  14  15
ATOM     15  C   UNL     1       1.634   4.754  21.097  0.00  0.00    +0.000 C 
BRANCH  15  16
ATOM     16  C   UNL     1       0.487   4.122  20.336  0.00  0.00    +0.000 C 
BRANCH  16  17
ATOM     17  O   UNL     1       0.747   2.747  20.093  0.00  0.00    +0.000 OA
BRANCH  17  18
ATOM     18  C   UNL     1       1.738   2.529  19.165  0.00  0.00    +0.000 A 
ATOM     19  C   UNL     1       2.819   1.657  19.329  0.00  0.00    +0.000 A 
ATOM     20  C   UNL     1       3.769   1.520  18.319  0.00  0.00    +0.000 A 
ATOM     21  C   UNL     1       3.621   2.243  17.142  0.00  0.00    +0.000 A 
ATOM     22  C   UNL     1       2.549   3.121  16.964  0.00  0.00    +0.000 A 
ATOM     23  C   UNL     1       1.597   3.250  17.980  0.00  0.00    +0.000 A 
ENDBRANCH  17  18
ENDBRANCH  16  17
ENDBRANCH  15  16
ENDBRANCH  14  15
ENDBRANCH   7  14
BRANCH  11  24
ATOM     24  C   UNL     1       6.399   5.450  15.569  0.00  0.00    +0.000 C 
BRANCH  24  25
ATOM     25  C   UNL     1       7.246   4.910  14.377  0.00  0.00    +0.000 C 
BRANCH  25  26
ATOM     26  C   UNL     1       6.515   4.148  13.298  0.00  0.00    +0.000 A 
ATOM     27  C   UNL     1       7.241   3.486  12.304  0.00  0.00    +0.000 A 
ATOM     28  C   UNL     1       6.570   2.731  11.340  0.00  0.00    +0.000 A 
ATOM     29  C   UNL     1       5.184   2.617  11.363  0.00  0.00    +0.000 A 
ATOM     30  C   UNL     1       4.456   3.245  12.362  0.00  0.00    +0.000 A 
ATOM     31  C   UNL     1       5.116   4.008  13.328  0.00  0.00    +0.000 A 
ENDBRANCH  25  26
ENDBRANCH  24  25
ENDBRANCH  11  24
TORSDOF 9
ENDMDL
MODEL 4
REMARK VINA RESULT:      -7.1      4.006      7.563
REMARK  Name = 
REMARK  11 active torsions:
REMARK  status: ('A' for Active; 'I' for Inactive)
REMARK    1  A    between atoms: C_1  and  C_2
REMARK    2  A    between atoms: C_2  and  C_3
REMARK    3  A    between atoms: C_6  and  O_7
REMARK    4  A    between atoms: C_8  and  C_9
REMARK    5  A    between atoms: C_9  and  C_10
REMARK    6  A    between atoms: C_10  and  C_11
REMARK    7  A    between atoms: C_11  and  O_12
REMARK    8  A    between atoms: O_12  and  C_13
REMARK    9  A    between atoms: C_22  and  C_23
REMARK   10  A    between atoms: C_23  and  C_24
REMARK   11  A    between atoms: C_24  and  C_25
REMARK                            x       y       z     vdW  Elec       q    Type
REMARK                         _______ _______ _______ _____ _____    ______ ____
ROOT
ATOM      1  C   UNL     1       2.915   5.413  19.616  0.00  0.00    +0.000 C 
ATOM      2  C   UNL     1       3.509   5.851  18.291  0.00  0.00    +0.000 C 
ATOM      3  C   UNL     1       2.525   6.903  17.688  0.00  0.00    +0.000 C 
ATOM      4  C   UNL     1       4.938   6.314  18.447  0.00  0.00    +0.000 A 
ATOM      5  C   UNL     1       5.998   5.719  19.141  0.00  0.00    +0.000 A 
ATOM      6  C   UNL     1       7.296   6.066  18.810  0.00  0.00    +0.000 A 
ATOM      7  C   UNL     1       7.535   7.166  17.996  0.00  0.00    +0.000 A 
ATOM      8  C   UNL     1       6.513   7.466  17.088  0.00  0.00    +0.000 A 
ATOM      9  C   UNL     1       5.315   6.770  17.220  0.00  0.00    +0.000 A 
ATOM     10  O   UNL     1       4.891   5.708  16.336  0.00  0.00    +0.000 OA
ATOM     11  C   UNL     1       3.842   4.912  17.123  0.00  0.00    +0.000 C 
ENDROOT
BRANCH   6  12
ATOM     12  O   UNL     1       8.333   5.228  19.122  0.00  0.00    +0.000 OA
ATOM     13  H   UNL     1       8.523   5.410  20.066  0.00  0.00    +0.000 HD
ENDBRANCH   6  12
BRANCH   7  14
ATOM     14  C   UNL     1       8.735   8.038  18.276  0.00  0.00    +0.000 C 
BRANCH  14  15
ATOM     15  C   UNL     1       8.482   9.536  18.297  0.00  0.00    +0.000 C 
BRANCH  15  16
ATOM     16  C   UNL     1       9.359  10.182  19.349  0.00  0.00    +0.000 C 
BRANCH  16  17
ATOM     17  O   UNL     1       9.090  11.574  19.436  0.00  0.00    +0.000 OA
BRANCH  17  18
ATOM     18  C   UNL     1       9.896  12.343  18.629  0.00  0.00    +0.000 A 
ATOM     19  C   UNL     1      11.082  11.910  18.027  0.00  0.00    +0.000 A 
ATOM     20  C   UNL     1      11.822  12.781  17.231  0.00  0.00    +0.000 A 
ATOM     21  C   UNL     1      11.361  14.076  17.026  0.00  0.00    +0.000 A 
ATOM     22  C   UNL     1      10.181  14.524  17.623  0.00  0.00    +0.000 A 
ATOM     23  C   UNL     1       9.441  13.644  18.418  0.00  0.00    +0.000 A 
ENDBRANCH  17  18
ENDBRANCH  16  17
ENDBRANCH  15  16
ENDBRANCH  14  15
ENDBRANCH   7  14
BRANCH  11  24
ATOM     24  C   UNL     1       4.268   3.468  17.535  0.00  0.00    +0.000 C 
BRANCH  24  25
ATOM     25  C   UNL     1       3.112   2.454  17.792  0.00  0.00    +0.000 C 
BRANCH  25  26
ATOM     26  C   UNL     1       2.473   2.466  19.160  0.00  0.00    +0.000 A 
ATOM     27  C   UNL     1       3.272   2.320  20.298  0.00  0.00    +0.000 A 
ATOM     28  C   UNL     1       2.693   2.391  21.567  0.00  0.00    +0.000 A 
ATOM     29  C   UNL     1       1.329   2.620  21.714  0.00  0.00    +0.000 A 
ATOM     30  C   UNL     1       0.532   2.796  20.594  0.00  0.00    +0.000 A 
ATOM     31  C   UNL     1       1.099   2.721  19.319  0.00  0.00    +0.000 A 
ENDBRANCH  25  26
ENDBRANCH  24  25
ENDBRANCH  11  24
TORSDOF 9
ENDMDL
MODEL 5
REMARK VINA RESULT:      -7.0      1.557      8.022
REMARK  Name = 
REMARK  11 active torsions:
REMARK  status: ('A' for Active; 'I' for Inactive)
REMARK    1  A    between atoms: C_1  and  C_2
REMARK    2  A    between atoms: C_2  and  C_3
REMARK    3  A    between atoms: C_6  and  O_7
REMARK    4  A    between atoms: C_8  and  C_9
REMARK    5  A    between atoms: C_9  and  C_10
REMARK    6  A    between atoms: C_10  and  C_11
REMARK    7  A    between atoms: C_11  and  O_12
REMARK    8  A    between atoms: O_12  and  C_13
REMARK    9  A    between atoms: C_22  and  C_23
REMARK   10  A    between atoms: C_23  and  C_24
REMARK   11  A    between atoms: C_24  and  C_25
REMARK                            x       y       z     vdW  Elec       q    Type
REMARK                         _______ _______ _______ _____ _____    ______ ____
ROOT
ATOM      1  C   UNL     1       0.489   3.244  18.380  0.00  0.00    +0.000 C 
ATOM      2  C   UNL     1       1.749   3.243  19.222  0.00  0.00    +0.000 C 
ATOM      3  C   UNL     1       1.895   1.801  19.804  0.00  0.00    +0.000 C 
ATOM      4  C   UNL     1       2.939   3.752  18.444  0.00  0.00    +0.000 A 
ATOM      5  C   UNL     1       3.053   4.880  17.623  0.00  0.00    +0.000 A 
ATOM      6  C   UNL     1       4.310   5.393  17.358  0.00  0.00    +0.000 A 
ATOM      7  C   UNL     1       5.444   4.658  17.681  0.00  0.00    +0.000 A 
ATOM      8  C   UNL     1       5.296   3.785  18.765  0.00  0.00    +0.000 A 
ATOM      9  C   UNL     1       4.012   3.605  19.271  0.00  0.00    +0.000 A 
ATOM     10  O   UNL     1       3.542   4.175  20.514  0.00  0.00    +0.000 OA
ATOM     11  C   UNL     1       2.012   4.174  20.414  0.00  0.00    +0.000 C 
ENDROOT
BRANCH   6  12
ATOM     12  O   UNL     1       4.450   6.695  16.955  0.00  0.00    +0.000 OA
ATOM     13  H   UNL     1       5.012   6.646  16.152  0.00  0.00    +0.000 HD
ENDBRANCH   6  12
BRANCH   7  14
ATOM     14  C   UNL     1       6.636   4.705  16.756  0.00  0.00    +0.000 C 
BRANCH  14  15
ATOM     15  C   UNL     1       6.443   4.078  15.386  0.00  0.00    +0.000 C 
BRANCH  15  16
ATOM     16  C   UNL     1       6.540   5.150  14.320  0.00  0.00    +0.000 C 
BRANCH  16  17
ATOM     17  O   UNL     1       7.256   4.667  13.192  0.00  0.00    +0.000 OA
BRANCH  17  18
ATOM     18  C   UNL     1       6.569   3.723  12.466  0.00  0.00    +0.000 A 
ATOM     19  C   UNL     1       7.141   2.600  11.859  0.00  0.00    +0.000 A 
ATOM     20  C   UNL     1       6.345   1.710  11.141  0.00  0.00    +0.000 A 
ATOM     21  C   UNL     1       4.978   1.940  11.049  0.00  0.00    +0.000 A 
ATOM     22  C   UNL     1       4.392   3.059  11.646  0.00  0.00    +0.000 A 
ATOM     23  C   UNL     1       5.196   3.945  12.369  0.00  0.00    +0.000 A 
ENDBRANCH  17  18
ENDBRANCH  16  17
ENDBRANCH  15  16
ENDBRANCH  14  15
ENDBRANCH   7  14
BRANCH  11  24
ATOM     24  C   UNL     1       1.347   5.583  20.313  0.00  0.00    +0.000 C 
BRANCH  24  25
ATOM     25  C   UNL     1       2.315   6.805  20.320  0.00  0.00    +0.000 C 
BRANCH  25  26
ATOM     26  C   UNL     1       1.779   8.114  19.792  0.00  0.00    +0.000 A 
ATOM     27  C   UNL     1       2.014   8.472  18.461  0.00  0.00    +0.000 A 
ATOM     28  C   UNL     1       1.469   9.653  17.953  0.00  0.00    +0.000 A 
ATOM     29  C   UNL     1       0.682  10.475  18.753  0.00  0.00    +0.000 A 
ATOM     30  C   UNL     1       0.418  10.116  20.065  0.00  0.00    +0.000 A 
ATOM     31  C   UNL     1       0.963   8.940  20.586  0.00  0.00    +0.000 A 
ENDBRANCH  25  26
ENDBRANCH  24  25
ENDBRANCH  11  24
TORSDOF 9
ENDMDL
MODEL 6
REMARK VINA RESULT:      -7.0      1.033      1.461
REMARK  Name = 
REMARK  11 active torsions:
REMARK  status: ('A' for Active; 'I' for Inactive)
REMARK    1  A    between atoms: C_1  and  C_2
REMARK    2  A    between atoms: C_2  and  C_3
REMARK    3  A    between atoms: C_6  and  O_7
REMARK    4  A    between atoms: C_8  and  C_9
REMARK    5  A    between atoms: C_9  and  C_10
REMARK    6  A    between atoms: C_10  and  C_11
REMARK    7  A    between atoms: C_11  and  O_12
REMARK    8  A    between atoms: O_12  and  C_13
REMARK    9  A    between atoms: C_22  and  C_23
REMARK   10  A    between atoms: C_23  and  C_24
REMARK   11  A    between atoms: C_24  and  C_25
REMARK                            x       y       z     vdW  Elec       q    Type
REMARK                         _______ _______ _______ _____ _____    ______ ____
ROOT
ATOM      1  C   UNL     1       6.125   7.220  17.059  0.00  0.00    +0.000 C 
ATOM      2  C   UNL     1       6.207   5.755  17.440  0.00  0.00    +0.000 C 
ATOM      3  C   UNL     1       7.416   5.617  18.418  0.00  0.00    +0.000 C 
ATOM      4  C   UNL     1       4.887   5.242  17.964  0.00  0.00    +0.000 A 
ATOM      5  C   UNL     1       3.596   5.411  17.451  0.00  0.00    +0.000 A 
ATOM      6  C   UNL     1       2.602   4.524  17.826  0.00  0.00    +0.000 A 
ATOM      7  C   UNL     1       2.814   3.651  18.885  0.00  0.00    +0.000 A 
ATOM      8  C   UNL     1       4.149   3.283  19.092  0.00  0.00    +0.000 A 
ATOM      9  C   UNL     1       5.121   3.960  18.362  0.00  0.00    +0.000 A 
ATOM     10  O   UNL     1       5.828   3.396  17.234  0.00  0.00    +0.000 OA
ATOM     11  C   UNL     1       6.371   4.596  16.448  0.00  0.00    +0.000 C 
ENDROOT
BRANCH   6  12
ATOM     12  O   UNL     1       1.486   4.372  17.046  0.00  0.00    +0.000 OA
ATOM     13  H   UNL     1       0.769   4.807  17.553  0.00  0.00    +0.000 HD
ENDBRANCH   6  12
BRANCH   7  14
ATOM     14  C   UNL     1       1.668   3.335  19.816  0.00  0.00    +0.000 C 
BRANCH  14  15
ATOM     15  C   UNL     1       1.181   4.480  20.687  0.00  0.00    +0.000 C 
BRANCH  15  16
ATOM     16  C   UNL     1       2.110   5.667  20.529  0.00  0.00    +0.000 C 
BRANCH  16  17
ATOM     17  O   UNL     1       1.520   6.837  21.077  0.00  0.00    +0.000 OA
BRANCH  17  18
ATOM     18  C   UNL     1       1.498   7.902  20.207  0.00  0.00    +0.000 A 
ATOM     19  C   UNL     1       2.091   7.921  18.941  0.00  0.00    +0.000 A 
ATOM     20  C   UNL     1       2.010   9.062  18.145  0.00  0.00    +0.000 A 
ATOM     21  C   UNL     1       1.319  10.172  18.615  0.00  0.00    +0.000 A 
ATOM     22  C   UNL     1       0.725  10.171  19.879  0.00  0.00    +0.000 A 
ATOM     23  C   UNL     1       0.807   9.021  20.671  0.00  0.00    +0.000 A 
ENDBRANCH  17  18
ENDBRANCH  16  17
ENDBRANCH  15  16
ENDBRANCH  14  15
ENDBRANCH   7  14
BRANCH  11  24
ATOM     24  C   UNL     1       5.721   4.826  15.047  0.00  0.00    +0.000 C 
BRANCH  24  25
ATOM     25  C   UNL     1       6.681   4.747  13.820  0.00  0.00    +0.000 C 
BRANCH  25  26
ATOM     26  C   UNL     1       6.344   3.744  12.743  0.00  0.00    +0.000 A 
ATOM     27  C   UNL     1       7.364   2.989  12.158  0.00  0.00    +0.000 A 
ATOM     28  C   UNL     1       7.050   2.018  11.204  0.00  0.00    +0.000 A 
ATOM     29  C   UNL     1       5.729   1.782  10.838  0.00  0.00    +0.000 A 
ATOM     30  C   UNL     1       4.707   2.505  11.433  0.00  0.00    +0.000 A 
ATOM     31  C   UNL     1       5.010   3.482  12.384  0.00  0.00    +0.000 A 
ENDBRANCH  25  26
ENDBRANCH  24  25
ENDBRANCH  11  24
TORSDOF 9
ENDMDL
MODEL 7
REMARK VINA RESULT:      -7.0      2.553      5.244
REMARK  Name = 
REMARK  11 active torsions:
REMARK  status: ('A' for Active; 'I' for Inactive)
REMARK    1  A    between atoms: C_1  and  C_2
REMARK    2  A    between atoms: C_2  and  C_3
REMARK    3  A    between atoms: C_6  and  O_7
REMARK    4  A    between atoms: C_8  and  C_9
REMARK    5  A    between atoms: C_9  and  C_10
REMARK    6  A    between atoms: C_10  and  C_11
REMARK    7  A    between atoms: C_11  and  O_12
REMARK    8  A    between atoms: O_12  and  C_13
REMARK    9  A    between atoms: C_22  and  C_23
REMARK   10  A    between atoms: C_23  and  C_24
REMARK   11  A    between atoms: C_24  and  C_25
REMARK                            x       y       z     vdW  Elec       q    Type
REMARK                         _______ _______ _______ _____ _____    ______ ____
ROOT
ATOM      1  C   UNL     1       4.718   3.384  19.650  0.00  0.00    +0.000 C 
ATOM      2  C   UNL     1       3.244   3.550  19.964  0.00  0.00    +0.000 C 
ATOM      3  C   UNL     1       2.937   2.608  21.170  0.00  0.00    +0.000 C 
ATOM      4  C   UNL     1       2.878   5.001  20.164  0.00  0.00    +0.000 A 
ATOM      5  C   UNL     1       3.213   6.122  19.394  0.00  0.00    +0.000 A 
ATOM      6  C   UNL     1       2.441   7.265  19.501  0.00  0.00    +0.000 A 
ATOM      7  C   UNL     1       1.520   7.388  20.533  0.00  0.00    +0.000 A 
ATOM      8  C   UNL     1       0.991   6.181  21.004  0.00  0.00    +0.000 A 
ATOM      9  C   UNL     1       1.567   5.004  20.535  0.00  0.00    +0.000 A 
ATOM     10  O   UNL     1       0.953   4.132  19.559  0.00  0.00    +0.000 OA
ATOM     11  C   UNL     1       2.100   3.301  18.971  0.00  0.00    +0.000 C 
ENDROOT
BRANCH   6  12
ATOM     12  O   UNL     1       2.443   8.192  18.492  0.00  0.00    +0.000 OA
ATOM     13  H   UNL     1       3.381   8.462  18.405  0.00  0.00    +0.000 HD
ENDBRANCH   6  12
BRANCH   7  14
ATOM     14  C   UNL     1       1.319   8.738  21.178  0.00  0.00    +0.000 C 
BRANCH  14  15
ATOM     15  C   UNL     1       0.021   9.452  20.842  0.00  0.00    +0.000 C 
BRANCH  15  16
ATOM     16  C   UNL     1       0.283  10.507  19.787  0.00  0.00    +0.000 C 
BRANCH  16  17
ATOM     17  O   UNL     1      -0.828  11.386  19.674  0.00  0.00    +0.000 OA
BRANCH  17  18
ATOM     18  C   UNL     1      -1.690  11.057  18.656  0.00  0.00    +0.000 A 
ATOM     19  C   UNL     1      -1.414  10.151  17.626  0.00  0.00    +0.000 A 
ATOM     20  C   UNL     1      -2.366   9.899  16.640  0.00  0.00    +0.000 A 
ATOM     21  C   UNL     1      -3.596  10.542  16.700  0.00  0.00    +0.000 A 
ATOM     22  C   UNL     1      -3.886  11.452  17.719  0.00  0.00    +0.000 A 
ATOM     23  C   UNL     1      -2.928  11.698  18.708  0.00  0.00    +0.000 A 
ENDBRANCH  17  18
ENDBRANCH  16  17
ENDBRANCH  15  16
ENDBRANCH  14  15
ENDBRANCH   7  14
BRANCH  11  24
ATOM     24  C   UNL     1       2.443   3.597  17.477  0.00  0.00    +0.000 C 
BRANCH  24  25
ATOM     25  C   UNL     1       3.788   3.014  16.948  0.00  0.00    +0.000 C 
BRANCH  25  26
ATOM     26  C   UNL     1       4.734   3.970  16.262  0.00  0.00    +0.000 A 
ATOM     27  C   UNL     1       4.628   5.342  16.505  0.00  0.00    +0.000 A 
ATOM     28  C   UNL     1       5.539   6.224  15.920  0.00  0.00    +0.000 A 
ATOM     29  C   UNL     1       6.564   5.752  15.106  0.00  0.00    +0.000 A 
ATOM     30  C   UNL     1       6.696   4.390  14.882  0.00  0.00    +0.000 A 
ATOM     31  C   UNL     1       5.787   3.499  15.457  0.00  0.00    +0.000 A 
ENDBRANCH  25  26
ENDBRANCH  24  25
ENDBRANCH  11  24
TORSDOF 9
ENDMDL
MODEL 8
REMARK VINA RESULT:      -6.9      1.823      8.632
REMARK  Name = 
REMARK  11 active torsions:
REMARK  status: ('A' for Active; 'I' for Inactive)
REMARK    1  A    between atoms: C_1  and  C_2
REMARK    2  A    between atoms: C_2  and  C_3
REMARK    3  A    between atoms: C_6  and  O_7
REMARK    4  A    between atoms: C_8  and  C_9
REMARK    5  A    between atoms: C_9  and  C_10
REMARK    6  A    between atoms: C_10  and  C_11
REMARK    7  A    between atoms: C_11  and  O_12
REMARK    8  A    between atoms: O_12  and  C_13
REMARK    9  A    between atoms: C_22  and  C_23
REMARK   10  A    between atoms: C_23  and  C_24
REMARK   11  A    between atoms: C_24  and  C_25
REMARK                            x       y       z     vdW  Elec       q    Type
REMARK                         _______ _______ _______ _____ _____    ______ ____
ROOT
ATOM      1  C   UNL     1       1.397   3.944  18.373  0.00  0.00    +0.000 C 
ATOM      2  C   UNL     1       2.743   4.046  19.063  0.00  0.00    +0.000 C 
ATOM      3  C   UNL     1       2.932   2.724  19.870  0.00  0.00    +0.000 C 
ATOM      4  C   UNL     1       3.846   4.373  18.084  0.00  0.00    +0.000 A 
ATOM      5  C   UNL     1       3.884   5.337  17.070  0.00  0.00    +0.000 A 
ATOM      6  C   UNL     1       5.111   5.754  16.586  0.00  0.00    +0.000 A 
ATOM      7  C   UNL     1       6.263   5.049  16.910  0.00  0.00    +0.000 A 
ATOM      8  C   UNL     1       6.224   4.382  18.140  0.00  0.00    +0.000 A 
ATOM      9  C   UNL     1       5.002   4.336  18.805  0.00  0.00    +0.000 A 
ATOM     10  O   UNL     1       4.681   5.129  19.970  0.00  0.00    +0.000 OA
ATOM     11  C   UNL     1       3.149   5.161  20.037  0.00  0.00    +0.000 C 
ENDROOT
BRANCH   6  12
ATOM     12  O   UNL     1       5.223   6.961  15.947  0.00  0.00    +0.000 OA
ATOM     13  H   UNL     1       6.171   7.199  16.033  0.00  0.00    +0.000 HD
ENDBRANCH   6  12
BRANCH   7  14
ATOM     14  C   UNL     1       7.345   4.895  15.869  0.00  0.00    +0.000 C 
BRANCH  14  15
ATOM     15  C   UNL     1       6.918   4.279  14.547  0.00  0.00    +0.000 C 
BRANCH  15  16
ATOM     16  C   UNL     1       7.121   5.284  13.432  0.00  0.00    +0.000 C 
BRANCH  16  17
ATOM     17  O   UNL     1       7.599   4.638  12.260  0.00  0.00    +0.000 OA
BRANCH  17  18
ATOM     18  C   UNL     1       6.829   3.568  11.869  0.00  0.00    +0.000 A 
ATOM     19  C   UNL     1       5.431   3.542  11.854  0.00  0.00    +0.000 A 
ATOM     20  C   UNL     1       4.755   2.396  11.441  0.00  0.00    +0.000 A 
ATOM     21  C   UNL     1       5.483   1.288  11.027  0.00  0.00    +0.000 A 
ATOM     22  C   UNL     1       6.879   1.296  11.039  0.00  0.00    +0.000 A 
ATOM     23  C   UNL     1       7.552   2.450  11.451  0.00  0.00    +0.000 A 
ENDBRANCH  17  18
ENDBRANCH  16  17
ENDBRANCH  15  16
ENDBRANCH  14  15
ENDBRANCH   7  14
BRANCH  11  24
ATOM     24  C   UNL     1       2.498   6.553  19.761  0.00  0.00    +0.000 C 
BRANCH  24  25
ATOM     25  C   UNL     1       1.418   7.024  20.782  0.00  0.00    +0.000 C 
BRANCH  25  26
ATOM     26  C   UNL     1       1.050   8.488  20.772  0.00  0.00    +0.000 A 
ATOM     27  C   UNL     1       1.143   9.217  19.583  0.00  0.00    +0.000 A 
ATOM     28  C   UNL     1       0.746  10.556  19.556  0.00  0.00    +0.000 A 
ATOM     29  C   UNL     1       0.245  11.173  20.698  0.00  0.00    +0.000 A 
ATOM     30  C   UNL     1       0.121  10.451  21.875  0.00  0.00    +0.000 A 
ATOM     31  C   UNL     1       0.519   9.113  21.915  0.00  0.00    +0.000 A 
ENDBRANCH  25  26
ENDBRANCH  24  25
ENDBRANCH  11  24
TORSDOF 9
ENDMDL
MODEL 9
REMARK VINA RESULT:      -6.9      3.285      7.505
REMARK  Name = 
REMARK  11 active torsions:
REMARK  status: ('A' for Active; 'I' for Inactive)
REMARK    1  A    between atoms: C_1  and  C_2
REMARK    2  A    between atoms: C_2  and  C_3
REMARK    3  A    between atoms: C_6  and  O_7
REMARK    4  A    between atoms: C_8  and  C_9
REMARK    5  A    between atoms: C_9  and  C_10
REMARK    6  A    between atoms: C_10  and  C_11
REMARK    7  A    between atoms: C_11  and  O_12
REMARK    8  A    between atoms: O_12  and  C_13
REMARK    9  A    between atoms: C_22  and  C_23
REMARK   10  A    between atoms: C_23  and  C_24
REMARK   11  A    between atoms: C_24  and  C_25
REMARK                            x       y       z     vdW  Elec       q    Type
REMARK                         _______ _______ _______ _____ _____    ______ ____
ROOT
ATOM      1  C   UNL     1       3.438   2.092  17.895  0.00  0.00    +0.000 C 
ATOM      2  C   UNL     1       3.920   3.122  18.898  0.00  0.00    +0.000 C 
ATOM      3  C   UNL     1       4.498   2.326  20.111  0.00  0.00    +0.000 C 
ATOM      4  C   UNL     1       4.865   4.115  18.265  0.00  0.00    +0.000 A 
ATOM      5  C   UNL     1       4.749   4.812  17.056  0.00  0.00    +0.000 A 
ATOM      6  C   UNL     1       5.492   5.965  16.872  0.00  0.00    +0.000 A 
ATOM      7  C   UNL     1       6.519   6.278  17.754  0.00  0.00    +0.000 A 
ATOM      8  C   UNL     1       6.351   5.794  19.056  0.00  0.00    +0.000 A 
ATOM      9  C   UNL     1       5.299   4.912  19.281  0.00  0.00    +0.000 A 
ATOM     10  O   UNL     1       4.072   5.267  19.959  0.00  0.00    +0.000 OA
ATOM     11  C   UNL     1       3.045   4.214  19.528  0.00  0.00    +0.000 C 
ENDROOT
BRANCH   6  12
ATOM     12  O   UNL     1       5.103   6.893  15.943  0.00  0.00    +0.000 OA
ATOM     13  H   UNL     1       5.691   7.662  16.099  0.00  0.00    +0.000 HD
ENDBRANCH   6  12
BRANCH   7  14
ATOM     14  C   UNL     1       7.777   6.915  17.216  0.00  0.00    +0.000 C 
BRANCH  14  15
ATOM     15  C   UNL     1       8.470   7.907  18.134  0.00  0.00    +0.000 C 
BRANCH  15  16
ATOM     16  C   UNL     1       7.779   9.252  18.039  0.00  0.00    +0.000 C 
BRANCH  16  17
ATOM     17  O   UNL     1       8.667  10.233  17.523  0.00  0.00    +0.000 OA
BRANCH  17  18
ATOM     18  C   UNL     1       9.496  10.780  18.474  0.00  0.00    +0.000 A 
ATOM     19  C   UNL     1       9.187  10.917  19.831  0.00  0.00    +0.000 A 
ATOM     20  C   UNL     1      10.106  11.494  20.705  0.00  0.00    +0.000 A 
ATOM     21  C   UNL     1      11.337  11.914  20.219  0.00  0.00    +0.000 A 
ATOM     22  C   UNL     1      11.661  11.787  18.866  0.00  0.00    +0.000 A 
ATOM     23  C   UNL     1      10.735  11.204  17.995  0.00  0.00    +0.000 A 
ENDBRANCH  17  18
ENDBRANCH  16  17
ENDBRANCH  15  16
ENDBRANCH  14  15
ENDBRANCH   7  14
BRANCH  11  24
ATOM     24  C   UNL     1       1.888   4.741  18.621  0.00  0.00    +0.000 C 
BRANCH  24  25
ATOM     25  C   UNL     1       2.109   6.136  17.961  0.00  0.00    +0.000 C 
BRANCH  25  26
ATOM     26  C   UNL     1       1.777   7.353  18.791  0.00  0.00    +0.000 A 
ATOM     27  C   UNL     1       1.659   8.601  18.172  0.00  0.00    +0.000 A 
ATOM     28  C   UNL     1       1.294   9.718  18.927  0.00  0.00    +0.000 A 
ATOM     29  C   UNL     1       1.033   9.603  20.288  0.00  0.00    +0.000 A 
ATOM     30  C   UNL     1       1.119   8.365  20.906  0.00  0.00    +0.000 A 
ATOM     31  C   UNL     1       1.488   7.242  20.163  0.00  0.00    +0.000 A 
ENDBRANCH  25  26
ENDBRANCH  24  25
ENDBRANCH  11  24
TORSDOF 9
ENDMDL
