MODEL 1
REMARK VINA RESULT:      -7.1      0.000      0.000
REMARK  Name = 
REMARK  5 active torsions:
REMARK  status: ('A' for Active; 'I' for Inactive)
REMARK    1  A    between atoms: C_2  and  C_8
REMARK    2  A    between atoms: N_3  and  C_4
REMARK    3  A    between atoms: N_16  and  C_17
REMARK    4  A    between atoms: C_17  and  C_18
REMARK    5  A    between atoms: C_18  and  C_19
REMARK                            x       y       z     vdW  Elec       q    Type
REMARK                         _______ _______ _______ _____ _____    ______ ____
ROOT
ATOM      1  C   UNL     1       2.752   5.836  18.836  0.00  0.00    +0.000 C 
ATOM      2  C   UNL     1       2.456   5.876  20.358  0.00  0.00    +0.000 C 
ATOM      3  C   UNL     1       2.636   4.573  21.110  0.00  0.00    +0.000 C 
ATOM      4  S   UNL     1       1.589   3.330  20.426  0.00  0.00    +0.000 S 
ATOM      5  O   UNL     1       1.907   2.064  21.058  0.00  0.00    +0.000 OA
ATOM      6  O   UNL     1       0.230   3.843  20.418  0.00  0.00    +0.000 OA
ATOM      7  C   UNL     1       2.140   3.282  18.771  0.00  0.00    +0.000 C 
ATOM      8  C   UNL     1       3.573   2.782  18.584  0.00  0.00    +0.000 C 
ATOM      9  N   UNL     1       3.869   3.106  17.187  0.00  0.00    +0.000 NA
ATOM     10  C   UNL     1       2.863   4.107  16.773  0.00  0.00    +0.000 C 
ATOM     11  C   UNL     1       2.110   4.634  18.030  0.00  0.00    +0.000 C 
ENDROOT
BRANCH   1  13
ATOM     12  O   UNL     1       3.080   7.766  17.413  0.00  0.00    +0.000 OA
ATOM     13  C   UNL     1       2.481   7.314  18.398  0.00  0.00    +0.000 C 
ATOM     14  N   UNL     1       1.664   8.148  19.137  0.00  0.00    +0.000 N 
ATOM     15  H   UNL     1       1.025   7.726  19.804  0.00  0.00    +0.000 HD
BRANCH  14  16
ATOM     16  C   UNL     1       1.430   9.593  18.748  0.00  0.00    +0.000 C 
ATOM     17  C   UNL     1       0.101   9.903  18.005  0.00  0.00    +0.000 C 
ATOM     18  C   UNL     1       0.042  11.234  18.786  0.00  0.00    +0.000 C 
ATOM     19  C   UNL     1       0.914  10.553  19.859  0.00  0.00    +0.000 C 
ENDBRANCH  14  16
ENDBRANCH   1  13
BRANCH   9  20
ATOM     20  C   UNL     1       5.254   3.525  16.889  0.00  0.00    +0.000 C 
BRANCH  20  21
ATOM     21  C   UNL     1       5.432   4.968  16.361  0.00  0.00    +0.000 C 
BRANCH  21  22
ATOM     22  C   UNL     1       6.414   5.769  17.201  0.00  0.00    +0.000 A 
ATOM     23  C   UNL     1       6.750   7.086  16.840  0.00  0.00    +0.000 A 
ATOM     24  C   UNL     1       7.665   7.823  17.605  0.00  0.00    +0.000 A 
ATOM     25  C   UNL     1       8.256   7.261  18.731  0.00  0.00    +0.000 A 
ATOM     26  C   UNL     1       7.933   5.956  19.097  0.00  0.00    +0.000 A 
ATOM     27  C   UNL     1       7.020   5.213  18.335  0.00  0.00    +0.000 A 
ENDBRANCH  21  22
ENDBRANCH  20  21
ENDBRANCH   9  20
TORSDOF 5
ENDMDL
MODEL 2
REMARK VINA RESULT:      -7.1      2.208      6.625
REMARK  Name = 
REMARK  5 active torsions:
REMARK  status: ('A' for Active; 'I' for Inactive)
REMARK    1  A    between atoms: C_2  and  C_8
REMARK    2  A    between atoms: N_3  and  C_4
REMARK    3  A    between atoms: N_16  and  C_17
REMARK    4  A    between atoms: C_17  and  C_18
REMARK    5  A    between atoms: C_18  and  C_19
REMARK                            x       y       z     vdW  Elec       q    Type
REMARK                         _______ _______ _______ _____ _____    ______ ____
ROOT
ATOM      1  C   UNL     1       4.288   4.089  17.441  0.00  0.00    +0.000 C 
ATOM      2  C   UNL     1       3.797   2.621  17.524  0.00  0.00    +0.000 C 
ATOM      3  C   UNL     1       2.608   2.363  18.428  0.00  0.00    +0.000 C 
ATOM      4  S   UNL     1       2.982   2.863  20.077  0.00  0.00    +0.000 S 
ATOM      5  O   UNL     1       1.774   2.756  20.872  0.00  0.00    +0.000 OA
ATOM      6  O   UNL     1       4.207   2.196  20.481  0.00  0.00    +0.000 OA
ATOM      7  C   UNL     1       3.355   4.553  19.853  0.00  0.00    +0.000 C 
ATOM      8  C   UNL     1       2.177   5.418  19.400  0.00  0.00    +0.000 C 
ATOM      9  N   UNL     1       2.808   6.684  19.021  0.00  0.00    +0.000 NA
ATOM     10  C   UNL     1       4.245   6.391  18.840  0.00  0.00    +0.000 C 
ATOM     11  C   UNL     1       4.461   4.848  18.819  0.00  0.00    +0.000 C 
ENDROOT
BRANCH   1  13
ATOM     12  O   UNL     1       6.636   4.174  16.861  0.00  0.00    +0.000 OA
ATOM     13  C   UNL     1       5.487   3.990  16.439  0.00  0.00    +0.000 C 
ATOM     14  N   UNL     1       5.283   3.795  15.086  0.00  0.00    +0.000 N 
ATOM     15  H   UNL     1       4.380   3.441  14.783  0.00  0.00    +0.000 HD
BRANCH  14  16
ATOM     16  C   UNL     1       6.432   3.742  14.101  0.00  0.00    +0.000 C 
ATOM     17  C   UNL     1       6.058   3.476  12.616  0.00  0.00    +0.000 C 
ATOM     18  C   UNL     1       7.184   4.457  12.218  0.00  0.00    +0.000 C 
ATOM     19  C   UNL     1       7.007   5.102  13.607  0.00  0.00    +0.000 C 
ENDBRANCH  14  16
ENDBRANCH   1  13
BRANCH   9  20
ATOM     20  C   UNL     1       2.215   7.393  17.869  0.00  0.00    +0.000 C 
BRANCH  20  21
ATOM     21  C   UNL     1       2.275   8.938  17.914  0.00  0.00    +0.000 C 
BRANCH  21  22
ATOM     22  C   UNL     1       1.070   9.537  18.623  0.00  0.00    +0.000 A 
ATOM     23  C   UNL     1       1.031   9.602  20.028  0.00  0.00    +0.000 A 
ATOM     24  C   UNL     1      -0.083  10.141  20.685  0.00  0.00    +0.000 A 
ATOM     25  C   UNL     1      -1.166  10.619  19.958  0.00  0.00    +0.000 A 
ATOM     26  C   UNL     1      -1.141  10.559  18.566  0.00  0.00    +0.000 A 
ATOM     27  C   UNL     1      -0.030  10.018  17.903  0.00  0.00    +0.000 A 
ENDBRANCH  21  22
ENDBRANCH  20  21
ENDBRANCH   9  20
TORSDOF 5
ENDMDL
MODEL 3
REMARK VINA RESULT:      -7.1      0.499      1.121
REMARK  Name = 
REMARK  5 active torsions:
REMARK  status: ('A' for Active; 'I' for Inactive)
REMARK    1  A    between atoms: C_2  and  C_8
REMARK    2  A    between atoms: N_3  and  C_4
REMARK    3  A    between atoms: N_16  and  C_17
REMARK    4  A    between atoms: C_17  and  C_18
REMARK    5  A    between atoms: C_18  and  C_19
REMARK                            x       y       z     vdW  Elec       q    Type
REMARK                         _______ _______ _______ _____ _____    ______ ____
ROOT
ATOM      1  C   UNL     1       2.716   5.889  18.942  0.00  0.00    +0.000 C 
ATOM      2  C   UNL     1       2.213   5.863  20.408  0.00  0.00    +0.000 C 
ATOM      3  C   UNL     1       2.376   4.551  21.149  0.00  0.00    +0.000 C 
ATOM      4  S   UNL     1       1.520   3.265  20.300  0.00  0.00    +0.000 S 
ATOM      5  O   UNL     1       1.835   2.004  20.943  0.00  0.00    +0.000 OA
ATOM      6  O   UNL     1       0.144   3.690  20.115  0.00  0.00    +0.000 OA
ATOM      7  C   UNL     1       2.294   3.304  18.737  0.00  0.00    +0.000 C 
ATOM      8  C   UNL     1       3.771   2.904  18.740  0.00  0.00    +0.000 C 
ATOM      9  N   UNL     1       4.232   3.289  17.404  0.00  0.00    +0.000 NA
ATOM     10  C   UNL     1       3.226   4.235  16.876  0.00  0.00    +0.000 C 
ATOM     11  C   UNL     1       2.274   4.674  18.029  0.00  0.00    +0.000 C 
ENDROOT
BRANCH   1  13
ATOM     12  O   UNL     1       2.897   7.784  17.447  0.00  0.00    +0.000 OA
ATOM     13  C   UNL     1       2.408   7.359  18.502  0.00  0.00    +0.000 C 
ATOM     14  N   UNL     1       1.682   8.216  19.307  0.00  0.00    +0.000 N 
ATOM     15  H   UNL     1       1.117   7.814  20.050  0.00  0.00    +0.000 HD
BRANCH  14  16
ATOM     16  C   UNL     1       1.415   9.654  18.913  0.00  0.00    +0.000 C 
ATOM     17  C   UNL     1       0.133   9.915  18.074  0.00  0.00    +0.000 C 
ATOM     18  C   UNL     1      -0.043  11.234  18.859  0.00  0.00    +0.000 C 
ATOM     19  C   UNL     1       0.775  10.578  19.990  0.00  0.00    +0.000 C 
ENDBRANCH  14  16
ENDBRANCH   1  13
BRANCH   9  20
ATOM     20  C   UNL     1       5.613   3.806  17.310  0.00  0.00    +0.000 C 
BRANCH  20  21
ATOM     21  C   UNL     1       6.175   4.486  18.581  0.00  0.00    +0.000 C 
BRANCH  21  22
ATOM     22  C   UNL     1       6.772   5.852  18.284  0.00  0.00    +0.000 A 
ATOM     23  C   UNL     1       7.920   6.291  18.968  0.00  0.00    +0.000 A 
ATOM     24  C   UNL     1       8.465   7.556  18.707  0.00  0.00    +0.000 A 
ATOM     25  C   UNL     1       7.878   8.395  17.767  0.00  0.00    +0.000 A 
ATOM     26  C   UNL     1       6.739   7.972  17.084  0.00  0.00    +0.000 A 
ATOM     27  C   UNL     1       6.188   6.709  17.343  0.00  0.00    +0.000 A 
ENDBRANCH  21  22
ENDBRANCH  20  21
ENDBRANCH   9  20
TORSDOF 5
ENDMDL
MODEL 4
REMARK VINA RESULT:      -7.0      2.051      2.960
REMARK  Name = 
REMARK  5 active torsions:
REMARK  status: ('A' for Active; 'I' for Inactive)
REMARK    1  A    between atoms: C_2  and  C_8
REMARK    2  A    between atoms: N_3  and  C_4
REMARK    3  A    between atoms: N_16  and  C_17
REMARK    4  A    between atoms: C_17  and  C_18
REMARK    5  A    between atoms: C_18  and  C_19
REMARK                            x       y       z     vdW  Elec       q    Type
REMARK                         _______ _______ _______ _____ _____    ______ ____
ROOT
ATOM      1  C   UNL     1       2.572   5.889  19.771  0.00  0.00    +0.000 C 
ATOM      2  C   UNL     1       1.959   5.086  20.947  0.00  0.00    +0.000 C 
ATOM      3  C   UNL     1       2.284   3.606  20.989  0.00  0.00    +0.000 C 
ATOM      4  S   UNL     1       1.736   2.825  19.506  0.00  0.00    +0.000 S 
ATOM      5  O   UNL     1       2.208   1.453  19.511  0.00  0.00    +0.000 OA
ATOM      6  O   UNL     1       0.328   3.132  19.332  0.00  0.00    +0.000 OA
ATOM      7  C   UNL     1       2.620   3.716  18.295  0.00  0.00    +0.000 C 
ATOM      8  C   UNL     1       4.138   3.531  18.339  0.00  0.00    +0.000 C 
ATOM      9  N   UNL     1       4.636   4.574  17.441  0.00  0.00    +0.000 NA
ATOM     10  C   UNL     1       3.531   5.541  17.277  0.00  0.00    +0.000 C 
ATOM     11  C   UNL     1       2.424   5.245  18.332  0.00  0.00    +0.000 C 
ENDROOT
BRANCH   1  13
ATOM     12  O   UNL     1       2.127   8.182  19.138  0.00  0.00    +0.000 OA
ATOM     13  C   UNL     1       2.053   7.340  20.043  0.00  0.00    +0.000 C 
ATOM     14  N   UNL     1       1.602   7.724  21.291  0.00  0.00    +0.000 N 
ATOM     15  H   UNL     1       1.350   6.997  21.955  0.00  0.00    +0.000 HD
BRANCH  14  16
ATOM     16  C   UNL     1       1.140   9.137  21.579  0.00  0.00    +0.000 C 
ATOM     17  C   UNL     1      -0.226   9.556  20.966  0.00  0.00    +0.000 C 
ATOM     18  C   UNL     1      -0.492  10.363  22.256  0.00  0.00    +0.000 C 
ATOM     19  C   UNL     1       0.483   9.401  22.965  0.00  0.00    +0.000 C 
ENDBRANCH  14  16
ENDBRANCH   1  13
BRANCH   9  20
ATOM     20  C   UNL     1       5.911   5.216  17.823  0.00  0.00    +0.000 C 
BRANCH  20  21
ATOM     21  C   UNL     1       7.178   4.698  17.104  0.00  0.00    +0.000 C 
BRANCH  21  22
ATOM     22  C   UNL     1       6.978   4.581  15.601  0.00  0.00    +0.000 A 
ATOM     23  C   UNL     1       6.012   3.701  15.079  0.00  0.00    +0.000 A 
ATOM     24  C   UNL     1       5.833   3.581  13.694  0.00  0.00    +0.000 A 
ATOM     25  C   UNL     1       6.610   4.327  12.816  0.00  0.00    +0.000 A 
ATOM     26  C   UNL     1       7.572   5.201  13.321  0.00  0.00    +0.000 A 
ATOM     27  C   UNL     1       7.756   5.324  14.705  0.00  0.00    +0.000 A 
ENDBRANCH  21  22
ENDBRANCH  20  21
ENDBRANCH   9  20
TORSDOF 5
ENDMDL
MODEL 5
REMARK VINA RESULT:      -7.0      1.727      2.642
REMARK  Name = 
REMARK  5 active torsions:
REMARK  status: ('A' for Active; 'I' for Inactive)
REMARK    1  A    between atoms: C_2  and  C_8
REMARK    2  A    between atoms: N_3  and  C_4
REMARK    3  A    between atoms: N_16  and  C_17
REMARK    4  A    between atoms: C_17  and  C_18
REMARK    5  A    between atoms: C_18  and  C_19
REMARK                            x       y       z     vdW  Elec       q    Type
REMARK                         _______ _______ _______ _____ _____    ______ ____
ROOT
ATOM      1  C   UNL     1       2.788   6.080  18.903  0.00  0.00    +0.000 C 
ATOM      2  C   UNL     1       2.366   6.011  20.393  0.00  0.00    +0.000 C 
ATOM      3  C   UNL     1       2.636   4.702  21.107  0.00  0.00    +0.000 C 
ATOM      4  S   UNL     1       1.802   3.383  20.286  0.00  0.00    +0.000 S 
ATOM      5  O   UNL     1       2.215   2.132  20.894  0.00  0.00    +0.000 OA
ATOM      6  O   UNL     1       0.398   3.737  20.180  0.00  0.00    +0.000 OA
ATOM      7  C   UNL     1       2.489   3.479  18.684  0.00  0.00    +0.000 C 
ATOM      8  C   UNL     1       3.982   3.156  18.604  0.00  0.00    +0.000 C 
ATOM      9  N   UNL     1       4.350   3.580  17.251  0.00  0.00    +0.000 NA
ATOM     10  C   UNL     1       3.271   4.478  16.791  0.00  0.00    +0.000 C 
ATOM     11  C   UNL     1       2.360   4.853  17.997  0.00  0.00    +0.000 C 
ENDROOT
BRANCH   1  13
ATOM     12  O   UNL     1       2.818   8.010  17.443  0.00  0.00    +0.000 OA
ATOM     13  C   UNL     1       2.381   7.537  18.501  0.00  0.00    +0.000 C 
ATOM     14  N   UNL     1       1.627   8.334  19.340  0.00  0.00    +0.000 N 
ATOM     15  H   UNL     1       1.106   7.885  20.088  0.00  0.00    +0.000 HD
BRANCH  14  16
ATOM     16  C   UNL     1       1.265   9.760  18.981  0.00  0.00    +0.000 C 
ATOM     17  C   UNL     1      -0.022   9.955  18.131  0.00  0.00    +0.000 C 
ATOM     18  C   UNL     1      -0.299  11.235  18.950  0.00  0.00    +0.000 C 
ATOM     19  C   UNL     1       0.548  10.607  20.074  0.00  0.00    +0.000 C 
ENDBRANCH  14  16
ENDBRANCH   1  13
BRANCH   9  20
ATOM     20  C   UNL     1       5.696   4.168  17.092  0.00  0.00    +0.000 C 
BRANCH  20  21
ATOM     21  C   UNL     1       5.814   5.343  16.092  0.00  0.00    +0.000 C 
BRANCH  21  22
ATOM     22  C   UNL     1       6.234   4.877  14.707  0.00  0.00    +0.000 A 
ATOM     23  C   UNL     1       7.391   5.399  14.101  0.00  0.00    +0.000 A 
ATOM     24  C   UNL     1       7.774   4.983  12.819  0.00  0.00    +0.000 A 
ATOM     25  C   UNL     1       7.014   4.047  12.127  0.00  0.00    +0.000 A 
ATOM     26  C   UNL     1       5.865   3.523  12.715  0.00  0.00    +0.000 A 
ATOM     27  C   UNL     1       5.476   3.939  13.996  0.00  0.00    +0.000 A 
ENDBRANCH  21  22
ENDBRANCH  20  21
ENDBRANCH   9  20
TORSDOF 5
ENDMDL
MODEL 6
REMARK VINA RESULT:      -6.9      2.343      3.390
REMARK  Name = 
REMARK  5 active torsions:
REMARK  status: ('A' for Active; 'I' for Inactive)
REMARK    1  A    between atoms: C_2  and  C_8
REMARK    2  A    between atoms: N_3  and  C_4
REMARK    3  A    between atoms: N_16  and  C_17
REMARK    4  A    between atoms: C_17  and  C_18
REMARK    5  A    between atoms: C_18  and  C_19
REMARK                            x       y       z     vdW  Elec       q    Type
REMARK                         _______ _______ _______ _____ _____    ______ ____
ROOT
ATOM      1  C   UNL     1       3.830   6.762  18.378  0.00  0.00    +0.000 C 
ATOM      2  C   UNL     1       2.983   6.015  19.441  0.00  0.00    +0.000 C 
ATOM      3  C   UNL     1       3.648   4.835  20.120  0.00  0.00    +0.000 C 
ATOM      4  S   UNL     1       4.122   3.634  18.919  0.00  0.00    +0.000 S 
ATOM      5  O   UNL     1       4.897   2.605  19.584  0.00  0.00    +0.000 OA
ATOM      6  O   UNL     1       2.947   3.299  18.134  0.00  0.00    +0.000 OA
ATOM      7  C   UNL     1       5.187   4.564  17.897  0.00  0.00    +0.000 C 
ATOM      8  C   UNL     1       6.480   5.029  18.569  0.00  0.00    +0.000 C 
ATOM      9  N   UNL     1       7.032   5.995  17.616  0.00  0.00    +0.000 NA
ATOM     10  C   UNL     1       5.919   6.375  16.721  0.00  0.00    +0.000 C 
ATOM     11  C   UNL     1       4.576   5.855  17.316  0.00  0.00    +0.000 C 
ENDROOT
BRANCH   1  13
ATOM     12  O   UNL     1       2.990   8.357  16.764  0.00  0.00    +0.000 OA
ATOM     13  C   UNL     1       2.860   7.895  17.905  0.00  0.00    +0.000 C 
ATOM     14  N   UNL     1       1.929   8.452  18.760  0.00  0.00    +0.000 N 
ATOM     15  H   UNL     1       1.686   7.942  19.605  0.00  0.00    +0.000 HD
BRANCH  14  16
ATOM     16  C   UNL     1       1.015   9.580  18.328  0.00  0.00    +0.000 C 
ATOM     17  C   UNL     1      -0.110   9.979  19.323  0.00  0.00    +0.000 C 
ATOM     18  C   UNL     1       0.115  11.448  18.900  0.00  0.00    +0.000 C 
ATOM     19  C   UNL     1       1.547  11.033  18.507  0.00  0.00    +0.000 C 
ENDBRANCH  14  16
ENDBRANCH   1  13
BRANCH   9  20
ATOM     20  C   UNL     1       7.729   7.163  18.195  0.00  0.00    +0.000 C 
BRANCH  20  21
ATOM     21  C   UNL     1       7.568   8.500  17.434  0.00  0.00    +0.000 C 
BRANCH  21  22
ATOM     22  C   UNL     1       8.337   9.632  18.096  0.00  0.00    +0.000 A 
ATOM     23  C   UNL     1       9.064   9.403  19.278  0.00  0.00    +0.000 A 
ATOM     24  C   UNL     1       9.763  10.447  19.898  0.00  0.00    +0.000 A 
ATOM     25  C   UNL     1       9.746  11.727  19.355  0.00  0.00    +0.000 A 
ATOM     26  C   UNL     1       9.028  11.967  18.185  0.00  0.00    +0.000 A 
ATOM     27  C   UNL     1       8.324  10.926  17.562  0.00  0.00    +0.000 A 
ENDBRANCH  21  22
ENDBRANCH  20  21
ENDBRANCH   9  20
TORSDOF 5
ENDMDL
MODEL 7
REMARK VINA RESULT:      -6.9      3.184      6.486
REMARK  Name = 
REMARK  5 active torsions:
REMARK  status: ('A' for Active; 'I' for Inactive)
REMARK    1  A    between atoms: C_2  and  C_8
REMARK    2  A    between atoms: N_3  and  C_4
REMARK    3  A    between atoms: N_16  and  C_17
REMARK    4  A    between atoms: C_17  and  C_18
REMARK    5  A    between atoms: C_18  and  C_19
REMARK                            x       y       z     vdW  Elec       q    Type
REMARK                         _______ _______ _______ _____ _____    ______ ____
ROOT
ATOM      1  C   UNL     1       3.978   3.694  19.211  0.00  0.00    +0.000 C 
ATOM      2  C   UNL     1       2.455   3.850  18.967  0.00  0.00    +0.000 C 
ATOM      3  C   UNL     1       2.034   4.989  18.061  0.00  0.00    +0.000 C 
ATOM      4  S   UNL     1       2.598   6.525  18.719  0.00  0.00    +0.000 S 
ATOM      5  O   UNL     1       2.324   7.567  17.748  0.00  0.00    +0.000 OA
ATOM      6  O   UNL     1       2.120   6.629  20.086  0.00  0.00    +0.000 OA
ATOM      7  C   UNL     1       4.322   6.264  18.786  0.00  0.00    +0.000 C 
ATOM      8  C   UNL     1       5.003   6.107  17.425  0.00  0.00    +0.000 C 
ATOM      9  N   UNL     1       6.344   5.627  17.767  0.00  0.00    +0.000 NA
ATOM     10  C   UNL     1       6.262   5.123  19.153  0.00  0.00    +0.000 C 
ATOM     11  C   UNL     1       4.766   5.017  19.578  0.00  0.00    +0.000 C 
ENDROOT
BRANCH   1  13
ATOM     12  O   UNL     1       3.052   2.158  20.836  0.00  0.00    +0.000 OA
ATOM     13  C   UNL     1       4.045   2.448  20.156  0.00  0.00    +0.000 C 
ATOM     14  N   UNL     1       5.212   1.725  20.316  0.00  0.00    +0.000 N 
ATOM     15  H   UNL     1       5.942   1.832  19.617  0.00  0.00    +0.000 HD
BRANCH  14  16
ATOM     16  C   UNL     1       5.302   0.545  21.261  0.00  0.00    +0.000 C 
ATOM     17  C   UNL     1       6.080  -0.697  20.744  0.00  0.00    +0.000 C 
ATOM     18  C   UNL     1       6.612  -0.889  22.182  0.00  0.00    +0.000 C 
ATOM     19  C   UNL     1       6.371   0.619  22.390  0.00  0.00    +0.000 C 
ENDBRANCH  14  16
ENDBRANCH   1  13
BRANCH   9  20
ATOM     20  C   UNL     1       6.949   4.653  16.835  0.00  0.00    +0.000 C 
BRANCH  20  21
ATOM     21  C   UNL     1       5.979   3.953  15.855  0.00  0.00    +0.000 C 
BRANCH  21  22
ATOM     22  C   UNL     1       6.400   4.133  14.405  0.00  0.00    +0.000 A 
ATOM     23  C   UNL     1       5.824   3.343  13.393  0.00  0.00    +0.000 A 
ATOM     24  C   UNL     1       6.220   3.497  12.057  0.00  0.00    +0.000 A 
ATOM     25  C   UNL     1       7.189   4.432  11.713  0.00  0.00    +0.000 A 
ATOM     26  C   UNL     1       7.768   5.220  12.706  0.00  0.00    +0.000 A 
ATOM     27  C   UNL     1       7.378   5.068  14.045  0.00  0.00    +0.000 A 
ENDBRANCH  21  22
ENDBRANCH  20  21
ENDBRANCH   9  20
TORSDOF 5
ENDMDL
MODEL 8
REMARK VINA RESULT:      -6.8      2.215      6.430
REMARK  Name = 
REMARK  5 active torsions:
REMARK  status: ('A' for Active; 'I' for Inactive)
REMARK    1  A    between atoms: C_2  and  C_8
REMARK    2  A    between atoms: N_3  and  C_4
REMARK    3  A    between atoms: N_16  and  C_17
REMARK    4  A    between atoms: C_17  and  C_18
REMARK    5  A    between atoms: C_18  and  C_19
REMARK                            x       y       z     vdW  Elec       q    Type
REMARK                         _______ _______ _______ _____ _____    ______ ____
ROOT
ATOM      1  C   UNL     1       4.083   4.188  17.731  0.00  0.00    +0.000 C 
ATOM      2  C   UNL     1       3.580   2.722  17.775  0.00  0.00    +0.000 C 
ATOM      3  C   UNL     1       2.345   2.462  18.614  0.00  0.00    +0.000 C 
ATOM      4  S   UNL     1       2.636   2.946  20.285  0.00  0.00    +0.000 S 
ATOM      5  O   UNL     1       1.388   2.838  21.016  0.00  0.00    +0.000 OA
ATOM      6  O   UNL     1       3.835   2.268  20.745  0.00  0.00    +0.000 OA
ATOM      7  C   UNL     1       3.029   4.635  20.096  0.00  0.00    +0.000 C 
ATOM      8  C   UNL     1       1.880   5.510  19.592  0.00  0.00    +0.000 C 
ATOM      9  N   UNL     1       2.537   6.776  19.257  0.00  0.00    +0.000 NA
ATOM     10  C   UNL     1       3.980   6.477  19.148  0.00  0.00    +0.000 C 
ATOM     11  C   UNL     1       4.188   4.934  19.124  0.00  0.00    +0.000 C 
ENDROOT
BRANCH   1  13
ATOM     12  O   UNL     1       6.457   4.275  17.272  0.00  0.00    +0.000 OA
ATOM     13  C   UNL     1       5.331   4.092  16.792  0.00  0.00    +0.000 C 
ATOM     14  N   UNL     1       5.197   3.898  15.430  0.00  0.00    +0.000 N 
ATOM     15  H   UNL     1       4.311   3.545  15.080  0.00  0.00    +0.000 HD
BRANCH  14  16
ATOM     16  C   UNL     1       6.395   3.848  14.505  0.00  0.00    +0.000 C 
ATOM     17  C   UNL     1       6.092   3.676  12.990  0.00  0.00    +0.000 C 
ATOM     18  C   UNL     1       7.275   4.627  12.704  0.00  0.00    +0.000 C 
ATOM     19  C   UNL     1       7.049   5.206  14.115  0.00  0.00    +0.000 C 
ENDBRANCH  14  16
ENDBRANCH   1  13
BRANCH   9  20
ATOM     20  C   UNL     1       2.008   7.499  18.082  0.00  0.00    +0.000 C 
BRANCH  20  21
ATOM     21  C   UNL     1       2.588   8.911  17.832  0.00  0.00    +0.000 C 
BRANCH  21  22
ATOM     22  C   UNL     1       1.592  10.009  18.170  0.00  0.00    +0.000 A 
ATOM     23  C   UNL     1       0.220   9.716  18.282  0.00  0.00    +0.000 A 
ATOM     24  C   UNL     1      -0.702  10.727  18.580  0.00  0.00    +0.000 A 
ATOM     25  C   UNL     1      -0.275  12.037  18.769  0.00  0.00    +0.000 A 
ATOM     26  C   UNL     1       1.080  12.340  18.659  0.00  0.00    +0.000 A 
ATOM     27  C   UNL     1       2.008  11.333  18.358  0.00  0.00    +0.000 A 
ENDBRANCH  21  22
ENDBRANCH  20  21
ENDBRANCH   9  20
TORSDOF 5
ENDMDL
MODEL 9
REMARK VINA RESULT:      -6.8      1.818      2.766
REMARK  Name = 
REMARK  5 active torsions:
REMARK  status: ('A' for Active; 'I' for Inactive)
REMARK    1  A    between atoms: C_2  and  C_8
REMARK    2  A    between atoms: N_3  and  C_4
REMARK    3  A    between atoms: N_16  and  C_17
REMARK    4  A    between atoms: C_17  and  C_18
REMARK    5  A    between atoms: C_18  and  C_19
REMARK                            x       y       z     vdW  Elec       q    Type
REMARK                         _______ _______ _______ _____ _____    ______ ____
ROOT
ATOM      1  C   UNL     1       2.772   6.254  18.655  0.00  0.00    +0.000 C 
ATOM      2  C   UNL     1       2.355   6.339  20.145  0.00  0.00    +0.000 C 
ATOM      3  C   UNL     1       2.698   5.141  21.007  0.00  0.00    +0.000 C 
ATOM      4  S   UNL     1       1.939   3.690  20.354  0.00  0.00    +0.000 S 
ATOM      5  O   UNL     1       2.421   2.545  21.103  0.00  0.00    +0.000 OA
ATOM      6  O   UNL     1       0.517   3.950  20.217  0.00  0.00    +0.000 OA
ATOM      7  C   UNL     1       2.619   3.633  18.748  0.00  0.00    +0.000 C 
ATOM      8  C   UNL     1       4.128   3.386  18.696  0.00  0.00    +0.000 C 
ATOM      9  N   UNL     1       4.471   3.666  17.300  0.00  0.00    +0.000 NA
ATOM     10  C   UNL     1       3.344   4.442  16.744  0.00  0.00    +0.000 C 
ATOM     11  C   UNL     1       2.413   4.907  17.904  0.00  0.00    +0.000 C 
ENDROOT
BRANCH   1  13
ATOM     12  O   UNL     1       2.775   8.047  17.029  0.00  0.00    +0.000 OA
ATOM     13  C   UNL     1       2.284   7.628  18.086  0.00  0.00    +0.000 C 
ATOM     14  N   UNL     1       1.392   8.422  18.780  0.00  0.00    +0.000 N 
ATOM     15  H   UNL     1       0.844   7.993  19.521  0.00  0.00    +0.000 HD
BRANCH  14  16
ATOM     16  C   UNL     1       0.947   9.773  18.261  0.00  0.00    +0.000 C 
ATOM     17  C   UNL     1      -0.184  10.482  19.058  0.00  0.00    +0.000 C 
ATOM     18  C   UNL     1       0.536  11.820  18.777  0.00  0.00    +0.000 C 
ATOM     19  C   UNL     1       1.833  11.001  18.626  0.00  0.00    +0.000 C 
ENDBRANCH  14  16
ENDBRANCH   1  13
BRANCH   9  20
ATOM     20  C   UNL     1       5.782   4.305  17.063  0.00  0.00    +0.000 C 
BRANCH  20  21
ATOM     21  C   UNL     1       5.808   5.440  16.011  0.00  0.00    +0.000 C 
BRANCH  21  22
ATOM     22  C   UNL     1       6.255   4.944  14.645  0.00  0.00    +0.000 A 
ATOM     23  C   UNL     1       5.499   3.978  13.956  0.00  0.00    +0.000 A 
ATOM     24  C   UNL     1       5.915   3.510  12.702  0.00  0.00    +0.000 A 
ATOM     25  C   UNL     1       7.082   3.992  12.122  0.00  0.00    +0.000 A 
ATOM     26  C   UNL     1       7.841   4.948  12.795  0.00  0.00    +0.000 A 
ATOM     27  C   UNL     1       7.431   5.419  14.050  0.00  0.00    +0.000 A 
ENDBRANCH  21  22
ENDBRANCH  20  21
ENDBRANCH   9  20
TORSDOF 5
ENDMDL
