MODEL 1
REMARK VINA RESULT:      -5.2      0.000      0.000
REMARK  Name = 
REMARK  2 active torsions:
REMARK  status: ('A' for Active; 'I' for Inactive)
REMARK    1  A    between atoms: C_2  and  C_3
REMARK    2  A    between atoms: C_2  and  C_5
REMARK                            x       y       z     vdW  Elec       q    Type
REMARK                         _______ _______ _______ _____ _____    ______ ____
ROOT
ATOM      1  C   UNL     1       3.685   3.934  17.858  0.00  0.00    +0.000 A 
ATOM      2  C   UNL     1       4.396   3.954  16.667  0.00  0.00    +0.000 A 
ATOM      3  C   UNL     1       5.687   4.530  16.819  0.00  0.00    +0.000 A 
ATOM      4 BR   UNL     1       6.842   4.704  15.335  0.00  0.00    +0.000 Br
ATOM      5  C   UNL     1       5.934   4.908  18.112  0.00  0.00    +0.000 A 
ATOM      6 BR   UNL     1       7.515   5.693  18.744  0.00  0.00    +0.000 Br
ATOM      7  S   UNL     1       4.620   4.591  19.139  0.00  0.00    +0.000 S 
ENDROOT
BRANCH   1   9
ATOM      8  O   UNL     1       1.394   3.876  17.384  0.00  0.00    +0.000 OA
ATOM      9  C   UNL     1       2.324   3.426  18.053  0.00  0.00    +0.000 C 
BRANCH   9  10
ATOM     10  C   UNL     1       2.130   2.349  19.108  0.00  0.00    +0.000 C 
ATOM     11 BR   UNL     1       1.303   3.070  20.712  0.00  0.00    +0.000 Br
ENDBRANCH   9  10
ENDBRANCH   1   9
TORSDOF 2
ENDMDL
MODEL 2
REMARK VINA RESULT:      -5.1      3.211      5.102
REMARK  Name = 
REMARK  2 active torsions:
REMARK  status: ('A' for Active; 'I' for Inactive)
REMARK    1  A    between atoms: C_2  and  C_3
REMARK    2  A    between atoms: C_2  and  C_5
REMARK                            x       y       z     vdW  Elec       q    Type
REMARK                         _______ _______ _______ _____ _____    ______ ____
ROOT
ATOM      1  C   UNL     1       5.688   5.136  16.635  0.00  0.00    +0.000 A 
ATOM      2  C   UNL     1       4.635   4.278  16.916  0.00  0.00    +0.000 A 
ATOM      3  C   UNL     1       3.525   4.956  17.491  0.00  0.00    +0.000 A 
ATOM      4 BR   UNL     1       1.973   4.005  17.995  0.00  0.00    +0.000 Br
ATOM      5  C   UNL     1       3.749   6.302  17.609  0.00  0.00    +0.000 A 
ATOM      6 BR   UNL     1       2.542   7.560  18.301  0.00  0.00    +0.000 Br
ATOM      7  S   UNL     1       5.287   6.752  17.051  0.00  0.00    +0.000 S 
ENDROOT
BRANCH   1   9
ATOM      8  O   UNL     1       7.872   4.304  16.770  0.00  0.00    +0.000 OA
ATOM      9  C   UNL     1       6.983   4.767  16.056  0.00  0.00    +0.000 C 
BRANCH   9  10
ATOM     10  C   UNL     1       7.164   4.993  14.564  0.00  0.00    +0.000 C 
ATOM     11 BR   UNL     1       6.054   3.782  13.524  0.00  0.00    +0.000 Br
ENDBRANCH   9  10
ENDBRANCH   1   9
TORSDOF 2
ENDMDL
MODEL 3
REMARK VINA RESULT:      -5.1      3.080      5.151
REMARK  Name = 
REMARK  2 active torsions:
REMARK  status: ('A' for Active; 'I' for Inactive)
REMARK    1  A    between atoms: C_2  and  C_3
REMARK    2  A    between atoms: C_2  and  C_5
REMARK                            x       y       z     vdW  Elec       q    Type
REMARK                         _______ _______ _______ _____ _____    ______ ____
ROOT
ATOM      1  C   UNL     1       5.647   5.000  16.758  0.00  0.00    +0.000 A 
ATOM      2  C   UNL     1       5.090   6.240  17.035  0.00  0.00    +0.000 A 
ATOM      3  C   UNL     1       3.772   6.136  17.558  0.00  0.00    +0.000 A 
ATOM      4 BR   UNL     1       2.783   7.686  17.986  0.00  0.00    +0.000 Br
ATOM      5  C   UNL     1       3.372   4.833  17.687  0.00  0.00    +0.000 A 
ATOM      6 BR   UNL     1       1.715   4.253  18.348  0.00  0.00    +0.000 Br
ATOM      7  S   UNL     1       4.560   3.737  17.170  0.00  0.00    +0.000 S 
ENDROOT
BRANCH   1   9
ATOM      8  O   UNL     1       7.892   4.361  16.927  0.00  0.00    +0.000 OA
ATOM      9  C   UNL     1       6.978   4.747  16.199  0.00  0.00    +0.000 C 
BRANCH   9  10
ATOM     10  C   UNL     1       7.163   4.993  14.711  0.00  0.00    +0.000 C 
ATOM     11 BR   UNL     1       5.974   3.875  13.655  0.00  0.00    +0.000 Br
ENDBRANCH   9  10
ENDBRANCH   1   9
TORSDOF 2
ENDMDL
MODEL 4
REMARK VINA RESULT:      -5.0      3.279      5.073
REMARK  Name = 
REMARK  2 active torsions:
REMARK  status: ('A' for Active; 'I' for Inactive)
REMARK    1  A    between atoms: C_2  and  C_3
REMARK    2  A    between atoms: C_2  and  C_5
REMARK                            x       y       z     vdW  Elec       q    Type
REMARK                         _______ _______ _______ _____ _____    ______ ____
ROOT
ATOM      1  C   UNL     1       5.506   5.974  17.395  0.00  0.00    +0.000 A 
ATOM      2  C   UNL     1       4.624   7.027  17.198  0.00  0.00    +0.000 A 
ATOM      3  C   UNL     1       3.486   6.944  18.045  0.00  0.00    +0.000 A 
ATOM      4 BR   UNL     1       2.119   8.243  17.947  0.00  0.00    +0.000 Br
ATOM      5  C   UNL     1       3.539   5.856  18.874  0.00  0.00    +0.000 A 
ATOM      6 BR   UNL     1       2.251   5.385  20.153  0.00  0.00    +0.000 Br
ATOM      7  S   UNL     1       4.938   4.926  18.630  0.00  0.00    +0.000 S 
ENDROOT
BRANCH   1   9
ATOM      8  O   UNL     1       7.588   6.654  16.571  0.00  0.00    +0.000 OA
ATOM      9  C   UNL     1       6.765   5.745  16.682  0.00  0.00    +0.000 C 
BRANCH   9  10
ATOM     10  C   UNL     1       6.986   4.362  16.091  0.00  0.00    +0.000 C 
ATOM     11 BR   UNL     1       6.067   4.162  14.391  0.00  0.00    +0.000 Br
ENDBRANCH   9  10
ENDBRANCH   1   9
TORSDOF 2
ENDMDL
MODEL 5
REMARK VINA RESULT:      -5.0      2.758      4.813
REMARK  Name = 
REMARK  2 active torsions:
REMARK  status: ('A' for Active; 'I' for Inactive)
REMARK    1  A    between atoms: C_2  and  C_3
REMARK    2  A    between atoms: C_2  and  C_5
REMARK                            x       y       z     vdW  Elec       q    Type
REMARK                         _______ _______ _______ _____ _____    ______ ____
ROOT
ATOM      1  C   UNL     1       4.631   5.185  16.797  0.00  0.00    +0.000 A 
ATOM      2  C   UNL     1       4.352   3.845  17.017  0.00  0.00    +0.000 A 
ATOM      3  C   UNL     1       3.512   3.646  18.147  0.00  0.00    +0.000 A 
ATOM      4 BR   UNL     1       3.010   1.904  18.677  0.00  0.00    +0.000 Br
ATOM      5  C   UNL     1       3.157   4.829  18.738  0.00  0.00    +0.000 A 
ATOM      6 BR   UNL     1       2.052   5.017  20.242  0.00  0.00    +0.000 Br
ATOM      7  S   UNL     1       3.839   6.172  17.956  0.00  0.00    +0.000 S 
ENDROOT
BRANCH   1   9
ATOM      8  O   UNL     1       5.229   6.848  15.262  0.00  0.00    +0.000 OA
ATOM      9  C   UNL     1       5.474   5.737  15.733  0.00  0.00    +0.000 C 
BRANCH   9  10
ATOM     10  C   UNL     1       6.631   4.879  15.249  0.00  0.00    +0.000 C 
ATOM     11 BR   UNL     1       6.171   3.923  13.621  0.00  0.00    +0.000 Br
ENDBRANCH   9  10
ENDBRANCH   1   9
TORSDOF 2
ENDMDL
MODEL 6
REMARK VINA RESULT:      -5.0      2.106      2.789
REMARK  Name = 
REMARK  2 active torsions:
REMARK  status: ('A' for Active; 'I' for Inactive)
REMARK    1  A    between atoms: C_2  and  C_3
REMARK    2  A    between atoms: C_2  and  C_5
REMARK                            x       y       z     vdW  Elec       q    Type
REMARK                         _______ _______ _______ _____ _____    ______ ____
ROOT
ATOM      1  C   UNL     1       4.758   3.641  18.897  0.00  0.00    +0.000 A 
ATOM      2  C   UNL     1       5.708   4.631  19.103  0.00  0.00    +0.000 A 
ATOM      3  C   UNL     1       6.078   5.283  17.895  0.00  0.00    +0.000 A 
ATOM      4 BR   UNL     1       7.381   6.650  17.901  0.00  0.00    +0.000 Br
ATOM      5  C   UNL     1       5.391   4.795  16.815  0.00  0.00    +0.000 A 
ATOM      6 BR   UNL     1       5.567   5.385  15.044  0.00  0.00    +0.000 Br
ATOM      7  S   UNL     1       4.319   3.550  17.241  0.00  0.00    +0.000 S 
ENDROOT
BRANCH   1   9
ATOM      8  O   UNL     1       4.878   1.968  20.530  0.00  0.00    +0.000 OA
ATOM      9  C   UNL     1       4.172   2.770  19.919  0.00  0.00    +0.000 C 
BRANCH   9  10
ATOM     10  C   UNL     1       2.678   2.901  20.169  0.00  0.00    +0.000 C 
ATOM     11 BR   UNL     1       2.203   4.715  20.681  0.00  0.00    +0.000 Br
ENDBRANCH   9  10
ENDBRANCH   1   9
TORSDOF 2
ENDMDL
MODEL 7
REMARK VINA RESULT:      -4.9      1.102      1.102
REMARK  Name = 
REMARK  2 active torsions:
REMARK  status: ('A' for Active; 'I' for Inactive)
REMARK    1  A    between atoms: C_2  and  C_3
REMARK    2  A    between atoms: C_2  and  C_5
REMARK                            x       y       z     vdW  Elec       q    Type
REMARK                         _______ _______ _______ _____ _____    ______ ____
ROOT
ATOM      1  C   UNL     1       4.259   3.698  18.095  0.00  0.00    +0.000 A 
ATOM      2  C   UNL     1       4.671   3.643  16.772  0.00  0.00    +0.000 A 
ATOM      3  C   UNL     1       5.666   4.615  16.475  0.00  0.00    +0.000 A 
ATOM      4 BR   UNL     1       6.370   4.767  14.729  0.00  0.00    +0.000 Br
ATOM      5  C   UNL     1       6.001   5.361  17.573  0.00  0.00    +0.000 A 
ATOM      6 BR   UNL     1       7.276   6.735  17.621  0.00  0.00    +0.000 Br
ATOM      7  S   UNL     1       5.117   4.913  18.951  0.00  0.00    +0.000 S 
ENDROOT
BRANCH   1   9
ATOM      8  O   UNL     1       2.456   2.207  18.035  0.00  0.00    +0.000 OA
ATOM      9  C   UNL     1       3.242   2.853  18.728  0.00  0.00    +0.000 C 
BRANCH   9  10
ATOM     10  C   UNL     1       3.207   2.830  20.247  0.00  0.00    +0.000 C 
ATOM     11 BR   UNL     1       1.415   3.166  20.919  0.00  0.00    +0.000 Br
ENDBRANCH   9  10
ENDBRANCH   1   9
TORSDOF 2
ENDMDL
MODEL 8
REMARK VINA RESULT:      -4.9      2.621      4.877
REMARK  Name = 
REMARK  2 active torsions:
REMARK  status: ('A' for Active; 'I' for Inactive)
REMARK    1  A    between atoms: C_2  and  C_3
REMARK    2  A    between atoms: C_2  and  C_5
REMARK                            x       y       z     vdW  Elec       q    Type
REMARK                         _______ _______ _______ _____ _____    ______ ____
ROOT
ATOM      1  C   UNL     1       5.329   4.501  18.004  0.00  0.00    +0.000 A 
ATOM      2  C   UNL     1       4.416   3.500  17.705  0.00  0.00    +0.000 A 
ATOM      3  C   UNL     1       3.251   3.573  18.516  0.00  0.00    +0.000 A 
ATOM      4 BR   UNL     1       1.868   2.301  18.328  0.00  0.00    +0.000 Br
ATOM      5  C   UNL     1       3.294   4.630  19.386  0.00  0.00    +0.000 A 
ATOM      6 BR   UNL     1       1.959   5.094  20.618  0.00  0.00    +0.000 Br
ATOM      7  S   UNL     1       4.730   5.523  19.246  0.00  0.00    +0.000 S 
ENDROOT
BRANCH   1   9
ATOM      8  O   UNL     1       7.662   4.328  17.933  0.00  0.00    +0.000 OA
ATOM      9  C   UNL     1       6.635   4.708  17.371  0.00  0.00    +0.000 C 
BRANCH   9  10
ATOM     10  C   UNL     1       6.649   5.408  16.022  0.00  0.00    +0.000 C 
ATOM     11 BR   UNL     1       6.317   4.158  14.572  0.00  0.00    +0.000 Br
ENDBRANCH   9  10
ENDBRANCH   1   9
TORSDOF 2
ENDMDL
MODEL 9
REMARK VINA RESULT:      -4.9      2.222      4.624
REMARK  Name = 
REMARK  2 active torsions:
REMARK  status: ('A' for Active; 'I' for Inactive)
REMARK    1  A    between atoms: C_2  and  C_3
REMARK    2  A    between atoms: C_2  and  C_5
REMARK                            x       y       z     vdW  Elec       q    Type
REMARK                         _______ _______ _______ _____ _____    ______ ____
ROOT
ATOM      1  C   UNL     1       4.466   5.244  16.983  0.00  0.00    +0.000 A 
ATOM      2  C   UNL     1       3.872   3.991  16.997  0.00  0.00    +0.000 A 
ATOM      3  C   UNL     1       2.983   3.827  18.094  0.00  0.00    +0.000 A 
ATOM      4 BR   UNL     1       2.071   2.194  18.357  0.00  0.00    +0.000 Br
ATOM      5  C   UNL     1       2.905   4.956  18.866  0.00  0.00    +0.000 A 
ATOM      6 BR   UNL     1       1.841   5.168  20.396  0.00  0.00    +0.000 Br
ATOM      7  S   UNL     1       3.904   6.202  18.291  0.00  0.00    +0.000 S 
ENDROOT
BRANCH   1   9
ATOM      8  O   UNL     1       5.164   6.698  15.286  0.00  0.00    +0.000 OA
ATOM      9  C   UNL     1       5.440   5.737  16.005  0.00  0.00    +0.000 C 
BRANCH   9  10
ATOM     10  C   UNL     1       6.770   5.006  15.921  0.00  0.00    +0.000 C 
ATOM     11 BR   UNL     1       7.537   4.728  17.685  0.00  0.00    +0.000 Br
ENDBRANCH   9  10
ENDBRANCH   1   9
TORSDOF 2
ENDMDL
