MODEL 1
REMARK VINA RESULT:      -7.4      0.000      0.000
REMARK  Name = 
REMARK  15 active torsions:
REMARK  status: ('A' for Active; 'I' for Inactive)
REMARK    1  A    between atoms: C_1  and  C_2
REMARK    2  A    between atoms: C_2  and  O_3
REMARK    3  A    between atoms: O_3  and  C_4
REMARK    4  A    between atoms: C_7  and  C_8
REMARK    5  A    between atoms: C_11  and  C_12
REMARK    6  A    between atoms: C_13  and  N_14
REMARK    7  A    between atoms: N_14  and  C_15
REMARK    8  A    between atoms: N_14  and  C_16
REMARK    9  A    between atoms: C_16  and  C_17
REMARK   10  A    between atoms: C_17  and  C_18
REMARK   11  A    between atoms: C_18  and  O_19
REMARK   12  A    between atoms: O_19  and  C_20
REMARK   13  A    between atoms: C_28  and  C_29
REMARK   14  A    between atoms: C_29  and  C_30
REMARK   15  A    between atoms: C_30  and  O_32
REMARK                            x       y       z     vdW  Elec       q    Type
REMARK                         _______ _______ _______ _____ _____    ______ ____
ROOT
ATOM      1  N   UNL     1      -3.540  11.061  17.912  0.00  0.00    +0.000 N 
ATOM      2  C   UNL     1      -3.532  11.554  16.548  0.00  0.00    +0.000 C 
ENDROOT
BRANCH   1   8
ATOM      3  C   UNL     1      -4.141  12.851  20.939  0.00  0.00    +0.000 A 
ATOM      4  N   UNL     1      -5.465  12.838  21.133  0.00  0.00    +0.000 NA
ATOM      5  C   UNL     1      -6.183  12.237  20.180  0.00  0.00    +0.000 A 
ATOM      6  C   UNL     1      -5.647  11.631  19.054  0.00  0.00    +0.000 A 
ATOM      7  C   UNL     1      -6.614  11.064  18.062  0.00  0.00    +0.000 C 
ATOM      8  C   UNL     1      -4.257  11.656  18.939  0.00  0.00    +0.000 A 
ATOM      9  N   UNL     1      -3.522  12.303  19.873  0.00  0.00    +0.000 NA
BRANCH   3  13
ATOM     10  C   UNL     1      -1.684  14.737  23.937  0.00  0.00    +0.000 A 
ATOM     11  C   UNL     1      -1.262  13.565  23.318  0.00  0.00    +0.000 A 
ATOM     12  C   UNL     1      -2.065  12.951  22.353  0.00  0.00    +0.000 A 
ATOM     13  C   UNL     1      -3.318  13.484  21.989  0.00  0.00    +0.000 A 
ATOM     14  C   UNL     1      -3.736  14.645  22.660  0.00  0.00    +0.000 A 
ATOM     15  C   UNL     1      -2.936  15.262  23.630  0.00  0.00    +0.000 A 
BRANCH  10  16
ATOM     16  O   UNL     1      -0.798  15.273  24.828  0.00  0.00    +0.000 OA
BRANCH  16  18
ATOM     17  C   UNL     1      -0.215  16.233  26.922  0.00  0.00    +0.000 C 
ATOM     18  C   UNL     1      -1.342  15.645  26.094  0.00  0.00    +0.000 C 
ENDBRANCH  16  18
ENDBRANCH  10  16
ENDBRANCH   3  13
ENDBRANCH   1   8
BRANCH   1  19
ATOM     19  C   UNL     1      -2.677   9.916  18.228  0.00  0.00    +0.000 C 
BRANCH  19  20
ATOM     20  C   UNL     1      -1.219  10.053  17.793  0.00  0.00    +0.000 C 
BRANCH  20  21
ATOM     21  C   UNL     1      -0.342  10.789  18.792  0.00  0.00    +0.000 C 
BRANCH  21  22
ATOM     22  O   UNL     1       1.028  10.574  18.435  0.00  0.00    +0.000 OA
BRANCH  22  23
ATOM     23  C   UNL     1       1.559   9.375  18.834  0.00  0.00    +0.000 A 
ATOM     24  C   UNL     1       1.172   8.962  20.122  0.00  0.00    +0.000 A 
ATOM     25  C   UNL     1       1.496   7.691  20.603  0.00  0.00    +0.000 A 
ATOM     26  C   UNL     1       2.194   6.838  19.768  0.00  0.00    +0.000 A 
ATOM     27  C   UNL     1       2.612   7.272  18.495  0.00  0.00    +0.000 A 
ATOM     28  C   UNL     1       2.349   8.547  18.035  0.00  0.00    +0.000 A 
ATOM     29  C   UNL     1       3.058   6.087  17.682  0.00  0.00    +0.000 C 
ATOM     30  C   UNL     1       2.117   5.037  18.355  0.00  0.00    +0.000 C 
ATOM     31  C   UNL     1       2.422   5.340  19.845  0.00  0.00    +0.000 C 
BRANCH  31  32
ATOM     32  C   UNL     1       1.972   4.652  21.109  0.00  0.00    +0.000 C 
BRANCH  32  33
ATOM     33  C   UNL     1       2.237   3.193  21.448  0.00  0.00    +0.000 C 
ATOM     34  O   UNL     1       1.645   2.530  22.263  0.00  0.00    +0.000 OA
BRANCH  33  35
ATOM     35  O   UNL     1       3.280   2.733  20.711  0.00  0.00    +0.000 OA
ATOM     36  H   UNL     1       3.105   2.616  19.758  0.00  0.00    +0.000 HD
ENDBRANCH  33  35
ENDBRANCH  32  33
ENDBRANCH  31  32
ENDBRANCH  22  23
ENDBRANCH  21  22
ENDBRANCH  20  21
ENDBRANCH  19  20
ENDBRANCH   1  19
TORSDOF 12
ENDMDL
MODEL 2
REMARK VINA RESULT:      -7.4      7.350      9.651
REMARK  Name = 
REMARK  15 active torsions:
REMARK  status: ('A' for Active; 'I' for Inactive)
REMARK    1  A    between atoms: C_1  and  C_2
REMARK    2  A    between atoms: C_2  and  O_3
REMARK    3  A    between atoms: O_3  and  C_4
REMARK    4  A    between atoms: C_7  and  C_8
REMARK    5  A    between atoms: C_11  and  C_12
REMARK    6  A    between atoms: C_13  and  N_14
REMARK    7  A    between atoms: N_14  and  C_15
REMARK    8  A    between atoms: N_14  and  C_16
REMARK    9  A    between atoms: C_16  and  C_17
REMARK   10  A    between atoms: C_17  and  C_18
REMARK   11  A    between atoms: C_18  and  O_19
REMARK   12  A    between atoms: O_19  and  C_20
REMARK   13  A    between atoms: C_28  and  C_29
REMARK   14  A    between atoms: C_29  and  C_30
REMARK   15  A    between atoms: C_30  and  O_32
REMARK                            x       y       z     vdW  Elec       q    Type
REMARK                         _______ _______ _______ _____ _____    ______ ____
ROOT
ATOM      1  N   UNL     1       8.962  11.970  18.824  0.00  0.00    +0.000 N 
ATOM      2  C   UNL     1       8.467  12.629  17.631  0.00  0.00    +0.000 C 
ENDROOT
BRANCH   1   8
ATOM      3  C   UNL     1       8.847  12.834  22.283  0.00  0.00    +0.000 A 
ATOM      4  N   UNL     1       9.664  13.882  22.441  0.00  0.00    +0.000 NA
ATOM      5  C   UNL     1      10.310  14.283  21.343  0.00  0.00    +0.000 A 
ATOM      6  C   UNL     1      10.168  13.705  20.090  0.00  0.00    +0.000 A 
ATOM      7  C   UNL     1      11.024  14.249  18.990  0.00  0.00    +0.000 C 
ATOM      8  C   UNL     1       9.273  12.639  19.998  0.00  0.00    +0.000 A 
ATOM      9  N   UNL     1       8.649  12.193  21.113  0.00  0.00    +0.000 NA
BRANCH   3  13
ATOM     10  C   UNL     1       6.637  11.611  25.777  0.00  0.00    +0.000 A 
ATOM     11  C   UNL     1       7.923  12.127  25.903  0.00  0.00    +0.000 A 
ATOM     12  C   UNL     1       8.641  12.514  24.768  0.00  0.00    +0.000 A 
ATOM     13  C   UNL     1       8.098  12.385  23.474  0.00  0.00    +0.000 A 
ATOM     14  C   UNL     1       6.815  11.823  23.373  0.00  0.00    +0.000 A 
ATOM     15  C   UNL     1       6.093  11.430  24.508  0.00  0.00    +0.000 A 
BRANCH  10  16
ATOM     16  O   UNL     1       6.014  11.311  26.955  0.00  0.00    +0.000 OA
BRANCH  16  18
ATOM     17  C   UNL     1       4.876  13.326  27.498  0.00  0.00    +0.000 C 
ATOM     18  C   UNL     1       4.709  11.865  27.124  0.00  0.00    +0.000 C 
ENDBRANCH  16  18
ENDBRANCH  10  16
ENDBRANCH   3  13
ENDBRANCH   1   8
BRANCH   1  19
ATOM     19  C   UNL     1       9.219  10.526  18.748  0.00  0.00    +0.000 C 
BRANCH  19  20
ATOM     20  C   UNL     1       8.217   9.724  17.920  0.00  0.00    +0.000 C 
BRANCH  20  21
ATOM     21  C   UNL     1       8.224   8.233  18.213  0.00  0.00    +0.000 C 
BRANCH  21  22
ATOM     22  O   UNL     1       7.712   7.544  17.066  0.00  0.00    +0.000 OA
BRANCH  22  23
ATOM     23  C   UNL     1       6.615   6.755  17.296  0.00  0.00    +0.000 A 
ATOM     24  C   UNL     1       6.909   5.470  17.785  0.00  0.00    +0.000 A 
ATOM     25  C   UNL     1       5.897   4.612  18.221  0.00  0.00    +0.000 A 
ATOM     26  C   UNL     1       4.593   5.069  18.176  0.00  0.00    +0.000 A 
ATOM     27  C   UNL     1       4.302   6.341  17.647  0.00  0.00    +0.000 A 
ATOM     28  C   UNL     1       5.290   7.173  17.159  0.00  0.00    +0.000 A 
ATOM     29  C   UNL     1       2.888   6.719  17.997  0.00  0.00    +0.000 C 
ATOM     30  C   UNL     1       2.808   5.916  19.335  0.00  0.00    +0.000 C 
ATOM     31  C   UNL     1       3.333   4.543  18.840  0.00  0.00    +0.000 C 
BRANCH  31  32
ATOM     32  C   UNL     1       3.443   3.212  19.539  0.00  0.00    +0.000 C 
BRANCH  32  33
ATOM     33  C   UNL     1       3.105   1.869  18.911  0.00  0.00    +0.000 C 
ATOM     34  O   UNL     1       3.893   1.052  18.504  0.00  0.00    +0.000 OA
BRANCH  33  35
ATOM     35  O   UNL     1       1.757   1.721  18.841  0.00  0.00    +0.000 OA
ATOM     36  H   UNL     1       1.284   1.753  19.694  0.00  0.00    +0.000 HD
ENDBRANCH  33  35
ENDBRANCH  32  33
ENDBRANCH  31  32
ENDBRANCH  22  23
ENDBRANCH  21  22
ENDBRANCH  20  21
ENDBRANCH  19  20
ENDBRANCH   1  19
TORSDOF 12
ENDMDL
MODEL 3
REMARK VINA RESULT:      -7.4      6.701     10.182
REMARK  Name = 
REMARK  15 active torsions:
REMARK  status: ('A' for Active; 'I' for Inactive)
REMARK    1  A    between atoms: C_1  and  C_2
REMARK    2  A    between atoms: C_2  and  O_3
REMARK    3  A    between atoms: O_3  and  C_4
REMARK    4  A    between atoms: C_7  and  C_8
REMARK    5  A    between atoms: C_11  and  C_12
REMARK    6  A    between atoms: C_13  and  N_14
REMARK    7  A    between atoms: N_14  and  C_15
REMARK    8  A    between atoms: N_14  and  C_16
REMARK    9  A    between atoms: C_16  and  C_17
REMARK   10  A    between atoms: C_17  and  C_18
REMARK   11  A    between atoms: C_18  and  O_19
REMARK   12  A    between atoms: O_19  and  C_20
REMARK   13  A    between atoms: C_28  and  C_29
REMARK   14  A    between atoms: C_29  and  C_30
REMARK   15  A    between atoms: C_30  and  O_32
REMARK                            x       y       z     vdW  Elec       q    Type
REMARK                         _______ _______ _______ _____ _____    ______ ____
ROOT
ATOM      1  N   UNL     1       5.389   6.571  16.861  0.00  0.00    +0.000 N 
ATOM      2  C   UNL     1       5.292   6.021  15.522  0.00  0.00    +0.000 C 
ENDROOT
BRANCH   1   8
ATOM      3  C   UNL     1       2.582   7.272  18.947  0.00  0.00    +0.000 A 
ATOM      4  N   UNL     1       2.473   6.245  19.798  0.00  0.00    +0.000 NA
ATOM      5  C   UNL     1       3.358   5.258  19.630  0.00  0.00    +0.000 A 
ATOM      6  C   UNL     1       4.359   5.253  18.669  0.00  0.00    +0.000 A 
ATOM      7  C   UNL     1       5.218   4.030  18.589  0.00  0.00    +0.000 C 
ATOM      8  C   UNL     1       4.429   6.374  17.842  0.00  0.00    +0.000 A 
ATOM      9  N   UNL     1       3.509   7.358  17.971  0.00  0.00    +0.000 NA
BRANCH   3  13
ATOM     10  C   UNL     1      -0.113  10.591  19.501  0.00  0.00    +0.000 A 
ATOM     11  C   UNL     1       0.265   9.804  20.584  0.00  0.00    +0.000 A 
ATOM     12  C   UNL     1       1.131   8.723  20.400  0.00  0.00    +0.000 A 
ATOM     13  C   UNL     1       1.635   8.391  19.126  0.00  0.00    +0.000 A 
ATOM     14  C   UNL     1       1.205   9.177  18.045  0.00  0.00    +0.000 A 
ATOM     15  C   UNL     1       0.333  10.260  18.224  0.00  0.00    +0.000 A 
BRANCH  10  16
ATOM     16  O   UNL     1      -0.924  11.647  19.806  0.00  0.00    +0.000 OA
BRANCH  16  18
ATOM     17  C   UNL     1       0.709  13.374  19.828  0.00  0.00    +0.000 C 
ATOM     18  C   UNL     1      -0.347  12.650  20.642  0.00  0.00    +0.000 C 
ENDBRANCH  16  18
ENDBRANCH  10  16
ENDBRANCH   3  13
ENDBRANCH   1   8
BRANCH   1  19
ATOM     19  C   UNL     1       6.531   7.445  17.158  0.00  0.00    +0.000 C 
BRANCH  19  20
ATOM     20  C   UNL     1       7.659   6.801  17.961  0.00  0.00    +0.000 C 
BRANCH  20  21
ATOM     21  C   UNL     1       8.497   7.791  18.754  0.00  0.00    +0.000 C 
BRANCH  21  22
ATOM     22  O   UNL     1       8.283   9.099  18.212  0.00  0.00    +0.000 OA
BRANCH  22  23
ATOM     23  C   UNL     1       9.101  10.082  18.708  0.00  0.00    +0.000 A 
ATOM     24  C   UNL     1       9.777  10.831  17.728  0.00  0.00    +0.000 A 
ATOM     25  C   UNL     1      10.515  11.967  18.067  0.00  0.00    +0.000 A 
ATOM     26  C   UNL     1      10.547  12.349  19.396  0.00  0.00    +0.000 A 
ATOM     27  C   UNL     1       9.902  11.572  20.376  0.00  0.00    +0.000 A 
ATOM     28  C   UNL     1       9.220  10.414  20.058  0.00  0.00    +0.000 A 
ATOM     29  C   UNL     1       9.817  12.352  21.660  0.00  0.00    +0.000 C 
ATOM     30  C   UNL     1       9.763  13.772  21.009  0.00  0.00    +0.000 C 
ATOM     31  C   UNL     1      10.970  13.655  20.043  0.00  0.00    +0.000 C 
BRANCH  31  32
ATOM     32  C   UNL     1      11.623  14.674  19.144  0.00  0.00    +0.000 C 
BRANCH  32  33
ATOM     33  C   UNL     1      10.882  15.579  18.171  0.00  0.00    +0.000 C 
ATOM     34  O   UNL     1      10.913  15.511  16.968  0.00  0.00    +0.000 OA
BRANCH  33  35
ATOM     35  O   UNL     1      10.185  16.520  18.859  0.00  0.00    +0.000 OA
ATOM     36  H   UNL     1      10.095  17.385  18.417  0.00  0.00    +0.000 HD
ENDBRANCH  33  35
ENDBRANCH  32  33
ENDBRANCH  31  32
ENDBRANCH  22  23
ENDBRANCH  21  22
ENDBRANCH  20  21
ENDBRANCH  19  20
ENDBRANCH   1  19
TORSDOF 12
ENDMDL
MODEL 4
REMARK VINA RESULT:      -7.3      6.561     10.308
REMARK  Name = 
REMARK  15 active torsions:
REMARK  status: ('A' for Active; 'I' for Inactive)
REMARK    1  A    between atoms: C_1  and  C_2
REMARK    2  A    between atoms: C_2  and  O_3
REMARK    3  A    between atoms: O_3  and  C_4
REMARK    4  A    between atoms: C_7  and  C_8
REMARK    5  A    between atoms: C_11  and  C_12
REMARK    6  A    between atoms: C_13  and  N_14
REMARK    7  A    between atoms: N_14  and  C_15
REMARK    8  A    between atoms: N_14  and  C_16
REMARK    9  A    between atoms: C_16  and  C_17
REMARK   10  A    between atoms: C_17  and  C_18
REMARK   11  A    between atoms: C_18  and  O_19
REMARK   12  A    between atoms: O_19  and  C_20
REMARK   13  A    between atoms: C_28  and  C_29
REMARK   14  A    between atoms: C_29  and  C_30
REMARK   15  A    between atoms: C_30  and  O_32
REMARK                            x       y       z     vdW  Elec       q    Type
REMARK                         _______ _______ _______ _____ _____    ______ ____
ROOT
ATOM      1  N   UNL     1       5.581   6.137  17.443  0.00  0.00    +0.000 N 
ATOM      2  C   UNL     1       5.521   6.069  15.995  0.00  0.00    +0.000 C 
ENDROOT
BRANCH   1   8
ATOM      3  C   UNL     1       2.571   7.067  19.116  0.00  0.00    +0.000 A 
ATOM      4  N   UNL     1       2.240   6.038  19.904  0.00  0.00    +0.000 NA
ATOM      5  C   UNL     1       3.042   4.973  19.833  0.00  0.00    +0.000 A 
ATOM      6  C   UNL     1       4.171   4.889  19.031  0.00  0.00    +0.000 A 
ATOM      7  C   UNL     1       4.913   3.590  19.034  0.00  0.00    +0.000 C 
ATOM      8  C   UNL     1       4.470   6.015  18.264  0.00  0.00    +0.000 A 
ATOM      9  N   UNL     1       3.638   7.082  18.291  0.00  0.00    +0.000 NA
BRANCH   3  13
ATOM     10  C   UNL     1       0.007  10.528  19.312  0.00  0.00    +0.000 A 
ATOM     11  C   UNL     1       0.519  10.099  18.091  0.00  0.00    +0.000 A 
ATOM     12  C   UNL     1       1.357   8.983  18.032  0.00  0.00    +0.000 A 
ATOM     13  C   UNL     1       1.718   8.270  19.193  0.00  0.00    +0.000 A 
ATOM     14  C   UNL     1       1.221   8.749  20.416  0.00  0.00    +0.000 A 
ATOM     15  C   UNL     1       0.383   9.870  20.481  0.00  0.00    +0.000 A 
BRANCH  10  16
ATOM     16  O   UNL     1      -0.837  11.599  19.244  0.00  0.00    +0.000 OA
BRANCH  16  18
ATOM     17  C   UNL     1      -2.969  11.477  18.201  0.00  0.00    +0.000 C 
ATOM     18  C   UNL     1      -1.499  11.788  17.993  0.00  0.00    +0.000 C 
ENDBRANCH  16  18
ENDBRANCH  10  16
ENDBRANCH   3  13
ENDBRANCH   1   8
BRANCH   1  19
ATOM     19  C   UNL     1       6.882   6.429  18.057  0.00  0.00    +0.000 C 
BRANCH  19  20
ATOM     20  C   UNL     1       7.746   7.446  17.313  0.00  0.00    +0.000 C 
BRANCH  20  21
ATOM     21  C   UNL     1       7.562   8.878  17.786  0.00  0.00    +0.000 C 
BRANCH  21  22
ATOM     22  O   UNL     1       8.643   9.206  18.666  0.00  0.00    +0.000 OA
BRANCH  22  23
ATOM     23  C   UNL     1       9.242  10.417  18.436  0.00  0.00    +0.000 A 
ATOM     24  C   UNL     1       8.415  11.373  17.820  0.00  0.00    +0.000 A 
ATOM     25  C   UNL     1       8.827  12.699  17.670  0.00  0.00    +0.000 A 
ATOM     26  C   UNL     1      10.069  13.054  18.164  0.00  0.00    +0.000 A 
ATOM     27  C   UNL     1      10.908  12.083  18.744  0.00  0.00    +0.000 A 
ATOM     28  C   UNL     1      10.534  10.758  18.842  0.00  0.00    +0.000 A 
ATOM     29  C   UNL     1      12.036  12.764  19.471  0.00  0.00    +0.000 C 
ATOM     30  C   UNL     1      11.256  14.068  19.839  0.00  0.00    +0.000 C 
ATOM     31  C   UNL     1      10.673  14.418  18.446  0.00  0.00    +0.000 C 
BRANCH  31  32
ATOM     32  C   UNL     1       9.890  15.615  17.970  0.00  0.00    +0.000 C 
BRANCH  32  33
ATOM     33  C   UNL     1       8.629  16.149  18.633  0.00  0.00    +0.000 C 
ATOM     34  O   UNL     1       7.684  16.648  18.074  0.00  0.00    +0.000 OA
BRANCH  33  35
ATOM     35  O   UNL     1       8.726  16.013  19.980  0.00  0.00    +0.000 OA
ATOM     36  H   UNL     1       8.004  16.417  20.498  0.00  0.00    +0.000 HD
ENDBRANCH  33  35
ENDBRANCH  32  33
ENDBRANCH  31  32
ENDBRANCH  22  23
ENDBRANCH  21  22
ENDBRANCH  20  21
ENDBRANCH  19  20
ENDBRANCH   1  19
TORSDOF 12
ENDMDL
MODEL 5
REMARK VINA RESULT:      -7.2      6.301     10.194
REMARK  Name = 
REMARK  15 active torsions:
REMARK  status: ('A' for Active; 'I' for Inactive)
REMARK    1  A    between atoms: C_1  and  C_2
REMARK    2  A    between atoms: C_2  and  O_3
REMARK    3  A    between atoms: O_3  and  C_4
REMARK    4  A    between atoms: C_7  and  C_8
REMARK    5  A    between atoms: C_11  and  C_12
REMARK    6  A    between atoms: C_13  and  N_14
REMARK    7  A    between atoms: N_14  and  C_15
REMARK    8  A    between atoms: N_14  and  C_16
REMARK    9  A    between atoms: C_16  and  C_17
REMARK   10  A    between atoms: C_17  and  C_18
REMARK   11  A    between atoms: C_18  and  O_19
REMARK   12  A    between atoms: O_19  and  C_20
REMARK   13  A    between atoms: C_28  and  C_29
REMARK   14  A    between atoms: C_29  and  C_30
REMARK   15  A    between atoms: C_30  and  O_32
REMARK                            x       y       z     vdW  Elec       q    Type
REMARK                         _______ _______ _______ _____ _____    ______ ____
ROOT
ATOM      1  N   UNL     1       5.605   5.558  16.490  0.00  0.00    +0.000 N 
ATOM      2  C   UNL     1       5.353   4.795  15.283  0.00  0.00    +0.000 C 
ENDROOT
BRANCH   1   8
ATOM      3  C   UNL     1       3.107   6.804  18.711  0.00  0.00    +0.000 A 
ATOM      4  N   UNL     1       2.998   5.911  19.701  0.00  0.00    +0.000 NA
ATOM      5  C   UNL     1       3.768   4.826  19.589  0.00  0.00    +0.000 A 
ATOM      6  C   UNL     1       4.658   4.595  18.550  0.00  0.00    +0.000 A 
ATOM      7  C   UNL     1       5.390   3.290  18.559  0.00  0.00    +0.000 C 
ATOM      8  C   UNL     1       4.740   5.588  17.573  0.00  0.00    +0.000 A 
ATOM      9  N   UNL     1       3.930   6.669  17.651  0.00  0.00    +0.000 NA
BRANCH   3  13
ATOM     10  C   UNL     1       0.783  10.417  19.083  0.00  0.00    +0.000 A 
ATOM     11  C   UNL     1       0.829   9.499  20.127  0.00  0.00    +0.000 A 
ATOM     12  C   UNL     1       1.575   8.324  20.000  0.00  0.00    +0.000 A 
ATOM     13  C   UNL     1       2.288   8.028  18.821  0.00  0.00    +0.000 A 
ATOM     14  C   UNL     1       2.191   8.953  17.768  0.00  0.00    +0.000 A 
ATOM     15  C   UNL     1       1.441  10.130  17.889  0.00  0.00    +0.000 A 
BRANCH  10  16
ATOM     16  O   UNL     1       0.062  11.549  19.335  0.00  0.00    +0.000 OA
BRANCH  16  18
ATOM     17  C   UNL     1       1.623  13.054  20.310  0.00  0.00    +0.000 C 
ATOM     18  C   UNL     1       0.376  12.224  20.553  0.00  0.00    +0.000 C 
ENDBRANCH  16  18
ENDBRANCH  10  16
ENDBRANCH   3  13
ENDBRANCH   1   8
BRANCH   1  19
ATOM     19  C   UNL     1       6.805   6.403  16.523  0.00  0.00    +0.000 C 
BRANCH  19  20
ATOM     20  C   UNL     1       7.121   7.041  17.875  0.00  0.00    +0.000 C 
BRANCH  20  21
ATOM     21  C   UNL     1       7.686   8.449  17.777  0.00  0.00    +0.000 C 
BRANCH  21  22
ATOM     22  O   UNL     1       8.642   8.626  18.828  0.00  0.00    +0.000 OA
BRANCH  22  23
ATOM     23  C   UNL     1       9.100   9.906  18.998  0.00  0.00    +0.000 A 
ATOM     24  C   UNL     1       9.132  10.678  17.822  0.00  0.00    +0.000 A 
ATOM     25  C   UNL     1       9.416  12.045  17.861  0.00  0.00    +0.000 A 
ATOM     26  C   UNL     1       9.649  12.626  19.094  0.00  0.00    +0.000 A 
ATOM     27  C   UNL     1       9.655  11.840  20.262  0.00  0.00    +0.000 A 
ATOM     28  C   UNL     1       9.434  10.478  20.227  0.00  0.00    +0.000 A 
ATOM     29  C   UNL     1       9.614  12.736  21.470  0.00  0.00    +0.000 C 
ATOM     30  C   UNL     1       8.825  13.909  20.803  0.00  0.00    +0.000 C 
ATOM     31  C   UNL     1       9.671  14.084  19.515  0.00  0.00    +0.000 C 
BRANCH  31  32
ATOM     32  C   UNL     1       9.597  15.108  18.411  0.00  0.00    +0.000 C 
BRANCH  32  33
ATOM     33  C   UNL     1       8.324  15.806  17.956  0.00  0.00    +0.000 C 
ATOM     34  O   UNL     1       8.040  16.963  18.140  0.00  0.00    +0.000 OA
BRANCH  33  35
ATOM     35  O   UNL     1       7.515  14.919  17.323  0.00  0.00    +0.000 OA
ATOM     36  H   UNL     1       7.910  14.457  16.560  0.00  0.00    +0.000 HD
ENDBRANCH  33  35
ENDBRANCH  32  33
ENDBRANCH  31  32
ENDBRANCH  22  23
ENDBRANCH  21  22
ENDBRANCH  20  21
ENDBRANCH  19  20
ENDBRANCH   1  19
TORSDOF 12
ENDMDL
MODEL 6
REMARK VINA RESULT:      -7.2      6.107      9.802
REMARK  Name = 
REMARK  15 active torsions:
REMARK  status: ('A' for Active; 'I' for Inactive)
REMARK    1  A    between atoms: C_1  and  C_2
REMARK    2  A    between atoms: C_2  and  O_3
REMARK    3  A    between atoms: O_3  and  C_4
REMARK    4  A    between atoms: C_7  and  C_8
REMARK    5  A    between atoms: C_11  and  C_12
REMARK    6  A    between atoms: C_13  and  N_14
REMARK    7  A    between atoms: N_14  and  C_15
REMARK    8  A    between atoms: N_14  and  C_16
REMARK    9  A    between atoms: C_16  and  C_17
REMARK   10  A    between atoms: C_17  and  C_18
REMARK   11  A    between atoms: C_18  and  O_19
REMARK   12  A    between atoms: O_19  and  C_20
REMARK   13  A    between atoms: C_28  and  C_29
REMARK   14  A    between atoms: C_29  and  C_30
REMARK   15  A    between atoms: C_30  and  O_32
REMARK                            x       y       z     vdW  Elec       q    Type
REMARK                         _______ _______ _______ _____ _____    ______ ____
ROOT
ATOM      1  N   UNL     1       5.031   5.812  17.463  0.00  0.00    +0.000 N 
ATOM      2  C   UNL     1       5.294   4.739  16.523  0.00  0.00    +0.000 C 
ENDROOT
BRANCH   1   8
ATOM      3  C   UNL     1       2.401   6.880  19.622  0.00  0.00    +0.000 A 
ATOM      4  N   UNL     1       2.156   5.863  20.456  0.00  0.00    +0.000 NA
ATOM      5  C   UNL     1       2.880   4.760  20.251  0.00  0.00    +0.000 A 
ATOM      6  C   UNL     1       3.850   4.625  19.269  0.00  0.00    +0.000 A 
ATOM      7  C   UNL     1       4.515   3.290  19.149  0.00  0.00    +0.000 C 
ATOM      8  C   UNL     1       4.072   5.740  18.461  0.00  0.00    +0.000 A 
ATOM      9  N   UNL     1       3.312   6.847  18.628  0.00  0.00    +0.000 NA
BRANCH   3  13
ATOM     10  C   UNL     1       0.239  10.547  20.307  0.00  0.00    +0.000 A 
ATOM     11  C   UNL     1       0.354   9.599  21.318  0.00  0.00    +0.000 A 
ATOM     12  C   UNL     1       1.047   8.407  21.090  0.00  0.00    +0.000 A 
ATOM     13  C   UNL     1       1.635   8.124  19.841  0.00  0.00    +0.000 A 
ATOM     14  C   UNL     1       1.469   9.080  18.826  0.00  0.00    +0.000 A 
ATOM     15  C   UNL     1       0.772  10.275  19.049  0.00  0.00    +0.000 A 
BRANCH  10  16
ATOM     16  O   UNL     1      -0.418  11.692  20.656  0.00  0.00    +0.000 OA
BRANCH  16  18
ATOM     17  C   UNL     1      -1.879  13.514  20.216  0.00  0.00    +0.000 C 
ATOM     18  C   UNL     1      -1.146  12.333  19.609  0.00  0.00    +0.000 C 
ENDBRANCH  16  18
ENDBRANCH  10  16
ENDBRANCH   3  13
ENDBRANCH   1   8
BRANCH   1  19
ATOM     19  C   UNL     1       5.774   7.066  17.289  0.00  0.00    +0.000 C 
BRANCH  19  20
ATOM     20  C   UNL     1       7.250   7.015  17.679  0.00  0.00    +0.000 C 
BRANCH  20  21
ATOM     21  C   UNL     1       7.967   8.350  17.565  0.00  0.00    +0.000 C 
BRANCH  21  22
ATOM     22  O   UNL     1       8.625   8.617  18.809  0.00  0.00    +0.000 OA
BRANCH  22  23
ATOM     23  C   UNL     1       9.038   9.911  18.990  0.00  0.00    +0.000 A 
ATOM     24  C   UNL     1       8.945  10.722  17.844  0.00  0.00    +0.000 A 
ATOM     25  C   UNL     1       9.172  12.099  17.911  0.00  0.00    +0.000 A 
ATOM     26  C   UNL     1       9.473  12.649  19.143  0.00  0.00    +0.000 A 
ATOM     27  C   UNL     1       9.604  11.826  20.278  0.00  0.00    +0.000 A 
ATOM     28  C   UNL     1       9.441  10.456  20.210  0.00  0.00    +0.000 A 
ATOM     29  C   UNL     1       9.618  12.678  21.518  0.00  0.00    +0.000 C 
ATOM     30  C   UNL     1       8.729  13.835  20.956  0.00  0.00    +0.000 C 
ATOM     31  C   UNL     1       9.465  14.092  19.615  0.00  0.00    +0.000 C 
BRANCH  31  32
ATOM     32  C   UNL     1       9.260  15.147  18.558  0.00  0.00    +0.000 C 
BRANCH  32  33
ATOM     33  C   UNL     1       7.906  15.628  18.059  0.00  0.00    +0.000 C 
ATOM     34  O   UNL     1       7.043  14.946  17.565  0.00  0.00    +0.000 OA
BRANCH  33  35
ATOM     35  O   UNL     1       7.808  16.973  18.221  0.00  0.00    +0.000 OA
ATOM     36  H   UNL     1       8.435  17.368  18.856  0.00  0.00    +0.000 HD
ENDBRANCH  33  35
ENDBRANCH  32  33
ENDBRANCH  31  32
ENDBRANCH  22  23
ENDBRANCH  21  22
ENDBRANCH  20  21
ENDBRANCH  19  20
ENDBRANCH   1  19
TORSDOF 12
ENDMDL
MODEL 7
REMARK VINA RESULT:      -7.2      7.096      9.586
REMARK  Name = 
REMARK  15 active torsions:
REMARK  status: ('A' for Active; 'I' for Inactive)
REMARK    1  A    between atoms: C_1  and  C_2
REMARK    2  A    between atoms: C_2  and  O_3
REMARK    3  A    between atoms: O_3  and  C_4
REMARK    4  A    between atoms: C_7  and  C_8
REMARK    5  A    between atoms: C_11  and  C_12
REMARK    6  A    between atoms: C_13  and  N_14
REMARK    7  A    between atoms: N_14  and  C_15
REMARK    8  A    between atoms: N_14  and  C_16
REMARK    9  A    between atoms: C_16  and  C_17
REMARK   10  A    between atoms: C_17  and  C_18
REMARK   11  A    between atoms: C_18  and  O_19
REMARK   12  A    between atoms: O_19  and  C_20
REMARK   13  A    between atoms: C_28  and  C_29
REMARK   14  A    between atoms: C_29  and  C_30
REMARK   15  A    between atoms: C_30  and  O_32
REMARK                            x       y       z     vdW  Elec       q    Type
REMARK                         _______ _______ _______ _____ _____    ______ ____
ROOT
ATOM      1  N   UNL     1      10.146  12.597  18.013  0.00  0.00    +0.000 N 
ATOM      2  C   UNL     1      11.101  13.325  17.198  0.00  0.00    +0.000 C 
ENDROOT
BRANCH   1   8
ATOM      3  C   UNL     1       7.522  14.447  19.565  0.00  0.00    +0.000 A 
ATOM      4  N   UNL     1       7.808  14.493  20.871  0.00  0.00    +0.000 NA
ATOM      5  C   UNL     1       8.910  13.835  21.245  0.00  0.00    +0.000 A 
ATOM      6  C   UNL     1       9.751  13.152  20.380  0.00  0.00    +0.000 A 
ATOM      7  C   UNL     1      10.905  12.420  20.990  0.00  0.00    +0.000 C 
ATOM      8  C   UNL     1       9.404  13.179  19.029  0.00  0.00    +0.000 A 
ATOM      9  N   UNL     1       8.265  13.800  18.644  0.00  0.00    +0.000 NA
BRANCH   3  13
ATOM     10  C   UNL     1       3.974  16.542  18.296  0.00  0.00    +0.000 A 
ATOM     11  C   UNL     1       4.437  15.444  17.579  0.00  0.00    +0.000 A 
ATOM     12  C   UNL     1       5.592  14.773  17.987  0.00  0.00    +0.000 A 
ATOM     13  C   UNL     1       6.325  15.187  19.117  0.00  0.00    +0.000 A 
ATOM     14  C   UNL     1       5.858  16.323  19.799  0.00  0.00    +0.000 A 
ATOM     15  C   UNL     1       4.702  17.002  19.391  0.00  0.00    +0.000 A 
BRANCH  10  16
ATOM     16  O   UNL     1       2.811  17.090  17.833  0.00  0.00    +0.000 OA
BRANCH  16  18
ATOM     17  C   UNL     1       0.928  16.018  18.809  0.00  0.00    +0.000 C 
ATOM     18  C   UNL     1       1.782  17.272  18.805  0.00  0.00    +0.000 C 
ENDBRANCH  16  18
ENDBRANCH  10  16
ENDBRANCH   3  13
ENDBRANCH   1   8
BRANCH   1  19
ATOM     19  C   UNL     1      10.026  11.151  17.792  0.00  0.00    +0.000 C 
BRANCH  19  20
ATOM     20  C   UNL     1       9.034  10.428  18.701  0.00  0.00    +0.000 C 
BRANCH  20  21
ATOM     21  C   UNL     1       8.243   9.332  18.005  0.00  0.00    +0.000 C 
BRANCH  21  22
ATOM     22  O   UNL     1       8.628   8.072  18.567  0.00  0.00    +0.000 OA
BRANCH  22  23
ATOM     23  C   UNL     1       7.777   7.028  18.309  0.00  0.00    +0.000 A 
ATOM     24  C   UNL     1       7.694   6.071  19.335  0.00  0.00    +0.000 A 
ATOM     25  C   UNL     1       6.751   5.041  19.291  0.00  0.00    +0.000 A 
ATOM     26  C   UNL     1       5.885   4.999  18.214  0.00  0.00    +0.000 A 
ATOM     27  C   UNL     1       6.001   5.936  17.170  0.00  0.00    +0.000 A 
ATOM     28  C   UNL     1       6.968   6.922  17.176  0.00  0.00    +0.000 A 
ATOM     29  C   UNL     1       4.773   5.874  16.301  0.00  0.00    +0.000 C 
ATOM     30  C   UNL     1       3.779   5.422  17.419  0.00  0.00    +0.000 C 
ATOM     31  C   UNL     1       4.587   4.239  18.014  0.00  0.00    +0.000 C 
BRANCH  31  32
ATOM     32  C   UNL     1       4.228   3.224  19.070  0.00  0.00    +0.000 C 
BRANCH  32  33
ATOM     33  C   UNL     1       3.404   1.969  18.827  0.00  0.00    +0.000 C 
ATOM     34  O   UNL     1       3.820   0.904  18.445  0.00  0.00    +0.000 OA
BRANCH  33  35
ATOM     35  O   UNL     1       2.094   2.225  19.076  0.00  0.00    +0.000 OA
ATOM     36  H   UNL     1       1.542   1.445  19.274  0.00  0.00    +0.000 HD
ENDBRANCH  33  35
ENDBRANCH  32  33
ENDBRANCH  31  32
ENDBRANCH  22  23
ENDBRANCH  21  22
ENDBRANCH  20  21
ENDBRANCH  19  20
ENDBRANCH   1  19
TORSDOF 12
ENDMDL
MODEL 8
REMARK VINA RESULT:      -7.2      3.513      5.535
REMARK  Name = 
REMARK  15 active torsions:
REMARK  status: ('A' for Active; 'I' for Inactive)
REMARK    1  A    between atoms: C_1  and  C_2
REMARK    2  A    between atoms: C_2  and  O_3
REMARK    3  A    between atoms: O_3  and  C_4
REMARK    4  A    between atoms: C_7  and  C_8
REMARK    5  A    between atoms: C_11  and  C_12
REMARK    6  A    between atoms: C_13  and  N_14
REMARK    7  A    between atoms: N_14  and  C_15
REMARK    8  A    between atoms: N_14  and  C_16
REMARK    9  A    between atoms: C_16  and  C_17
REMARK   10  A    between atoms: C_17  and  C_18
REMARK   11  A    between atoms: C_18  and  O_19
REMARK   12  A    between atoms: O_19  and  C_20
REMARK   13  A    between atoms: C_28  and  C_29
REMARK   14  A    between atoms: C_29  and  C_30
REMARK   15  A    between atoms: C_30  and  O_32
REMARK                            x       y       z     vdW  Elec       q    Type
REMARK                         _______ _______ _______ _____ _____    ______ ____
ROOT
ATOM      1  N   UNL     1       0.720  10.191  18.328  0.00  0.00    +0.000 N 
ATOM      2  C   UNL     1      -0.325   9.551  17.552  0.00  0.00    +0.000 C 
ENDROOT
BRANCH   1   8
ATOM      3  C   UNL     1      -0.799  12.482  20.601  0.00  0.00    +0.000 A 
ATOM      4  N   UNL     1      -0.092  13.615  20.530  0.00  0.00    +0.000 NA
ATOM      5  C   UNL     1       0.964  13.587  19.712  0.00  0.00    +0.000 A 
ATOM      6  C   UNL     1       1.340  12.493  18.947  0.00  0.00    +0.000 A 
ATOM      7  C   UNL     1       2.592  12.626  18.138  0.00  0.00    +0.000 C 
ATOM      8  C   UNL     1       0.533  11.359  19.051  0.00  0.00    +0.000 A 
ATOM      9  N   UNL     1      -0.511  11.360  19.911  0.00  0.00    +0.000 NA
BRANCH   3  13
ATOM     10  C   UNL     1      -4.244  12.588  23.192  0.00  0.00    +0.000 A 
ATOM     11  C   UNL     1      -3.013  12.153  23.675  0.00  0.00    +0.000 A 
ATOM     12  C   UNL     1      -1.901  12.111  22.830  0.00  0.00    +0.000 A 
ATOM     13  C   UNL     1      -1.989  12.491  21.476  0.00  0.00    +0.000 A 
ATOM     14  C   UNL     1      -3.252  12.886  21.005  0.00  0.00    +0.000 A 
ATOM     15  C   UNL     1      -4.371  12.927  21.848  0.00  0.00    +0.000 A 
BRANCH  10  16
ATOM     16  O   UNL     1      -5.247  12.632  24.117  0.00  0.00    +0.000 OA
BRANCH  16  18
ATOM     17  C   UNL     1      -7.605  12.598  23.819  0.00  0.00    +0.000 C 
ATOM     18  C   UNL     1      -6.359  13.463  23.786  0.00  0.00    +0.000 C 
ENDBRANCH  16  18
ENDBRANCH  10  16
ENDBRANCH   3  13
ENDBRANCH   1   8
BRANCH   1  19
ATOM     19  C   UNL     1       2.064   9.603  18.276  0.00  0.00    +0.000 C 
BRANCH  19  20
ATOM     20  C   UNL     1       2.116   8.077  18.326  0.00  0.00    +0.000 C 
BRANCH  20  21
ATOM     21  C   UNL     1       2.126   7.504  19.734  0.00  0.00    +0.000 C 
BRANCH  21  22
ATOM     22  O   UNL     1       2.095   6.076  19.640  0.00  0.00    +0.000 OA
BRANCH  22  23
ATOM     23  C   UNL     1       3.177   5.503  19.024  0.00  0.00    +0.000 A 
ATOM     24  C   UNL     1       2.891   4.879  17.797  0.00  0.00    +0.000 A 
ATOM     25  C   UNL     1       3.911   4.397  16.974  0.00  0.00    +0.000 A 
ATOM     26  C   UNL     1       5.219   4.566  17.392  0.00  0.00    +0.000 A 
ATOM     27  C   UNL     1       5.496   5.155  18.641  0.00  0.00    +0.000 A 
ATOM     28  C   UNL     1       4.491   5.581  19.487  0.00  0.00    +0.000 A 
ATOM     29  C   UNL     1       6.957   5.506  18.717  0.00  0.00    +0.000 C 
ATOM     30  C   UNL     1       7.167   5.752  17.188  0.00  0.00    +0.000 C 
ATOM     31  C   UNL     1       6.527   4.454  16.631  0.00  0.00    +0.000 C 
BRANCH  31  32
ATOM     32  C   UNL     1       6.447   3.910  15.227  0.00  0.00    +0.000 C 
BRANCH  32  33
ATOM     33  C   UNL     1       7.043   4.580  13.999  0.00  0.00    +0.000 C 
ATOM     34  O   UNL     1       7.804   5.516  13.994  0.00  0.00    +0.000 OA
BRANCH  33  35
ATOM     35  O   UNL     1       6.566   3.987  12.875  0.00  0.00    +0.000 OA
ATOM     36  H   UNL     1       5.978   3.221  13.019  0.00  0.00    +0.000 HD
ENDBRANCH  33  35
ENDBRANCH  32  33
ENDBRANCH  31  32
ENDBRANCH  22  23
ENDBRANCH  21  22
ENDBRANCH  20  21
ENDBRANCH  19  20
ENDBRANCH   1  19
TORSDOF 12
ENDMDL
MODEL 9
REMARK VINA RESULT:      -7.1      2.358      3.751
REMARK  Name = 
REMARK  15 active torsions:
REMARK  status: ('A' for Active; 'I' for Inactive)
REMARK    1  A    between atoms: C_1  and  C_2
REMARK    2  A    between atoms: C_2  and  O_3
REMARK    3  A    between atoms: O_3  and  C_4
REMARK    4  A    between atoms: C_7  and  C_8
REMARK    5  A    between atoms: C_11  and  C_12
REMARK    6  A    between atoms: C_13  and  N_14
REMARK    7  A    between atoms: N_14  and  C_15
REMARK    8  A    between atoms: N_14  and  C_16
REMARK    9  A    between atoms: C_16  and  C_17
REMARK   10  A    between atoms: C_17  and  C_18
REMARK   11  A    between atoms: C_18  and  O_19
REMARK   12  A    between atoms: O_19  and  C_20
REMARK   13  A    between atoms: C_28  and  C_29
REMARK   14  A    between atoms: C_29  and  C_30
REMARK   15  A    between atoms: C_30  and  O_32
REMARK                            x       y       z     vdW  Elec       q    Type
REMARK                         _______ _______ _______ _____ _____    ______ ____
ROOT
ATOM      1  N   UNL     1       0.370  11.080  19.019  0.00  0.00    +0.000 N 
ATOM      2  C   UNL     1       1.474  12.004  18.844  0.00  0.00    +0.000 C 
ENDROOT
BRANCH   1   8
ATOM      3  C   UNL     1      -2.480  12.614  20.519  0.00  0.00    +0.000 A 
ATOM      4  N   UNL     1      -3.527  12.316  19.742  0.00  0.00    +0.000 NA
ATOM      5  C   UNL     1      -3.250  11.604  18.646  0.00  0.00    +0.000 A 
ATOM      6  C   UNL     1      -1.984  11.157  18.296  0.00  0.00    +0.000 A 
ATOM      7  C   UNL     1      -1.856  10.427  16.996  0.00  0.00    +0.000 C 
ATOM      8  C   UNL     1      -0.949  11.480  19.174  0.00  0.00    +0.000 A 
ATOM      9  N   UNL     1      -1.209  12.241  20.262  0.00  0.00    +0.000 NA
BRANCH   3  13
ATOM     10  C   UNL     1      -3.235  14.908  24.091  0.00  0.00    +0.000 A 
ATOM     11  C   UNL     1      -2.083  14.136  23.981  0.00  0.00    +0.000 A 
ATOM     12  C   UNL     1      -1.846  13.386  22.826  0.00  0.00    +0.000 A 
ATOM     13  C   UNL     1      -2.758  13.377  21.752  0.00  0.00    +0.000 A 
ATOM     14  C   UNL     1      -3.932  14.134  21.907  0.00  0.00    +0.000 A 
ATOM     15  C   UNL     1      -4.176  14.884  23.065  0.00  0.00    +0.000 A 
BRANCH  10  16
ATOM     16  O   UNL     1      -3.339  15.635  25.242  0.00  0.00    +0.000 OA
BRANCH  16  18
ATOM     17  C   UNL     1      -2.578  17.771  24.529  0.00  0.00    +0.000 C 
ATOM     18  C   UNL     1      -2.312  16.602  25.460  0.00  0.00    +0.000 C 
ENDBRANCH  16  18
ENDBRANCH  10  16
ENDBRANCH   3  13
ENDBRANCH   1   8
BRANCH   1  19
ATOM     19  C   UNL     1       0.688   9.650  19.113  0.00  0.00    +0.000 C 
BRANCH  19  20
ATOM     20  C   UNL     1       0.553   9.037  20.506  0.00  0.00    +0.000 C 
BRANCH  20  21
ATOM     21  C   UNL     1       1.761   8.226  20.945  0.00  0.00    +0.000 C 
BRANCH  21  22
ATOM     22  O   UNL     1       1.440   6.836  20.823  0.00  0.00    +0.000 OA
BRANCH  22  23
ATOM     23  C   UNL     1       1.956   6.208  19.720  0.00  0.00    +0.000 A 
ATOM     24  C   UNL     1       3.018   6.889  19.100  0.00  0.00    +0.000 A 
ATOM     25  C   UNL     1       3.753   6.300  18.068  0.00  0.00    +0.000 A 
ATOM     26  C   UNL     1       3.418   5.015  17.683  0.00  0.00    +0.000 A 
ATOM     27  C   UNL     1       2.327   4.354  18.280  0.00  0.00    +0.000 A 
ATOM     28  C   UNL     1       1.558   4.951  19.259  0.00  0.00    +0.000 A 
ATOM     29  C   UNL     1       2.370   2.892  17.924  0.00  0.00    +0.000 C 
ATOM     30  C   UNL     1       3.922   2.783  17.781  0.00  0.00    +0.000 C 
ATOM     31  C   UNL     1       4.178   3.998  16.851  0.00  0.00    +0.000 C 
BRANCH  31  32
ATOM     32  C   UNL     1       5.435   4.482  16.176  0.00  0.00    +0.000 C 
BRANCH  32  33
ATOM     33  C   UNL     1       6.830   4.411  16.778  0.00  0.00    +0.000 C 
ATOM     34  O   UNL     1       7.873   4.518  16.182  0.00  0.00    +0.000 OA
BRANCH  33  35
ATOM     35  O   UNL     1       6.742   4.174  18.113  0.00  0.00    +0.000 OA
ATOM     36  H   UNL     1       5.967   3.655  18.398  0.00  0.00    +0.000 HD
ENDBRANCH  33  35
ENDBRANCH  32  33
ENDBRANCH  31  32
ENDBRANCH  22  23
ENDBRANCH  21  22
ENDBRANCH  20  21
ENDBRANCH  19  20
ENDBRANCH   1  19
TORSDOF 12
ENDMDL
