MODEL 1
REMARK VINA RESULT:      -7.8      0.000      0.000
REMARK  Name = 
REMARK  15 active torsions:
REMARK  status: ('A' for Active; 'I' for Inactive)
REMARK    1  A    between atoms: C_1  and  C_2
REMARK    2  A    between atoms: C_2  and  O_3
REMARK    3  A    between atoms: O_3  and  C_4
REMARK    4  A    between atoms: C_9  and  O_10
REMARK    5  A    between atoms: C_11  and  C_12
REMARK    6  A    between atoms: C_12  and  N_13
REMARK    7  A    between atoms: N_13  and  C_14
REMARK    8  A    between atoms: N_13  and  C_20
REMARK    9  A    between atoms: C_14  and  C_15
REMARK   10  A    between atoms: C_20  and  C_21
REMARK   11  A    between atoms: N_25  and  C_26
REMARK   12  A    between atoms: C_26  and  C_27
REMARK   13  A    between atoms: C_26  and  C_28
REMARK   14  A    between atoms: C_26  and  C_29
REMARK   15  A    between atoms: C_29  and  C_30
REMARK                            x       y       z     vdW  Elec       q    Type
REMARK                         _______ _______ _______ _____ _____    ______ ____
ROOT
ATOM      1  N   UNL     1       4.224   5.653  18.628  0.00  0.00    +0.000 NA
ENDROOT
BRANCH   1   2
ATOM      2  C   UNL     1       3.032   6.276  17.990  0.00  0.00    +0.000 C 
BRANCH   2   9
ATOM      3  C   UNL     1       0.001  11.480  19.721  0.00  0.00    +0.000 A 
ATOM      4  C   UNL     1      -0.262  11.004  21.004  0.00  0.00    +0.000 A 
ATOM      5  C   UNL     1       0.253   9.779  21.419  0.00  0.00    +0.000 A 
ATOM      6  C   UNL     1       1.005   8.990  20.577  0.00  0.00    +0.000 A 
ATOM      7  N   UNL     1       1.457   7.835  21.069  0.00  0.00    +0.000 NA
ATOM      8  C   UNL     1       2.121   7.024  20.235  0.00  0.00    +0.000 A 
ATOM      9  C   UNL     1       2.353   7.286  18.888  0.00  0.00    +0.000 A 
ATOM     10  C   UNL     1       1.936   8.535  18.409  0.00  0.00    +0.000 A 
ATOM     11  C   UNL     1       1.234   9.420  19.254  0.00  0.00    +0.000 A 
ATOM     12  C   UNL     1       0.743  10.681  18.845  0.00  0.00    +0.000 A 
BRANCH   8  13
ATOM     13  O   UNL     1       2.524   5.860  20.822  0.00  0.00    +0.000 OA
ATOM     14  H   UNL     1       1.827   5.214  20.618  0.00  0.00    +0.000 HD
ENDBRANCH   8  13
BRANCH   3  15
ATOM     15  O   UNL     1      -0.421  12.693  19.238  0.00  0.00    +0.000 OA
BRANCH  15  17
ATOM     16  C   UNL     1      -2.500  11.903  18.301  0.00  0.00    +0.000 C 
ATOM     17  C   UNL     1      -1.201  12.637  18.038  0.00  0.00    +0.000 C 
ENDBRANCH  15  17
ENDBRANCH   3  15
ENDBRANCH   2   9
ENDBRANCH   1   2
BRANCH   1  18
ATOM     18  C   UNL     1       4.312   4.185  18.356  0.00  0.00    +0.000 C 
BRANCH  18  19
ATOM     19  C   UNL     1       3.202   3.340  18.932  0.00  0.00    +0.000 A 
ATOM     20  C   UNL     1       3.153   2.707  20.162  0.00  0.00    +0.000 A 
ATOM     21  C   UNL     1       1.879   2.129  20.427  0.00  0.00    +0.000 A 
ATOM     22  C   UNL     1       1.029   2.247  19.352  0.00  0.00    +0.000 A 
ATOM     23  S   UNL     1       1.785   3.000  18.019  0.00  0.00    +0.000 S 
ENDBRANCH  18  19
ENDBRANCH   1  18
BRANCH   1  24
ATOM     24  C   UNL     1       5.480   6.327  18.223  0.00  0.00    +0.000 C 
BRANCH  24  25
ATOM     25  C   UNL     1       6.560   5.392  17.794  0.00  0.00    +0.000 A 
ATOM     26  N   UNL     1       7.460   4.896  18.626  0.00  0.00    +0.000 NA
ATOM     27  N   UNL     1       8.336   4.173  17.876  0.00  0.00    +0.000 NA
ATOM     28  N   UNL     1       8.013   4.230  16.598  0.00  0.00    +0.000 NA
ATOM     29  N   UNL     1       6.872   4.950  16.523  0.00  0.00    +0.000 N 
BRANCH  29  30
ATOM     30  C   UNL     1       6.276   5.201  15.200  0.00  0.00    +0.000 C 
ATOM     31  C   UNL     1       5.333   6.417  15.195  0.00  0.00    +0.000 C 
ATOM     32  C   UNL     1       7.414   5.450  14.187  0.00  0.00    +0.000 C 
BRANCH  30  33
ATOM     33  C   UNL     1       5.482   3.955  14.669  0.00  0.00    +0.000 C 
ATOM     34  C   UNL     1       5.739   3.556  13.218  0.00  0.00    +0.000 C 
ENDBRANCH  30  33
ENDBRANCH  29  30
ENDBRANCH  24  25
ENDBRANCH   1  24
TORSDOF 11
ENDMDL
MODEL 2
REMARK VINA RESULT:      -7.8      2.677      8.545
REMARK  Name = 
REMARK  15 active torsions:
REMARK  status: ('A' for Active; 'I' for Inactive)
REMARK    1  A    between atoms: C_1  and  C_2
REMARK    2  A    between atoms: C_2  and  O_3
REMARK    3  A    between atoms: O_3  and  C_4
REMARK    4  A    between atoms: C_9  and  O_10
REMARK    5  A    between atoms: C_11  and  C_12
REMARK    6  A    between atoms: C_12  and  N_13
REMARK    7  A    between atoms: N_13  and  C_14
REMARK    8  A    between atoms: N_13  and  C_20
REMARK    9  A    between atoms: C_14  and  C_15
REMARK   10  A    between atoms: C_20  and  C_21
REMARK   11  A    between atoms: N_25  and  C_26
REMARK   12  A    between atoms: C_26  and  C_27
REMARK   13  A    between atoms: C_26  and  C_28
REMARK   14  A    between atoms: C_26  and  C_29
REMARK   15  A    between atoms: C_29  and  C_30
REMARK                            x       y       z     vdW  Elec       q    Type
REMARK                         _______ _______ _______ _____ _____    ______ ____
ROOT
ATOM      1  N   UNL     1       3.030   6.185  18.179  0.00  0.00    +0.000 NA
ENDROOT
BRANCH   1   2
ATOM      2  C   UNL     1       4.313   5.496  18.489  0.00  0.00    +0.000 C 
BRANCH   2   9
ATOM      3  C   UNL     1       6.029   3.523  12.795  0.00  0.00    +0.000 A 
ATOM      4  C   UNL     1       7.161   4.333  12.761  0.00  0.00    +0.000 A 
ATOM      5  C   UNL     1       7.517   5.094  13.871  0.00  0.00    +0.000 A 
ATOM      6  C   UNL     1       6.752   5.096  15.017  0.00  0.00    +0.000 A 
ATOM      7  N   UNL     1       7.177   5.855  16.029  0.00  0.00    +0.000 NA
ATOM      8  C   UNL     1       6.402   5.928  17.118  0.00  0.00    +0.000 A 
ATOM      9  C   UNL     1       5.173   5.290  17.263  0.00  0.00    +0.000 A 
ATOM     10  C   UNL     1       4.780   4.439  16.220  0.00  0.00    +0.000 A 
ATOM     11  C   UNL     1       5.568   4.333  15.056  0.00  0.00    +0.000 A 
ATOM     12  C   UNL     1       5.229   3.531  13.942  0.00  0.00    +0.000 A 
BRANCH   8  13
ATOM     13  O   UNL     1       6.908   6.743  18.088  0.00  0.00    +0.000 OA
ATOM     14  H   UNL     1       6.570   7.630  17.880  0.00  0.00    +0.000 HD
ENDBRANCH   8  13
BRANCH   3  15
ATOM     15  O   UNL     1       5.626   2.702  11.771  0.00  0.00    +0.000 OA
BRANCH  15  17
ATOM     16  C   UNL     1       6.230   0.441  11.179  0.00  0.00    +0.000 C 
ATOM     17  C   UNL     1       6.657   1.895  11.191  0.00  0.00    +0.000 C 
ENDBRANCH  15  17
ENDBRANCH   3  15
ENDBRANCH   2   9
ENDBRANCH   1   2
BRANCH   1  18
ATOM     18  C   UNL     1       1.936   5.223  17.840  0.00  0.00    +0.000 C 
BRANCH  18  19
ATOM     19  C   UNL     1       1.827   4.009  18.730  0.00  0.00    +0.000 A 
ATOM     20  C   UNL     1       2.099   2.687  18.419  0.00  0.00    +0.000 A 
ATOM     21  C   UNL     1       2.033   1.835  19.558  0.00  0.00    +0.000 A 
ATOM     22  C   UNL     1       1.613   2.510  20.681  0.00  0.00    +0.000 A 
ATOM     23  S   UNL     1       1.248   4.145  20.344  0.00  0.00    +0.000 S 
ENDBRANCH  18  19
ENDBRANCH   1  18
BRANCH   1  24
ATOM     24  C   UNL     1       2.605   7.078  19.282  0.00  0.00    +0.000 C 
BRANCH  24  25
ATOM     25  C   UNL     1       2.064   8.391  18.827  0.00  0.00    +0.000 A 
ATOM     26  N   UNL     1       2.416   8.962  17.687  0.00  0.00    +0.000 NA
ATOM     27  N   UNL     1       1.810  10.179  17.651  0.00  0.00    +0.000 NA
ATOM     28  N   UNL     1       1.111  10.385  18.752  0.00  0.00    +0.000 NA
ATOM     29  N   UNL     1       1.214   9.256  19.487  0.00  0.00    +0.000 N 
BRANCH  29  30
ATOM     30  C   UNL     1       0.543   9.198  20.796  0.00  0.00    +0.000 C 
ATOM     31  C   UNL     1      -0.169   7.855  21.039  0.00  0.00    +0.000 C 
ATOM     32  C   UNL     1       1.600   9.407  21.901  0.00  0.00    +0.000 C 
BRANCH  30  33
ATOM     33  C   UNL     1      -0.505  10.354  20.970  0.00  0.00    +0.000 C 
ATOM     34  C   UNL     1      -0.386  11.193  22.240  0.00  0.00    +0.000 C 
ENDBRANCH  30  33
ENDBRANCH  29  30
ENDBRANCH  24  25
ENDBRANCH   1  24
TORSDOF 11
ENDMDL
MODEL 3
REMARK VINA RESULT:      -7.8      1.790      2.364
REMARK  Name = 
REMARK  15 active torsions:
REMARK  status: ('A' for Active; 'I' for Inactive)
REMARK    1  A    between atoms: C_1  and  C_2
REMARK    2  A    between atoms: C_2  and  O_3
REMARK    3  A    between atoms: O_3  and  C_4
REMARK    4  A    between atoms: C_9  and  O_10
REMARK    5  A    between atoms: C_11  and  C_12
REMARK    6  A    between atoms: C_12  and  N_13
REMARK    7  A    between atoms: N_13  and  C_14
REMARK    8  A    between atoms: N_13  and  C_20
REMARK    9  A    between atoms: C_14  and  C_15
REMARK   10  A    between atoms: C_20  and  C_21
REMARK   11  A    between atoms: N_25  and  C_26
REMARK   12  A    between atoms: C_26  and  C_27
REMARK   13  A    between atoms: C_26  and  C_28
REMARK   14  A    between atoms: C_26  and  C_29
REMARK   15  A    between atoms: C_29  and  C_30
REMARK                            x       y       z     vdW  Elec       q    Type
REMARK                         _______ _______ _______ _____ _____    ______ ____
ROOT
ATOM      1  N   UNL     1       4.140   5.995  19.321  0.00  0.00    +0.000 NA
ENDROOT
BRANCH   1   2
ATOM      2  C   UNL     1       2.837   6.208  18.633  0.00  0.00    +0.000 C 
BRANCH   2   9
ATOM      3  C   UNL     1       0.122  10.802  21.917  0.00  0.00    +0.000 A 
ATOM      4  C   UNL     1       0.341  11.757  20.926  0.00  0.00    +0.000 A 
ATOM      5  C   UNL     1       0.900  11.389  19.705  0.00  0.00    +0.000 A 
ATOM      6  C   UNL     1       1.280  10.091  19.449  0.00  0.00    +0.000 A 
ATOM      7  N   UNL     1       1.803   9.837  18.248  0.00  0.00    +0.000 NA
ATOM      8  C   UNL     1       2.249   8.595  18.015  0.00  0.00    +0.000 A 
ATOM      9  C   UNL     1       2.229   7.558  18.942  0.00  0.00    +0.000 A 
ATOM     10  C   UNL     1       1.609   7.823  20.171  0.00  0.00    +0.000 A 
ATOM     11  C   UNL     1       1.125   9.117  20.456  0.00  0.00    +0.000 A 
ATOM     12  C   UNL     1       0.523   9.483  21.681  0.00  0.00    +0.000 A 
BRANCH   8  13
ATOM     13  O   UNL     1       2.784   8.439  16.770  0.00  0.00    +0.000 OA
ATOM     14  H   UNL     1       2.579   9.262  16.296  0.00  0.00    +0.000 HD
ENDBRANCH   8  13
BRANCH   3  15
ATOM     15  O   UNL     1      -0.466  11.058  23.130  0.00  0.00    +0.000 OA
BRANCH  15  17
ATOM     16  C   UNL     1      -1.860  13.011  23.397  0.00  0.00    +0.000 C 
ATOM     17  C   UNL     1      -1.817  11.532  23.068  0.00  0.00    +0.000 C 
ENDBRANCH  15  17
ENDBRANCH   3  15
ENDBRANCH   2   9
ENDBRANCH   1   2
BRANCH   1  18
ATOM     18  C   UNL     1       4.404   4.550  19.603  0.00  0.00    +0.000 C 
BRANCH  18  19
ATOM     19  C   UNL     1       3.187   3.697  19.867  0.00  0.00    +0.000 A 
ATOM     20  C   UNL     1       2.609   2.746  19.045  0.00  0.00    +0.000 A 
ATOM     21  C   UNL     1       1.563   2.028  19.693  0.00  0.00    +0.000 A 
ATOM     22  C   UNL     1       1.306   2.520  20.952  0.00  0.00    +0.000 A 
ATOM     23  S   UNL     1       2.282   3.873  21.320  0.00  0.00    +0.000 S 
ENDBRANCH  18  19
ENDBRANCH   1  18
BRANCH   1  24
ATOM     24  C   UNL     1       5.267   6.584  18.560  0.00  0.00    +0.000 C 
BRANCH  24  25
ATOM     25  C   UNL     1       6.366   5.621  18.261  0.00  0.00    +0.000 A 
ATOM     26  N   UNL     1       7.397   5.428  19.066  0.00  0.00    +0.000 NA
ATOM     27  N   UNL     1       8.238   4.568  18.431  0.00  0.00    +0.000 NA
ATOM     28  N   UNL     1       7.765   4.244  17.242  0.00  0.00    +0.000 NA
ATOM     29  N   UNL     1       6.564   4.854  17.130  0.00  0.00    +0.000 N 
BRANCH  29  30
ATOM     30  C   UNL     1       5.799   4.689  15.883  0.00  0.00    +0.000 C 
ATOM     31  C   UNL     1       4.552   3.805  16.066  0.00  0.00    +0.000 C 
ATOM     32  C   UNL     1       5.353   6.082  15.390  0.00  0.00    +0.000 C 
BRANCH  30  33
ATOM     33  C   UNL     1       6.676   4.079  14.733  0.00  0.00    +0.000 C 
ATOM     34  C   UNL     1       5.971   3.829  13.402  0.00  0.00    +0.000 C 
ENDBRANCH  30  33
ENDBRANCH  29  30
ENDBRANCH  24  25
ENDBRANCH   1  24
TORSDOF 11
ENDMDL
MODEL 4
REMARK VINA RESULT:      -7.7      2.624      8.161
REMARK  Name = 
REMARK  15 active torsions:
REMARK  status: ('A' for Active; 'I' for Inactive)
REMARK    1  A    between atoms: C_1  and  C_2
REMARK    2  A    between atoms: C_2  and  O_3
REMARK    3  A    between atoms: O_3  and  C_4
REMARK    4  A    between atoms: C_9  and  O_10
REMARK    5  A    between atoms: C_11  and  C_12
REMARK    6  A    between atoms: C_12  and  N_13
REMARK    7  A    between atoms: N_13  and  C_14
REMARK    8  A    between atoms: N_13  and  C_20
REMARK    9  A    between atoms: C_14  and  C_15
REMARK   10  A    between atoms: C_20  and  C_21
REMARK   11  A    between atoms: N_25  and  C_26
REMARK   12  A    between atoms: C_26  and  C_27
REMARK   13  A    between atoms: C_26  and  C_28
REMARK   14  A    between atoms: C_26  and  C_29
REMARK   15  A    between atoms: C_29  and  C_30
REMARK                            x       y       z     vdW  Elec       q    Type
REMARK                         _______ _______ _______ _____ _____    ______ ____
ROOT
ATOM      1  N   UNL     1       3.199   6.350  17.692  0.00  0.00    +0.000 NA
ENDROOT
BRANCH   1   2
ATOM      2  C   UNL     1       4.618   6.010  17.989  0.00  0.00    +0.000 C 
BRANCH   2   9
ATOM      3  C   UNL     1       5.803   3.503  12.370  0.00  0.00    +0.000 A 
ATOM      4  C   UNL     1       7.044   4.126  12.258  0.00  0.00    +0.000 A 
ATOM      5  C   UNL     1       7.552   4.880  13.313  0.00  0.00    +0.000 A 
ATOM      6  C   UNL     1       6.839   5.060  14.478  0.00  0.00    +0.000 A 
ATOM      7  N   UNL     1       7.412   5.795  15.433  0.00  0.00    +0.000 NA
ATOM      8  C   UNL     1       6.697   6.044  16.537  0.00  0.00    +0.000 A 
ATOM      9  C   UNL     1       5.392   5.611  16.753  0.00  0.00    +0.000 A 
ATOM     10  C   UNL     1       4.835   4.778  15.772  0.00  0.00    +0.000 A 
ATOM     11  C   UNL     1       5.555   4.491  14.593  0.00  0.00    +0.000 A 
ATOM     12  C   UNL     1       5.056   3.695  13.538  0.00  0.00    +0.000 A 
BRANCH   8  13
ATOM     13  O   UNL     1       7.356   6.820  17.444  0.00  0.00    +0.000 OA
ATOM     14  H   UNL     1       8.275   6.502  17.436  0.00  0.00    +0.000 HD
ENDBRANCH   8  13
BRANCH   3  15
ATOM     15  O   UNL     1       5.243   2.703  11.407  0.00  0.00    +0.000 OA
BRANCH  15  17
ATOM     16  C   UNL     1       3.556   3.920  10.182  0.00  0.00    +0.000 C 
ATOM     17  C   UNL     1       3.830   2.858  11.228  0.00  0.00    +0.000 C 
ENDBRANCH  15  17
ENDBRANCH   3  15
ENDBRANCH   2   9
ENDBRANCH   1   2
BRANCH   1  18
ATOM     18  C   UNL     1       2.239   5.462  18.417  0.00  0.00    +0.000 C 
BRANCH  18  19
ATOM     19  C   UNL     1       2.620   4.003  18.494  0.00  0.00    +0.000 A 
ATOM     20  C   UNL     1       2.517   3.034  17.511  0.00  0.00    +0.000 A 
ATOM     21  C   UNL     1       3.122   1.803  17.894  0.00  0.00    +0.000 A 
ATOM     22  C   UNL     1       3.575   1.837  19.193  0.00  0.00    +0.000 A 
ATOM     23  S   UNL     1       3.221   3.323  19.955  0.00  0.00    +0.000 S 
ENDBRANCH  18  19
ENDBRANCH   1  18
BRANCH   1  24
ATOM     24  C   UNL     1       2.902   7.773  17.982  0.00  0.00    +0.000 C 
BRANCH  24  25
ATOM     25  C   UNL     1       2.156   7.990  19.255  0.00  0.00    +0.000 A 
ATOM     26  N   UNL     1       2.189   7.138  20.267  0.00  0.00    +0.000 NA
ATOM     27  N   UNL     1       1.321   7.606  21.205  0.00  0.00    +0.000 NA
ATOM     28  N   UNL     1       0.734   8.712  20.788  0.00  0.00    +0.000 NA
ATOM     29  N   UNL     1       1.277   9.002  19.585  0.00  0.00    +0.000 N 
BRANCH  29  30
ATOM     30  C   UNL     1       0.797  10.189  18.858  0.00  0.00    +0.000 C 
ATOM     31  C   UNL     1      -0.210   9.838  17.748  0.00  0.00    +0.000 C 
ATOM     32  C   UNL     1       0.116  11.141  19.864  0.00  0.00    +0.000 C 
BRANCH  30  33
ATOM     33  C   UNL     1       1.978  11.003  18.218  0.00  0.00    +0.000 C 
ATOM     34  C   UNL     1       1.959  12.513  18.438  0.00  0.00    +0.000 C 
ENDBRANCH  30  33
ENDBRANCH  29  30
ENDBRANCH  24  25
ENDBRANCH   1  24
TORSDOF 11
ENDMDL
MODEL 5
REMARK VINA RESULT:      -7.7      1.090      1.275
REMARK  Name = 
REMARK  15 active torsions:
REMARK  status: ('A' for Active; 'I' for Inactive)
REMARK    1  A    between atoms: C_1  and  C_2
REMARK    2  A    between atoms: C_2  and  O_3
REMARK    3  A    between atoms: O_3  and  C_4
REMARK    4  A    between atoms: C_9  and  O_10
REMARK    5  A    between atoms: C_11  and  C_12
REMARK    6  A    between atoms: C_12  and  N_13
REMARK    7  A    between atoms: N_13  and  C_14
REMARK    8  A    between atoms: N_13  and  C_20
REMARK    9  A    between atoms: C_14  and  C_15
REMARK   10  A    between atoms: C_20  and  C_21
REMARK   11  A    between atoms: N_25  and  C_26
REMARK   12  A    between atoms: C_26  and  C_27
REMARK   13  A    between atoms: C_26  and  C_28
REMARK   14  A    between atoms: C_26  and  C_29
REMARK   15  A    between atoms: C_29  and  C_30
REMARK                            x       y       z     vdW  Elec       q    Type
REMARK                         _______ _______ _______ _____ _____    ______ ____
ROOT
ATOM      1  N   UNL     1       3.842   6.071  18.348  0.00  0.00    +0.000 NA
ENDROOT
BRANCH   1   2
ATOM      2  C   UNL     1       2.699   6.813  17.747  0.00  0.00    +0.000 C 
BRANCH   2   9
ATOM      3  C   UNL     1       0.032  12.149  19.664  0.00  0.00    +0.000 A 
ATOM      4  C   UNL     1      -0.188  11.675  20.956  0.00  0.00    +0.000 A 
ATOM      5  C   UNL     1       0.285  10.422  21.337  0.00  0.00    +0.000 A 
ATOM      6  C   UNL     1       0.950   9.604  20.451  0.00  0.00    +0.000 A 
ATOM      7  N   UNL     1       1.367   8.423  20.912  0.00  0.00    +0.000 NA
ATOM      8  C   UNL     1       1.945   7.586  20.040  0.00  0.00    +0.000 A 
ATOM      9  C   UNL     1       2.120   7.848  18.685  0.00  0.00    +0.000 A 
ATOM     10  C   UNL     1       1.743   9.121  18.235  0.00  0.00    +0.000 A 
ATOM     11  C   UNL     1       1.132  10.033  19.121  0.00  0.00    +0.000 A 
ATOM     12  C   UNL     1       0.686  11.320  18.746  0.00  0.00    +0.000 A 
BRANCH   8  13
ATOM     13  O   UNL     1       2.318   6.399  20.598  0.00  0.00    +0.000 OA
ATOM     14  H   UNL     1       3.133   6.590  21.090  0.00  0.00    +0.000 HD
ENDBRANCH   8  13
BRANCH   3  15
ATOM     15  O   UNL     1      -0.352  13.386  19.211  0.00  0.00    +0.000 OA
BRANCH  15  17
ATOM     16  C   UNL     1      -0.608  15.427  20.475  0.00  0.00    +0.000 C 
ATOM     17  C   UNL     1      -1.238  14.107  20.075  0.00  0.00    +0.000 C 
ENDBRANCH  15  17
ENDBRANCH   3  15
ENDBRANCH   2   9
ENDBRANCH   1   2
BRANCH   1  18
ATOM     18  C   UNL     1       3.826   4.619  17.992  0.00  0.00    +0.000 C 
BRANCH  18  19
ATOM     19  C   UNL     1       2.777   3.782  18.683  0.00  0.00    +0.000 A 
ATOM     20  C   UNL     1       1.479   3.523  18.278  0.00  0.00    +0.000 A 
ATOM     21  C   UNL     1       0.831   2.561  19.106  0.00  0.00    +0.000 A 
ATOM     22  C   UNL     1       1.616   2.194  20.175  0.00  0.00    +0.000 A 
ATOM     23  S   UNL     1       3.095   3.047  20.205  0.00  0.00    +0.000 S 
ENDBRANCH  18  19
ENDBRANCH   1  18
BRANCH   1  24
ATOM     24  C   UNL     1       5.144   6.675  17.981  0.00  0.00    +0.000 C 
BRANCH  24  25
ATOM     25  C   UNL     1       6.258   5.691  17.861  0.00  0.00    +0.000 A 
ATOM     26  N   UNL     1       7.001   5.312  18.888  0.00  0.00    +0.000 NA
ATOM     27  N   UNL     1       7.970   4.495  18.393  0.00  0.00    +0.000 NA
ATOM     28  N   UNL     1       7.860   4.379  17.083  0.00  0.00    +0.000 NA
ATOM     29  N   UNL     1       6.761   5.083  16.728  0.00  0.00    +0.000 N 
BRANCH  29  30
ATOM     30  C   UNL     1       6.392   5.152  15.305  0.00  0.00    +0.000 C 
ATOM     31  C   UNL     1       5.339   6.237  15.017  0.00  0.00    +0.000 C 
ATOM     32  C   UNL     1       7.661   5.461  14.481  0.00  0.00    +0.000 C 
BRANCH  30  33
ATOM     33  C   UNL     1       5.849   3.779  14.772  0.00  0.00    +0.000 C 
ATOM     34  C   UNL     1       5.819   3.604  13.256  0.00  0.00    +0.000 C 
ENDBRANCH  30  33
ENDBRANCH  29  30
ENDBRANCH  24  25
ENDBRANCH   1  24
TORSDOF 11
ENDMDL
MODEL 6
REMARK VINA RESULT:      -7.5      3.435      9.624
REMARK  Name = 
REMARK  15 active torsions:
REMARK  status: ('A' for Active; 'I' for Inactive)
REMARK    1  A    between atoms: C_1  and  C_2
REMARK    2  A    between atoms: C_2  and  O_3
REMARK    3  A    between atoms: O_3  and  C_4
REMARK    4  A    between atoms: C_9  and  O_10
REMARK    5  A    between atoms: C_11  and  C_12
REMARK    6  A    between atoms: C_12  and  N_13
REMARK    7  A    between atoms: N_13  and  C_14
REMARK    8  A    between atoms: N_13  and  C_20
REMARK    9  A    between atoms: C_14  and  C_15
REMARK   10  A    between atoms: C_20  and  C_21
REMARK   11  A    between atoms: N_25  and  C_26
REMARK   12  A    between atoms: C_26  and  C_27
REMARK   13  A    between atoms: C_26  and  C_28
REMARK   14  A    between atoms: C_26  and  C_29
REMARK   15  A    between atoms: C_29  and  C_30
REMARK                            x       y       z     vdW  Elec       q    Type
REMARK                         _______ _______ _______ _____ _____    ______ ____
ROOT
ATOM      1  N   UNL     1       1.332  10.325  19.212  0.00  0.00    +0.000 NA
ENDROOT
BRANCH   1   2
ATOM      2  C   UNL     1       1.067   9.172  18.307  0.00  0.00    +0.000 C 
BRANCH   2   9
ATOM      3  C   UNL     1       6.134   5.791  16.839  0.00  0.00    +0.000 A 
ATOM      4  C   UNL     1       6.149   5.123  18.061  0.00  0.00    +0.000 A 
ATOM      5  C   UNL     1       5.131   5.329  18.989  0.00  0.00    +0.000 A 
ATOM      6  C   UNL     1       4.104   6.214  18.747  0.00  0.00    +0.000 A 
ATOM      7  N   UNL     1       3.175   6.340  19.695  0.00  0.00    +0.000 NA
ATOM      8  C   UNL     1       2.215   7.256  19.506  0.00  0.00    +0.000 A 
ATOM      9  C   UNL     1       2.130   8.101  18.404  0.00  0.00    +0.000 A 
ATOM     10  C   UNL     1       3.072   7.903  17.384  0.00  0.00    +0.000 A 
ATOM     11  C   UNL     1       4.098   6.948  17.543  0.00  0.00    +0.000 A 
ATOM     12  C   UNL     1       5.110   6.711  16.586  0.00  0.00    +0.000 A 
BRANCH   8  13
ATOM     13  O   UNL     1       1.325   7.326  20.538  0.00  0.00    +0.000 OA
ATOM     14  H   UNL     1       1.509   6.548  21.090  0.00  0.00    +0.000 HD
ENDBRANCH   8  13
BRANCH   3  15
ATOM     15  O   UNL     1       7.063   5.617  15.844  0.00  0.00    +0.000 OA
BRANCH  15  17
ATOM     16  C   UNL     1       6.403   4.373  13.883  0.00  0.00    +0.000 C 
ATOM     17  C   UNL     1       7.077   4.318  15.239  0.00  0.00    +0.000 C 
ENDBRANCH  15  17
ENDBRANCH   3  15
ENDBRANCH   2   9
ENDBRANCH   1   2
BRANCH   1  18
ATOM     18  C   UNL     1       1.980  11.469  18.498  0.00  0.00    +0.000 C 
BRANCH  18  19
ATOM     19  C   UNL     1       1.421  12.837  18.801  0.00  0.00    +0.000 A 
ATOM     20  C   UNL     1       0.252  13.412  18.333  0.00  0.00    +0.000 A 
ATOM     21  C   UNL     1      -0.032  14.660  18.959  0.00  0.00    +0.000 A 
ATOM     22  C   UNL     1       0.979  15.048  19.808  0.00  0.00    +0.000 A 
ATOM     23  S   UNL     1       2.280  13.942  19.802  0.00  0.00    +0.000 S 
ENDBRANCH  18  19
ENDBRANCH   1  18
BRANCH   1  24
ATOM     24  C   UNL     1       0.101  10.780  19.899  0.00  0.00    +0.000 C 
BRANCH  24  25
ATOM     25  C   UNL     1       0.126  10.593  21.378  0.00  0.00    +0.000 A 
ATOM     26  N   UNL     1       0.878   9.685  21.979  0.00  0.00    +0.000 NA
ATOM     27  N   UNL     1       0.571   9.732  23.304  0.00  0.00    +0.000 NA
ATOM     28  N   UNL     1      -0.369  10.630  23.534  0.00  0.00    +0.000 NA
ATOM     29  N   UNL     1      -0.632  11.220  22.346  0.00  0.00    +0.000 N 
BRANCH  29  30
ATOM     30  C   UNL     1      -1.668  12.265  22.287  0.00  0.00    +0.000 C 
ATOM     31  C   UNL     1      -2.802  12.033  23.302  0.00  0.00    +0.000 C 
ATOM     32  C   UNL     1      -1.009  13.630  22.582  0.00  0.00    +0.000 C 
BRANCH  30  33
ATOM     33  C   UNL     1      -2.299  12.385  20.855  0.00  0.00    +0.000 C 
ATOM     34  C   UNL     1      -3.509  13.307  20.722  0.00  0.00    +0.000 C 
ENDBRANCH  30  33
ENDBRANCH  29  30
ENDBRANCH  24  25
ENDBRANCH   1  24
TORSDOF 11
ENDMDL
MODEL 7
REMARK VINA RESULT:      -7.5      3.392      9.639
REMARK  Name = 
REMARK  15 active torsions:
REMARK  status: ('A' for Active; 'I' for Inactive)
REMARK    1  A    between atoms: C_1  and  C_2
REMARK    2  A    between atoms: C_2  and  O_3
REMARK    3  A    between atoms: O_3  and  C_4
REMARK    4  A    between atoms: C_9  and  O_10
REMARK    5  A    between atoms: C_11  and  C_12
REMARK    6  A    between atoms: C_12  and  N_13
REMARK    7  A    between atoms: N_13  and  C_14
REMARK    8  A    between atoms: N_13  and  C_20
REMARK    9  A    between atoms: C_14  and  C_15
REMARK   10  A    between atoms: C_20  and  C_21
REMARK   11  A    between atoms: N_25  and  C_26
REMARK   12  A    between atoms: C_26  and  C_27
REMARK   13  A    between atoms: C_26  and  C_28
REMARK   14  A    between atoms: C_26  and  C_29
REMARK   15  A    between atoms: C_29  and  C_30
REMARK                            x       y       z     vdW  Elec       q    Type
REMARK                         _______ _______ _______ _____ _____    ______ ____
ROOT
ATOM      1  N   UNL     1       1.468  10.289  19.144  0.00  0.00    +0.000 NA
ENDROOT
BRANCH   1   2
ATOM      2  C   UNL     1       1.191   9.121  18.264  0.00  0.00    +0.000 C 
BRANCH   2   9
ATOM      3  C   UNL     1       6.294   5.770  16.848  0.00  0.00    +0.000 A 
ATOM      4  C   UNL     1       6.286   5.086  18.061  0.00  0.00    +0.000 A 
ATOM      5  C   UNL     1       5.251   5.278  18.972  0.00  0.00    +0.000 A 
ATOM      6  C   UNL     1       4.227   6.164  18.722  0.00  0.00    +0.000 A 
ATOM      7  N   UNL     1       3.278   6.275  19.654  0.00  0.00    +0.000 NA
ATOM      8  C   UNL     1       2.321   7.190  19.459  0.00  0.00    +0.000 A 
ATOM      9  C   UNL     1       2.255   8.051  18.367  0.00  0.00    +0.000 A 
ATOM     10  C   UNL     1       3.216   7.868  17.363  0.00  0.00    +0.000 A 
ATOM     11  C   UNL     1       4.242   6.914  17.529  0.00  0.00    +0.000 A 
ATOM     12  C   UNL     1       5.273   6.691  16.588  0.00  0.00    +0.000 A 
BRANCH   8  13
ATOM     13  O   UNL     1       1.411   7.245  20.474  0.00  0.00    +0.000 OA
ATOM     14  H   UNL     1       1.180   6.320  20.663  0.00  0.00    +0.000 HD
ENDBRANCH   8  13
BRANCH   3  15
ATOM     15  O   UNL     1       7.242   5.612  15.869  0.00  0.00    +0.000 OA
BRANCH  15  17
ATOM     16  C   UNL     1       6.114   3.729  14.863  0.00  0.00    +0.000 C 
ATOM     17  C   UNL     1       6.760   5.081  14.629  0.00  0.00    +0.000 C 
ENDBRANCH  15  17
ENDBRANCH   3  15
ENDBRANCH   2   9
ENDBRANCH   1   2
BRANCH   1  18
ATOM     18  C   UNL     1       2.121  11.414  18.405  0.00  0.00    +0.000 C 
BRANCH  18  19
ATOM     19  C   UNL     1       1.719  12.805  18.832  0.00  0.00    +0.000 A 
ATOM     20  C   UNL     1       0.665  13.575  18.371  0.00  0.00    +0.000 A 
ATOM     21  C   UNL     1       0.499  14.776  19.120  0.00  0.00    +0.000 A 
ATOM     22  C   UNL     1       1.491  14.935  20.059  0.00  0.00    +0.000 A 
ATOM     23  S   UNL     1       2.640  13.673  19.996  0.00  0.00    +0.000 S 
ENDBRANCH  18  19
ENDBRANCH   1  18
BRANCH   1  24
ATOM     24  C   UNL     1       0.243  10.766  19.828  0.00  0.00    +0.000 C 
BRANCH  24  25
ATOM     25  C   UNL     1       0.256  10.566  21.305  0.00  0.00    +0.000 A 
ATOM     26  N   UNL     1       0.992   9.644  21.904  0.00  0.00    +0.000 NA
ATOM     27  N   UNL     1       0.676   9.685  23.227  0.00  0.00    +0.000 NA
ATOM     28  N   UNL     1      -0.255  10.591  23.457  0.00  0.00    +0.000 NA
ATOM     29  N   UNL     1      -0.503  11.194  22.273  0.00  0.00    +0.000 N 
BRANCH  29  30
ATOM     30  C   UNL     1      -1.526  12.251  22.216  0.00  0.00    +0.000 C 
ATOM     31  C   UNL     1      -0.950  13.651  22.496  0.00  0.00    +0.000 C 
ATOM     32  C   UNL     1      -2.160  12.247  20.808  0.00  0.00    +0.000 C 
BRANCH  30  33
ATOM     33  C   UNL     1      -2.700  11.986  23.224  0.00  0.00    +0.000 C 
ATOM     34  C   UNL     1      -3.265  13.208  23.943  0.00  0.00    +0.000 C 
ENDBRANCH  30  33
ENDBRANCH  29  30
ENDBRANCH  24  25
ENDBRANCH   1  24
TORSDOF 11
ENDMDL
MODEL 8
REMARK VINA RESULT:      -7.4      3.418      9.580
REMARK  Name = 
REMARK  15 active torsions:
REMARK  status: ('A' for Active; 'I' for Inactive)
REMARK    1  A    between atoms: C_1  and  C_2
REMARK    2  A    between atoms: C_2  and  O_3
REMARK    3  A    between atoms: O_3  and  C_4
REMARK    4  A    between atoms: C_9  and  O_10
REMARK    5  A    between atoms: C_11  and  C_12
REMARK    6  A    between atoms: C_12  and  N_13
REMARK    7  A    between atoms: N_13  and  C_14
REMARK    8  A    between atoms: N_13  and  C_20
REMARK    9  A    between atoms: C_14  and  C_15
REMARK   10  A    between atoms: C_20  and  C_21
REMARK   11  A    between atoms: N_25  and  C_26
REMARK   12  A    between atoms: C_26  and  C_27
REMARK   13  A    between atoms: C_26  and  C_28
REMARK   14  A    between atoms: C_26  and  C_29
REMARK   15  A    between atoms: C_29  and  C_30
REMARK                            x       y       z     vdW  Elec       q    Type
REMARK                         _______ _______ _______ _____ _____    ______ ____
ROOT
ATOM      1  N   UNL     1       1.325  10.150  19.106  0.00  0.00    +0.000 NA
ENDROOT
BRANCH   1   2
ATOM      2  C   UNL     1       1.143   9.010  18.166  0.00  0.00    +0.000 C 
BRANCH   2   9
ATOM      3  C   UNL     1       6.372   5.826  16.832  0.00  0.00    +0.000 A 
ATOM      4  C   UNL     1       6.369   5.143  18.047  0.00  0.00    +0.000 A 
ATOM      5  C   UNL     1       5.315   5.302  18.941  0.00  0.00    +0.000 A 
ATOM      6  C   UNL     1       4.266   6.154  18.674  0.00  0.00    +0.000 A 
ATOM      7  N   UNL     1       3.301   6.236  19.592  0.00  0.00    +0.000 NA
ATOM      8  C   UNL     1       2.317   7.119  19.381  0.00  0.00    +0.000 A 
ATOM      9  C   UNL     1       2.239   7.975  18.286  0.00  0.00    +0.000 A 
ATOM     10  C   UNL     1       3.221   7.823  17.297  0.00  0.00    +0.000 A 
ATOM     11  C   UNL     1       4.275   6.903  17.480  0.00  0.00    +0.000 A 
ATOM     12  C   UNL     1       5.326   6.712  16.556  0.00  0.00    +0.000 A 
BRANCH   8  13
ATOM     13  O   UNL     1       1.391   7.145  20.382  0.00  0.00    +0.000 OA
ATOM     14  H   UNL     1       1.581   7.953  20.888  0.00  0.00    +0.000 HD
ENDBRANCH   8  13
BRANCH   3  15
ATOM     15  O   UNL     1       7.340   5.697  15.868  0.00  0.00    +0.000 OA
BRANCH  15  17
ATOM     16  C   UNL     1       5.958   3.837  15.190  0.00  0.00    +0.000 C 
ATOM     17  C   UNL     1       6.992   4.858  14.760  0.00  0.00    +0.000 C 
ENDBRANCH  15  17
ENDBRANCH   3  15
ENDBRANCH   2   9
ENDBRANCH   1   2
BRANCH   1  18
ATOM     18  C   UNL     1       1.894  11.357  18.431  0.00  0.00    +0.000 C 
BRANCH  18  19
ATOM     19  C   UNL     1       1.793  12.652  19.200  0.00  0.00    +0.000 A 
ATOM     20  C   UNL     1       2.495  13.039  20.328  0.00  0.00    +0.000 A 
ATOM     21  C   UNL     1       2.248  14.396  20.685  0.00  0.00    +0.000 A 
ATOM     22  C   UNL     1       1.289  14.971  19.882  0.00  0.00    +0.000 A 
ATOM     23  S   UNL     1       0.656  13.861  18.748  0.00  0.00    +0.000 S 
ENDBRANCH  18  19
ENDBRANCH   1  18
BRANCH   1  24
ATOM     24  C   UNL     1       0.064  10.497  19.802  0.00  0.00    +0.000 C 
BRANCH  24  25
ATOM     25  C   UNL     1       0.133  10.363  21.285  0.00  0.00    +0.000 A 
ATOM     26  N   UNL     1       0.856   9.439  21.896  0.00  0.00    +0.000 NA
ATOM     27  N   UNL     1       0.599   9.552  23.227  0.00  0.00    +0.000 NA
ATOM     28  N   UNL     1      -0.283  10.507  23.453  0.00  0.00    +0.000 NA
ATOM     29  N   UNL     1      -0.557  11.066  22.253  0.00  0.00    +0.000 N 
BRANCH  29  30
ATOM     30  C   UNL     1      -1.538  12.162  22.189  0.00  0.00    +0.000 C 
ATOM     31  C   UNL     1      -2.217  12.270  20.811  0.00  0.00    +0.000 C 
ATOM     32  C   UNL     1      -2.623  11.917  23.260  0.00  0.00    +0.000 C 
BRANCH  30  33
ATOM     33  C   UNL     1      -0.890  13.550  22.533  0.00  0.00    +0.000 C 
ATOM     34  C   UNL     1      -1.463  14.285  23.742  0.00  0.00    +0.000 C 
ENDBRANCH  30  33
ENDBRANCH  29  30
ENDBRANCH  24  25
ENDBRANCH   1  24
TORSDOF 11
ENDMDL
MODEL 9
REMARK VINA RESULT:      -7.4      3.624      9.726
REMARK  Name = 
REMARK  15 active torsions:
REMARK  status: ('A' for Active; 'I' for Inactive)
REMARK    1  A    between atoms: C_1  and  C_2
REMARK    2  A    between atoms: C_2  and  O_3
REMARK    3  A    between atoms: O_3  and  C_4
REMARK    4  A    between atoms: C_9  and  O_10
REMARK    5  A    between atoms: C_11  and  C_12
REMARK    6  A    between atoms: C_12  and  N_13
REMARK    7  A    between atoms: N_13  and  C_14
REMARK    8  A    between atoms: N_13  and  C_20
REMARK    9  A    between atoms: C_14  and  C_15
REMARK   10  A    between atoms: C_20  and  C_21
REMARK   11  A    between atoms: N_25  and  C_26
REMARK   12  A    between atoms: C_26  and  C_27
REMARK   13  A    between atoms: C_26  and  C_28
REMARK   14  A    between atoms: C_26  and  C_29
REMARK   15  A    between atoms: C_29  and  C_30
REMARK                            x       y       z     vdW  Elec       q    Type
REMARK                         _______ _______ _______ _____ _____    ______ ____
ROOT
ATOM      1  N   UNL     1      -0.332  10.874  18.935  0.00  0.00    +0.000 NA
ENDROOT
BRANCH   1   2
ATOM      2  C   UNL     1       0.567  10.277  19.962  0.00  0.00    +0.000 C 
BRANCH   2   9
ATOM      3  C   UNL     1       3.265   4.645  19.449  0.00  0.00    +0.000 A 
ATOM      4  C   UNL     1       3.743   4.895  18.166  0.00  0.00    +0.000 A 
ATOM      5  C   UNL     1       3.574   6.149  17.583  0.00  0.00    +0.000 A 
ATOM      6  C   UNL     1       2.908   7.162  18.235  0.00  0.00    +0.000 A 
ATOM      7  N   UNL     1       2.801   8.328  17.595  0.00  0.00    +0.000 NA
ATOM      8  C   UNL     1       2.087   9.296  18.185  0.00  0.00    +0.000 A 
ATOM      9  C   UNL     1       1.429   9.167  19.405  0.00  0.00    +0.000 A 
ATOM     10  C   UNL     1       1.615   7.961  20.096  0.00  0.00    +0.000 A 
ATOM     11  C   UNL     1       2.361   6.916  19.510  0.00  0.00    +0.000 A 
ATOM     12  C   UNL     1       2.565   5.657  20.117  0.00  0.00    +0.000 A 
BRANCH   8  13
ATOM     13  O   UNL     1       2.016  10.441  17.447  0.00  0.00    +0.000 OA
ATOM     14  H   UNL     1       2.392  10.213  16.581  0.00  0.00    +0.000 HD
ENDBRANCH   8  13
BRANCH   3  15
ATOM     15  O   UNL     1       3.425   3.461  20.124  0.00  0.00    +0.000 OA
BRANCH  15  17
ATOM     16  C   UNL     1       1.530   2.119  19.467  0.00  0.00    +0.000 C 
ATOM     17  C   UNL     1       3.035   2.287  19.403  0.00  0.00    +0.000 C 
ENDBRANCH  15  17
ENDBRANCH   3  15
ENDBRANCH   2   9
ENDBRANCH   1   2
BRANCH   1  18
ATOM     18  C   UNL     1      -1.583  10.076  18.743  0.00  0.00    +0.000 C 
BRANCH  18  19
ATOM     19  C   UNL     1      -2.522  10.571  17.671  0.00  0.00    +0.000 A 
ATOM     20  C   UNL     1      -2.348  10.550  16.298  0.00  0.00    +0.000 A 
ATOM     21  C   UNL     1      -3.516  10.960  15.593  0.00  0.00    +0.000 A 
ATOM     22  C   UNL     1      -4.509  11.379  16.448  0.00  0.00    +0.000 A 
ATOM     23  S   UNL     1      -4.010  11.330  18.081  0.00  0.00    +0.000 S 
ENDBRANCH  18  19
ENDBRANCH   1  18
BRANCH   1  24
ATOM     24  C   UNL     1      -0.664  12.283  19.246  0.00  0.00    +0.000 C 
BRANCH  24  25
ATOM     25  C   UNL     1       0.274  12.931  20.208  0.00  0.00    +0.000 A 
ATOM     26  N   UNL     1       1.586  12.949  20.037  0.00  0.00    +0.000 NA
ATOM     27  N   UNL     1       2.121  13.527  21.146  0.00  0.00    +0.000 NA
ATOM     28  N   UNL     1       1.174  13.844  22.010  0.00  0.00    +0.000 NA
ATOM     29  N   UNL     1      -0.001  13.524  21.424  0.00  0.00    +0.000 N 
BRANCH  29  30
ATOM     30  C   UNL     1      -1.250  13.751  22.169  0.00  0.00    +0.000 C 
ATOM     31  C   UNL     1      -2.294  14.535  21.353  0.00  0.00    +0.000 C 
ATOM     32  C   UNL     1      -1.849  12.381  22.555  0.00  0.00    +0.000 C 
BRANCH  30  33
ATOM     33  C   UNL     1      -0.998  14.514  23.518  0.00  0.00    +0.000 C 
ATOM     34  C   UNL     1      -2.188  14.621  24.468  0.00  0.00    +0.000 C 
ENDBRANCH  30  33
ENDBRANCH  29  30
ENDBRANCH  24  25
ENDBRANCH   1  24
TORSDOF 11
ENDMDL
