MODEL 1
REMARK VINA RESULT:      -6.8      0.000      0.000
REMARK  Name = 
REMARK  3 active torsions:
REMARK  status: ('A' for Active; 'I' for Inactive)
REMARK    1  A    between atoms: C_2  and  C_3
REMARK    2  A    between atoms: C_2  and  C_9
REMARK    3  A    between atoms: C_19  and  C_20
REMARK                            x       y       z     vdW  Elec       q    Type
REMARK                         _______ _______ _______ _____ _____    ______ ____
ROOT
ATOM      1  C   UNL     1      -2.175  10.972  18.166  0.00  0.00    +0.000 A 
ATOM      2  C   UNL     1      -1.357  10.020  18.795  0.00  0.00    +0.000 A 
ATOM      3  C   UNL     1      -0.565  10.378  19.901  0.00  0.00    +0.000 A 
ATOM      4  C   UNL     1      -0.553  11.740  20.226  0.00  0.00    +0.000 A 
ATOM      5  C   UNL     1      -1.143  12.722  19.432  0.00  0.00    +0.000 A 
ATOM      6  C   UNL     1      -2.072  12.335  18.470  0.00  0.00    +0.000 A 
ATOM      7  N   UNL     1      -0.737  13.985  19.817  0.00  0.00    +0.000 NA
ATOM      8  C   UNL     1      -0.046  13.768  20.910  0.00  0.00    +0.000 A 
ATOM      9  S   UNL     1       0.219  14.844  22.255  0.00  0.00    +0.000 S 
ATOM     10  C   UNL     1      -0.968  13.812  23.111  0.00  0.00    +0.000 A 
ATOM     11  C   UNL     1      -2.183  14.396  23.244  0.00  0.00    +0.000 C 
ATOM     12  C   UNL     1      -0.754  12.395  22.647  0.00  0.00    +0.000 A 
ATOM     13  O   UNL     1      -0.993  11.337  23.192  0.00  0.00    +0.000 OA
ATOM     14  N   UNL     1      -0.268  12.493  21.345  0.00  0.00    +0.000 N 
ENDROOT
BRANCH  11  15
ATOM     15  C   UNL     1      -3.361  14.055  22.398  0.00  0.00    +0.000 A 
ATOM     16  C   UNL     1      -3.676  14.718  21.212  0.00  0.00    +0.000 A 
ATOM     17  C   UNL     1      -4.765  14.281  20.436  0.00  0.00    +0.000 A 
ATOM     18  C   UNL     1      -5.552  13.204  20.838  0.00  0.00    +0.000 A 
ATOM     19  C   UNL     1      -5.258  12.539  22.020  0.00  0.00    +0.000 A 
ATOM     20  C   UNL     1      -4.167  12.955  22.772  0.00  0.00    +0.000 A 
ATOM     21  F   UNL     1      -3.885  12.278  23.902  0.00  0.00    +0.000 F 
ENDBRANCH  11  15
BRANCH   1  23
ATOM     22  O   UNL     1      -3.051   9.826  16.362  0.00  0.00    +0.000 OA
ATOM     23  C   UNL     1      -3.298  10.599  17.289  0.00  0.00    +0.000 C 
BRANCH  23  24
ATOM     24  C   UNL     1      -4.695  11.043  17.498  0.00  0.00    +0.000 A 
ATOM     25  C   UNL     1      -5.212  12.209  16.926  0.00  0.00    +0.000 A 
ATOM     26  C   UNL     1      -6.493  12.644  17.282  0.00  0.00    +0.000 A 
ATOM     27  C   UNL     1      -7.257  11.920  18.202  0.00  0.00    +0.000 A 
ATOM     28  C   UNL     1      -6.751  10.750  18.762  0.00  0.00    +0.000 A 
ATOM     29  C   UNL     1      -5.475  10.313  18.410  0.00  0.00    +0.000 A 
ENDBRANCH  23  24
ENDBRANCH   1  23
TORSDOF 3
ENDMDL
MODEL 2
REMARK VINA RESULT:      -6.8      9.752     12.143
REMARK  Name = 
REMARK  3 active torsions:
REMARK  status: ('A' for Active; 'I' for Inactive)
REMARK    1  A    between atoms: C_2  and  C_3
REMARK    2  A    between atoms: C_2  and  C_9
REMARK    3  A    between atoms: C_19  and  C_20
REMARK                            x       y       z     vdW  Elec       q    Type
REMARK                         _______ _______ _______ _____ _____    ______ ____
ROOT
ATOM      1  C   UNL     1       6.482  15.591  18.687  0.00  0.00    +0.000 A 
ATOM      2  C   UNL     1       5.993  14.612  17.808  0.00  0.00    +0.000 A 
ATOM      3  C   UNL     1       6.854  13.636  17.275  0.00  0.00    +0.000 A 
ATOM      4  C   UNL     1       8.212  13.795  17.571  0.00  0.00    +0.000 A 
ATOM      5  C   UNL     1       8.729  14.922  18.210  0.00  0.00    +0.000 A 
ATOM      6  C   UNL     1       7.856  15.764  18.893  0.00  0.00    +0.000 A 
ATOM      7  N   UNL     1      10.108  14.960  18.116  0.00  0.00    +0.000 NA
ATOM      8  C   UNL     1      10.412  13.808  17.569  0.00  0.00    +0.000 A 
ATOM      9  S   UNL     1      11.889  12.894  17.721  0.00  0.00    +0.000 S 
ATOM     10  C   UNL     1      10.937  11.834  18.806  0.00  0.00    +0.000 A 
ATOM     11  C   UNL     1      11.236  12.006  20.116  0.00  0.00    +0.000 C 
ATOM     12  C   UNL     1       9.534  11.768  18.258  0.00  0.00    +0.000 A 
ATOM     13  O   UNL     1       8.678  10.915  18.372  0.00  0.00    +0.000 OA
ATOM     14  N   UNL     1       9.325  12.982  17.608  0.00  0.00    +0.000 N 
ENDROOT
BRANCH  11  15
ATOM     15  C   UNL     1      10.385  12.775  21.065  0.00  0.00    +0.000 A 
ATOM     16  C   UNL     1      10.528  14.143  21.295  0.00  0.00    +0.000 A 
ATOM     17  C   UNL     1       9.630  14.805  22.152  0.00  0.00    +0.000 A 
ATOM     18  C   UNL     1       8.605  14.115  22.796  0.00  0.00    +0.000 A 
ATOM     19  C   UNL     1       8.454  12.752  22.586  0.00  0.00    +0.000 A 
ATOM     20  C   UNL     1       9.324  12.104  21.718  0.00  0.00    +0.000 A 
ATOM     21  F   UNL     1       9.143  10.787  21.509  0.00  0.00    +0.000 F 
ENDBRANCH  11  15
BRANCH   1  23
ATOM     22  O   UNL     1       4.946  17.278  19.051  0.00  0.00    +0.000 OA
ATOM     23  C   UNL     1       5.603  16.374  19.572  0.00  0.00    +0.000 C 
BRANCH  23  24
ATOM     24  C   UNL     1       5.419  16.096  21.015  0.00  0.00    +0.000 A 
ATOM     25  C   UNL     1       5.854  16.970  22.015  0.00  0.00    +0.000 A 
ATOM     26  C   UNL     1       5.779  16.578  23.355  0.00  0.00    +0.000 A 
ATOM     27  C   UNL     1       5.272  15.321  23.700  0.00  0.00    +0.000 A 
ATOM     28  C   UNL     1       4.825  14.454  22.706  0.00  0.00    +0.000 A 
ATOM     29  C   UNL     1       4.898  14.840  21.369  0.00  0.00    +0.000 A 
ENDBRANCH  23  24
ENDBRANCH   1  23
TORSDOF 3
ENDMDL
MODEL 3
REMARK VINA RESULT:      -6.7      0.893      1.258
REMARK  Name = 
REMARK  3 active torsions:
REMARK  status: ('A' for Active; 'I' for Inactive)
REMARK    1  A    between atoms: C_2  and  C_3
REMARK    2  A    between atoms: C_2  and  C_9
REMARK    3  A    between atoms: C_19  and  C_20
REMARK                            x       y       z     vdW  Elec       q    Type
REMARK                         _______ _______ _______ _____ _____    ______ ____
ROOT
ATOM      1  C   UNL     1      -2.104  10.961  18.148  0.00  0.00    +0.000 A 
ATOM      2  C   UNL     1      -1.291  10.008  18.783  0.00  0.00    +0.000 A 
ATOM      3  C   UNL     1      -0.513  10.364  19.899  0.00  0.00    +0.000 A 
ATOM      4  C   UNL     1      -0.509  11.723  20.232  0.00  0.00    +0.000 A 
ATOM      5  C   UNL     1      -1.093  12.707  19.435  0.00  0.00    +0.000 A 
ATOM      6  C   UNL     1      -2.009  12.323  18.460  0.00  0.00    +0.000 A 
ATOM      7  N   UNL     1      -0.696  13.970  19.831  0.00  0.00    +0.000 NA
ATOM      8  C   UNL     1      -0.018  13.749  20.931  0.00  0.00    +0.000 A 
ATOM      9  S   UNL     1       0.228  14.821  22.285  0.00  0.00    +0.000 S 
ATOM     10  C   UNL     1      -0.967  13.780  23.121  0.00  0.00    +0.000 A 
ATOM     11  C   UNL     1      -2.186  14.359  23.242  0.00  0.00    +0.000 C 
ATOM     12  C   UNL     1      -0.743  12.366  22.652  0.00  0.00    +0.000 A 
ATOM     13  O   UNL     1      -0.985  11.305  23.190  0.00  0.00    +0.000 OA
ATOM     14  N   UNL     1      -0.241  12.472  21.357  0.00  0.00    +0.000 N 
ENDROOT
BRANCH  11  15
ATOM     15  C   UNL     1      -3.352  14.019  22.380  0.00  0.00    +0.000 A 
ATOM     16  C   UNL     1      -4.155  12.896  22.578  0.00  0.00    +0.000 A 
ATOM     17  C   UNL     1      -5.283  12.693  21.762  0.00  0.00    +0.000 A 
ATOM     18  C   UNL     1      -5.607  13.585  20.743  0.00  0.00    +0.000 A 
ATOM     19  C   UNL     1      -4.814  14.703  20.526  0.00  0.00    +0.000 A 
ATOM     20  C   UNL     1      -3.715  14.917  21.349  0.00  0.00    +0.000 A 
ATOM     21  F   UNL     1      -2.975  16.021  21.138  0.00  0.00    +0.000 F 
ENDBRANCH  11  15
BRANCH   1  23
ATOM     22  O   UNL     1      -2.953   9.825  16.324  0.00  0.00    +0.000 OA
ATOM     23  C   UNL     1      -3.215  10.589  17.255  0.00  0.00    +0.000 C 
BRANCH  23  24
ATOM     24  C   UNL     1      -4.617  11.021  17.453  0.00  0.00    +0.000 A 
ATOM     25  C   UNL     1      -5.158  12.147  16.825  0.00  0.00    +0.000 A 
ATOM     26  C   UNL     1      -6.442  12.580  17.169  0.00  0.00    +0.000 A 
ATOM     27  C   UNL     1      -7.187  11.895  18.133  0.00  0.00    +0.000 A 
ATOM     28  C   UNL     1      -6.657  10.764  18.750  0.00  0.00    +0.000 A 
ATOM     29  C   UNL     1      -5.378  10.329  18.411  0.00  0.00    +0.000 A 
ENDBRANCH  23  24
ENDBRANCH   1  23
TORSDOF 3
ENDMDL
MODEL 4
REMARK VINA RESULT:      -6.7      2.496      4.104
REMARK  Name = 
REMARK  3 active torsions:
REMARK  status: ('A' for Active; 'I' for Inactive)
REMARK    1  A    between atoms: C_2  and  C_3
REMARK    2  A    between atoms: C_2  and  C_9
REMARK    3  A    between atoms: C_19  and  C_20
REMARK                            x       y       z     vdW  Elec       q    Type
REMARK                         _______ _______ _______ _____ _____    ______ ____
ROOT
ATOM      1  C   UNL     1      -1.668  11.908  20.752  0.00  0.00    +0.000 A 
ATOM      2  C   UNL     1      -1.532  11.559  22.105  0.00  0.00    +0.000 A 
ATOM      3  C   UNL     1      -2.374  12.127  23.077  0.00  0.00    +0.000 A 
ATOM      4  C   UNL     1      -3.236  13.133  22.625  0.00  0.00    +0.000 A 
ATOM      5  C   UNL     1      -3.174  13.672  21.341  0.00  0.00    +0.000 A 
ATOM      6  C   UNL     1      -2.484  12.974  20.354  0.00  0.00    +0.000 A 
ATOM      7  N   UNL     1      -3.921  14.831  21.250  0.00  0.00    +0.000 NA
ATOM      8  C   UNL     1      -4.535  14.894  22.407  0.00  0.00    +0.000 A 
ATOM      9  S   UNL     1      -6.056  15.657  22.786  0.00  0.00    +0.000 S 
ATOM     10  C   UNL     1      -6.703  13.987  22.827  0.00  0.00    +0.000 A 
ATOM     11  C   UNL     1      -7.447  13.677  21.738  0.00  0.00    +0.000 C 
ATOM     12  C   UNL     1      -5.629  13.099  23.400  0.00  0.00    +0.000 A 
ATOM     13  O   UNL     1      -5.706  12.040  23.988  0.00  0.00    +0.000 OA
ATOM     14  N   UNL     1      -4.419  13.696  23.052  0.00  0.00    +0.000 N 
ENDROOT
BRANCH  11  15
ATOM     15  C   UNL     1      -6.953  12.844  20.607  0.00  0.00    +0.000 A 
ATOM     16  C   UNL     1      -6.192  13.348  19.552  0.00  0.00    +0.000 A 
ATOM     17  C   UNL     1      -5.701  12.474  18.565  0.00  0.00    +0.000 A 
ATOM     18  C   UNL     1      -5.976  11.109  18.609  0.00  0.00    +0.000 A 
ATOM     19  C   UNL     1      -6.738  10.592  19.645  0.00  0.00    +0.000 A 
ATOM     20  C   UNL     1      -7.201  11.451  20.634  0.00  0.00    +0.000 A 
ATOM     21  F   UNL     1      -7.916  10.924  21.645  0.00  0.00    +0.000 F 
ENDBRANCH  11  15
BRANCH   1  23
ATOM     22  O   UNL     1      -0.023  10.555  19.860  0.00  0.00    +0.000 OA
ATOM     23  C   UNL     1      -1.115  11.088  19.661  0.00  0.00    +0.000 C 
BRANCH  23  24
ATOM     24  C   UNL     1      -1.821  10.820  18.386  0.00  0.00    +0.000 A 
ATOM     25  C   UNL     1      -1.879  11.750  17.344  0.00  0.00    +0.000 A 
ATOM     26  C   UNL     1      -2.683  11.490  16.230  0.00  0.00    +0.000 A 
ATOM     27  C   UNL     1      -3.425  10.307  16.152  0.00  0.00    +0.000 A 
ATOM     28  C   UNL     1      -3.357   9.372  17.182  0.00  0.00    +0.000 A 
ATOM     29  C   UNL     1      -2.558   9.628  18.294  0.00  0.00    +0.000 A 
ENDBRANCH  23  24
ENDBRANCH   1  23
TORSDOF 3
ENDMDL
MODEL 5
REMARK VINA RESULT:      -6.7      2.763      4.575
REMARK  Name = 
REMARK  3 active torsions:
REMARK  status: ('A' for Active; 'I' for Inactive)
REMARK    1  A    between atoms: C_2  and  C_3
REMARK    2  A    between atoms: C_2  and  C_9
REMARK    3  A    between atoms: C_19  and  C_20
REMARK                            x       y       z     vdW  Elec       q    Type
REMARK                         _______ _______ _______ _____ _____    ______ ____
ROOT
ATOM      1  C   UNL     1      -2.008  12.228  20.758  0.00  0.00    +0.000 A 
ATOM      2  C   UNL     1      -1.819  11.879  22.105  0.00  0.00    +0.000 A 
ATOM      3  C   UNL     1      -2.696  12.356  23.095  0.00  0.00    +0.000 A 
ATOM      4  C   UNL     1      -3.655  13.282  22.666  0.00  0.00    +0.000 A 
ATOM      5  C   UNL     1      -3.663  13.838  21.388  0.00  0.00    +0.000 A 
ATOM      6  C   UNL     1      -2.926  13.217  20.383  0.00  0.00    +0.000 A 
ATOM      7  N   UNL     1      -4.516  14.922  21.321  0.00  0.00    +0.000 NA
ATOM      8  C   UNL     1      -5.115  14.916  22.487  0.00  0.00    +0.000 A 
ATOM      9  S   UNL     1      -6.695  15.530  22.895  0.00  0.00    +0.000 S 
ATOM     10  C   UNL     1      -7.183  13.806  22.926  0.00  0.00    +0.000 A 
ATOM     11  C   UNL     1      -7.911  13.439  21.845  0.00  0.00    +0.000 C 
ATOM     12  C   UNL     1      -6.022  13.017  23.474  0.00  0.00    +0.000 A 
ATOM     13  O   UNL     1      -5.992  11.949  24.051  0.00  0.00    +0.000 OA
ATOM     14  N   UNL     1      -4.879  13.728  23.116  0.00  0.00    +0.000 N 
ENDROOT
BRANCH  11  15
ATOM     15  C   UNL     1      -7.358  12.667  20.698  0.00  0.00    +0.000 A 
ATOM     16  C   UNL     1      -7.263  11.275  20.680  0.00  0.00    +0.000 A 
ATOM     17  C   UNL     1      -6.798  10.622  19.524  0.00  0.00    +0.000 A 
ATOM     18  C   UNL     1      -6.410  11.342  18.396  0.00  0.00    +0.000 A 
ATOM     19  C   UNL     1      -6.490  12.726  18.399  0.00  0.00    +0.000 A 
ATOM     20  C   UNL     1      -6.974  13.369  19.532  0.00  0.00    +0.000 A 
ATOM     21  F   UNL     1      -7.067  14.712  19.504  0.00  0.00    +0.000 F 
ENDBRANCH  11  15
BRANCH   1  23
ATOM     22  O   UNL     1      -0.207  11.176  19.764  0.00  0.00    +0.000 OA
ATOM     23  C   UNL     1      -1.397  11.474  19.650  0.00  0.00    +0.000 C 
BRANCH  23  24
ATOM     24  C   UNL     1      -2.141  11.004  18.458  0.00  0.00    +0.000 A 
ATOM     25  C   UNL     1      -2.895   9.827  18.453  0.00  0.00    +0.000 A 
ATOM     26  C   UNL     1      -3.451   9.368  17.255  0.00  0.00    +0.000 A 
ATOM     27  C   UNL     1      -3.260  10.079  16.066  0.00  0.00    +0.000 A 
ATOM     28  C   UNL     1      -2.522  11.260  16.072  0.00  0.00    +0.000 A 
ATOM     29  C   UNL     1      -1.965  11.720  17.263  0.00  0.00    +0.000 A 
ENDBRANCH  23  24
ENDBRANCH   1  23
TORSDOF 3
ENDMDL
MODEL 6
REMARK VINA RESULT:      -6.7      2.916      5.187
REMARK  Name = 
REMARK  3 active torsions:
REMARK  status: ('A' for Active; 'I' for Inactive)
REMARK    1  A    between atoms: C_2  and  C_3
REMARK    2  A    between atoms: C_2  and  C_9
REMARK    3  A    between atoms: C_19  and  C_20
REMARK                            x       y       z     vdW  Elec       q    Type
REMARK                         _______ _______ _______ _____ _____    ______ ____
ROOT
ATOM      1  C   UNL     1      -2.301  12.426  20.649  0.00  0.00    +0.000 A 
ATOM      2  C   UNL     1      -1.875  11.970  21.906  0.00  0.00    +0.000 A 
ATOM      3  C   UNL     1      -2.561  12.350  23.073  0.00  0.00    +0.000 A 
ATOM      4  C   UNL     1      -3.581  13.293  22.901  0.00  0.00    +0.000 A 
ATOM      5  C   UNL     1      -3.818  13.952  21.696  0.00  0.00    +0.000 A 
ATOM      6  C   UNL     1      -3.272  13.428  20.527  0.00  0.00    +0.000 A 
ATOM      7  N   UNL     1      -4.671  15.025  21.873  0.00  0.00    +0.000 NA
ATOM      8  C   UNL     1      -5.052  14.913  23.122  0.00  0.00    +0.000 A 
ATOM      9  S   UNL     1      -6.534  15.466  23.855  0.00  0.00    +0.000 S 
ATOM     10  C   UNL     1      -7.007  13.739  23.829  0.00  0.00    +0.000 A 
ATOM     11  C   UNL     1      -7.916  13.450  22.867  0.00  0.00    +0.000 C 
ATOM     12  C   UNL     1      -5.766  12.925  24.093  0.00  0.00    +0.000 A 
ATOM     13  O   UNL     1      -5.632  11.814  24.563  0.00  0.00    +0.000 OA
ATOM     14  N   UNL     1      -4.705  13.681  23.597  0.00  0.00    +0.000 N 
ENDROOT
BRANCH  11  15
ATOM     15  C   UNL     1      -7.576  12.784  21.579  0.00  0.00    +0.000 A 
ATOM     16  C   UNL     1      -7.441  11.402  21.438  0.00  0.00    +0.000 A 
ATOM     17  C   UNL     1      -7.193  10.852  20.168  0.00  0.00    +0.000 A 
ATOM     18  C   UNL     1      -7.061  11.663  19.043  0.00  0.00    +0.000 A 
ATOM     19  C   UNL     1      -7.184  13.039  19.166  0.00  0.00    +0.000 A 
ATOM     20  C   UNL     1      -7.455  13.580  20.417  0.00  0.00    +0.000 A 
ATOM     21  F   UNL     1      -7.596  14.916  20.509  0.00  0.00    +0.000 F 
ENDBRANCH  11  15
BRANCH   1  23
ATOM     22  O   UNL     1      -2.778  11.597  18.546  0.00  0.00    +0.000 OA
ATOM     23  C   UNL     1      -1.898  11.775  19.390  0.00  0.00    +0.000 C 
BRANCH  23  24
ATOM     24  C   UNL     1      -0.505  11.393  19.063  0.00  0.00    +0.000 A 
ATOM     25  C   UNL     1       0.534  12.324  18.979  0.00  0.00    +0.000 A 
ATOM     26  C   UNL     1       1.792  11.915  18.524  0.00  0.00    +0.000 A 
ATOM     27  C   UNL     1       2.016  10.585  18.157  0.00  0.00    +0.000 A 
ATOM     28  C   UNL     1       0.986   9.653  18.255  0.00  0.00    +0.000 A 
ATOM     29  C   UNL     1      -0.269  10.055  18.706  0.00  0.00    +0.000 A 
ENDBRANCH  23  24
ENDBRANCH   1  23
TORSDOF 3
ENDMDL
MODEL 7
REMARK VINA RESULT:      -6.7      2.023      3.141
REMARK  Name = 
REMARK  3 active torsions:
REMARK  status: ('A' for Active; 'I' for Inactive)
REMARK    1  A    between atoms: C_2  and  C_3
REMARK    2  A    between atoms: C_2  and  C_9
REMARK    3  A    between atoms: C_19  and  C_20
REMARK                            x       y       z     vdW  Elec       q    Type
REMARK                         _______ _______ _______ _____ _____    ______ ____
ROOT
ATOM      1  C   UNL     1      -4.340  11.217  18.080  0.00  0.00    +0.000 A 
ATOM      2  C   UNL     1      -3.904   9.905  17.838  0.00  0.00    +0.000 A 
ATOM      3  C   UNL     1      -2.549   9.562  17.996  0.00  0.00    +0.000 A 
ATOM      4  C   UNL     1      -1.679  10.624  18.270  0.00  0.00    +0.000 A 
ATOM      5  C   UNL     1      -2.071  11.962  18.233  0.00  0.00    +0.000 A 
ATOM      6  C   UNL     1      -3.429  12.263  18.272  0.00  0.00    +0.000 A 
ATOM      7  N   UNL     1      -0.975  12.803  18.248  0.00  0.00    +0.000 NA
ATOM      8  C   UNL     1       0.035  11.990  18.444  0.00  0.00    +0.000 A 
ATOM      9  S   UNL     1       1.573  12.335  19.190  0.00  0.00    +0.000 S 
ATOM     10  C   UNL     1       0.914  11.438  20.594  0.00  0.00    +0.000 A 
ATOM     11  C   UNL     1       0.550  12.245  21.619  0.00  0.00    +0.000 C 
ATOM     12  C   UNL     1       0.064  10.316  20.056  0.00  0.00    +0.000 A 
ATOM     13  O   UNL     1      -0.237   9.246  20.544  0.00  0.00    +0.000 OA
ATOM     14  N   UNL     1      -0.431  10.768  18.835  0.00  0.00    +0.000 N 
ENDROOT
BRANCH  11  15
ATOM     15  C   UNL     1      -0.861  12.613  21.923  0.00  0.00    +0.000 A 
ATOM     16  C   UNL     1      -1.541  13.651  21.286  0.00  0.00    +0.000 A 
ATOM     17  C   UNL     1      -2.897  13.880  21.580  0.00  0.00    +0.000 A 
ATOM     18  C   UNL     1      -3.575  13.099  22.513  0.00  0.00    +0.000 A 
ATOM     19  C   UNL     1      -2.912  12.068  23.162  0.00  0.00    +0.000 A 
ATOM     20  C   UNL     1      -1.580  11.825  22.852  0.00  0.00    +0.000 A 
ATOM     21  F   UNL     1      -0.963  10.803  23.474  0.00  0.00    +0.000 F 
ENDBRANCH  11  15
BRANCH   1  23
ATOM     22  O   UNL     1      -6.408  11.943  17.351  0.00  0.00    +0.000 OA
ATOM     23  C   UNL     1      -5.754  11.553  18.319  0.00  0.00    +0.000 C 
BRANCH  23  24
ATOM     24  C   UNL     1      -6.436  11.385  19.623  0.00  0.00    +0.000 A 
ATOM     25  C   UNL     1      -7.170  10.241  19.951  0.00  0.00    +0.000 A 
ATOM     26  C   UNL     1      -7.907  10.211  21.139  0.00  0.00    +0.000 A 
ATOM     27  C   UNL     1      -7.913  11.313  21.999  0.00  0.00    +0.000 A 
ATOM     28  C   UNL     1      -7.171  12.448  21.682  0.00  0.00    +0.000 A 
ATOM     29  C   UNL     1      -6.436  12.483  20.499  0.00  0.00    +0.000 A 
ENDBRANCH  23  24
ENDBRANCH   1  23
TORSDOF 3
ENDMDL
MODEL 8
REMARK VINA RESULT:      -6.6      2.373      3.855
REMARK  Name = 
REMARK  3 active torsions:
REMARK  status: ('A' for Active; 'I' for Inactive)
REMARK    1  A    between atoms: C_2  and  C_3
REMARK    2  A    between atoms: C_2  and  C_9
REMARK    3  A    between atoms: C_19  and  C_20
REMARK                            x       y       z     vdW  Elec       q    Type
REMARK                         _______ _______ _______ _____ _____    ______ ____
ROOT
ATOM      1  C   UNL     1      -1.433  11.804  20.759  0.00  0.00    +0.000 A 
ATOM      2  C   UNL     1      -1.220  11.303  22.052  0.00  0.00    +0.000 A 
ATOM      3  C   UNL     1      -1.915  11.843  23.150  0.00  0.00    +0.000 A 
ATOM      4  C   UNL     1      -2.704  12.967  22.879  0.00  0.00    +0.000 A 
ATOM      5  C   UNL     1      -2.695  13.629  21.652  0.00  0.00    +0.000 A 
ATOM      6  C   UNL     1      -2.166  12.977  20.542  0.00  0.00    +0.000 A 
ATOM      7  N   UNL     1      -3.324  14.856  21.744  0.00  0.00    +0.000 NA
ATOM      8  C   UNL     1      -3.829  14.855  22.954  0.00  0.00    +0.000 A 
ATOM      9  S   UNL     1      -5.226  15.713  23.545  0.00  0.00    +0.000 S 
ATOM     10  C   UNL     1      -6.036  14.116  23.486  0.00  0.00    +0.000 A 
ATOM     11  C   UNL     1      -6.897  13.993  22.448  0.00  0.00    +0.000 C 
ATOM     12  C   UNL     1      -5.014  13.076  23.868  0.00  0.00    +0.000 A 
ATOM     13  O   UNL     1      -5.150  11.973  24.357  0.00  0.00    +0.000 OA
ATOM     14  N   UNL     1      -3.783  13.590  23.467  0.00  0.00    +0.000 N 
ENDROOT
BRANCH  11  15
ATOM     15  C   UNL     1      -6.587  13.239  21.201  0.00  0.00    +0.000 A 
ATOM     16  C   UNL     1      -5.900  13.789  20.118  0.00  0.00    +0.000 A 
ATOM     17  C   UNL     1      -5.583  12.982  19.010  0.00  0.00    +0.000 A 
ATOM     18  C   UNL     1      -5.959  11.642  18.963  0.00  0.00    +0.000 A 
ATOM     19  C   UNL     1      -6.650  11.081  20.027  0.00  0.00    +0.000 A 
ATOM     20  C   UNL     1      -6.939  11.871  21.132  0.00  0.00    +0.000 A 
ATOM     21  F   UNL     1      -7.588  11.300  22.164  0.00  0.00    +0.000 F 
ENDBRANCH  11  15
BRANCH   1  23
ATOM     22  O   UNL     1       0.064  10.551  19.522  0.00  0.00    +0.000 OA
ATOM     23  C   UNL     1      -1.061  11.054  19.546  0.00  0.00    +0.000 C 
BRANCH  23  24
ATOM     24  C   UNL     1      -1.974  10.820  18.404  0.00  0.00    +0.000 A 
ATOM     25  C   UNL     1      -2.827   9.715  18.333  0.00  0.00    +0.000 A 
ATOM     26  C   UNL     1      -3.554   9.478  17.162  0.00  0.00    +0.000 A 
ATOM     27  C   UNL     1      -3.435  10.339  16.067  0.00  0.00    +0.000 A 
ATOM     28  C   UNL     1      -2.596  11.448  16.140  0.00  0.00    +0.000 A 
ATOM     29  C   UNL     1      -1.869  11.687  17.304  0.00  0.00    +0.000 A 
ENDBRANCH  23  24
ENDBRANCH   1  23
TORSDOF 3
ENDMDL
MODEL 9
REMARK VINA RESULT:      -6.6     10.907     13.022
REMARK  Name = 
REMARK  3 active torsions:
REMARK  status: ('A' for Active; 'I' for Inactive)
REMARK    1  A    between atoms: C_2  and  C_3
REMARK    2  A    between atoms: C_2  and  C_9
REMARK    3  A    between atoms: C_19  and  C_20
REMARK                            x       y       z     vdW  Elec       q    Type
REMARK                         _______ _______ _______ _____ _____    ______ ____
ROOT
ATOM      1  C   UNL     1       7.741  13.382  22.897  0.00  0.00    +0.000 A 
ATOM      2  C   UNL     1       6.608  14.115  22.509  0.00  0.00    +0.000 A 
ATOM      3  C   UNL     1       6.698  15.087  21.498  0.00  0.00    +0.000 A 
ATOM      4  C   UNL     1       7.987  15.353  21.020  0.00  0.00    +0.000 A 
ATOM      5  C   UNL     1       9.141  14.826  21.600  0.00  0.00    +0.000 A 
ATOM      6  C   UNL     1       9.022  13.733  22.454  0.00  0.00    +0.000 A 
ATOM      7  N   UNL     1      10.272  15.469  21.133  0.00  0.00    +0.000 NA
ATOM      8  C   UNL     1       9.813  16.251  20.186  0.00  0.00    +0.000 A 
ATOM      9  S   UNL     1      10.648  16.850  18.778  0.00  0.00    +0.000 S 
ATOM     10  C   UNL     1       9.682  15.635  17.883  0.00  0.00    +0.000 A 
ATOM     11  C   UNL     1      10.404  14.552  17.508  0.00  0.00    +0.000 C 
ATOM     12  C   UNL     1       8.326  15.565  18.537  0.00  0.00    +0.000 A 
ATOM     13  O   UNL     1       7.246  15.236  18.089  0.00  0.00    +0.000 OA
ATOM     14  N   UNL     1       8.533  15.891  19.875  0.00  0.00    +0.000 N 
ENDROOT
BRANCH  11  15
ATOM     15  C   UNL     1      10.348  13.238  18.206  0.00  0.00    +0.000 A 
ATOM     16  C   UNL     1      11.224  12.871  19.229  0.00  0.00    +0.000 A 
ATOM     17  C   UNL     1      11.051  11.639  19.885  0.00  0.00    +0.000 A 
ATOM     18  C   UNL     1      10.029  10.764  19.522  0.00  0.00    +0.000 A 
ATOM     19  C   UNL     1       9.156  11.109  18.502  0.00  0.00    +0.000 A 
ATOM     20  C   UNL     1       9.310  12.338  17.871  0.00  0.00    +0.000 A 
ATOM     21  F   UNL     1       8.435  12.663  16.902  0.00  0.00    +0.000 F 
ENDBRANCH  11  15
BRANCH   1  23
ATOM     22  O   UNL     1       8.167  11.123  23.117  0.00  0.00    +0.000 OA
ATOM     23  C   UNL     1       7.651  12.112  23.638  0.00  0.00    +0.000 C 
BRANCH  23  24
ATOM     24  C   UNL     1       7.043  11.979  24.982  0.00  0.00    +0.000 A 
ATOM     25  C   UNL     1       7.641  12.491  26.137  0.00  0.00    +0.000 A 
ATOM     26  C   UNL     1       7.087  12.203  27.388  0.00  0.00    +0.000 A 
ATOM     27  C   UNL     1       5.940  11.410  27.490  0.00  0.00    +0.000 A 
ATOM     28  C   UNL     1       5.334  10.910  26.340  0.00  0.00    +0.000 A 
ATOM     29  C   UNL     1       5.883  11.194  25.091  0.00  0.00    +0.000 A 
ENDBRANCH  23  24
ENDBRANCH   1  23
TORSDOF 3
ENDMDL
