MODEL 1
REMARK VINA RESULT:      -7.0      0.000      0.000
REMARK  Name = 
REMARK  8 active torsions:
REMARK  status: ('A' for Active; 'I' for Inactive)
REMARK    1  A    between atoms: C_1  and  C_2
REMARK    2  A    between atoms: C_2  and  C_3
REMARK    3  A    between atoms: C_2  and  C_4
REMARK    4  A    between atoms: C_6  and  O_7
REMARK    5  A    between atoms: O_7  and  C_8
REMARK    6  A    between atoms: CA_17  and  C_18
REMARK    7  A    between atoms: C_18  and  OXT_20
REMARK    8  A    between atoms: C_24  and  O_25
REMARK                            x       y       z     vdW  Elec       q    Type
REMARK                         _______ _______ _______ _____ _____    ______ ____
ROOT
ATOM      1  C   UNL     1       1.626   8.349  20.049  0.00  0.00    +0.000 A 
ATOM      2  C   UNL     1       2.057   8.641  18.733  0.00  0.00    +0.000 A 
ATOM      3 BR   UNL     1       3.191   7.516  17.689  0.00  0.00    +0.000 Br
ATOM      4  C   UNL     1       1.543   9.743  18.038  0.00  0.00    +0.000 A 
ATOM      5  C   UNL     1       0.470  10.416  18.578  0.00  0.00    +0.000 A 
ATOM      6  C   UNL     1      -0.055  10.075  19.820  0.00  0.00    +0.000 A 
ATOM      7  C   UNL     1       0.530   9.066  20.577  0.00  0.00    +0.000 A 
ATOM      8 BR   UNL     1      -0.201   8.642  22.279  0.00  0.00    +0.000 Br
ATOM      9  C   UNL     1      -1.227  10.950  20.114  0.00  0.00    +0.000 C 
ATOM     10  CA  UNL     1      -1.462  11.622  18.751  0.00  0.00    +0.000 C 
ATOM     11  N   UNL     1      -0.203  11.490  17.929  0.00  0.00    +0.000 N 
ATOM     12  H   UNL     1       0.379  12.329  18.033  0.00  0.00    +0.000 HD
ENDROOT
BRANCH  10  13
ATOM     13  C   UNL     1      -2.611  10.938  17.983  0.00  0.00    +0.000 C 
ATOM     14  O   UNL     1      -2.819   9.732  17.964  0.00  0.00    +0.000 OA
BRANCH  13  15
ATOM     15  OXT UNL     1      -3.391  11.838  17.327  0.00  0.00    +0.000 OA
ATOM     16  HXT UNL     1      -4.215  11.355  17.066  0.00  0.00    +0.000 HD
ENDBRANCH  13  15
ENDBRANCH  10  13
BRANCH   1  17
ATOM     17  O   UNL     1       2.135   7.347  20.855  0.00  0.00    +0.000 OA
BRANCH  17  20
ATOM     18  C   UNL     1       3.144   4.196  19.171  0.00  0.00    +0.000 A 
ATOM     19  C   UNL     1       3.278   5.419  19.854  0.00  0.00    +0.000 A 
ATOM     20  C   UNL     1       2.158   6.045  20.411  0.00  0.00    +0.000 A 
ATOM     21  C   UNL     1       0.943   5.366  20.478  0.00  0.00    +0.000 A 
ATOM     22  C   UNL     1       0.816   4.108  19.895  0.00  0.00    +0.000 A 
ATOM     23  C   UNL     1       1.902   3.546  19.220  0.00  0.00    +0.000 A 
BRANCH  18  25
ATOM     24  C   UNL     1       4.067   3.889  16.817  0.00  0.00    +0.000 C 
ATOM     25  C   UNL     1       4.309   3.717  18.316  0.00  0.00    +0.000 C 
ATOM     26  C   UNL     1       5.631   4.366  18.746  0.00  0.00    +0.000 C 
ENDBRANCH  18  25
BRANCH  23  27
ATOM     27  O   UNL     1       1.740   2.356  18.571  0.00  0.00    +0.000 OA
ATOM     28  H   UNL     1       2.355   2.319  17.820  0.00  0.00    +0.000 HD
ENDBRANCH  23  27
ENDBRANCH  17  20
ENDBRANCH   1  17
TORSDOF 6
ENDMDL
MODEL 2
REMARK VINA RESULT:      -6.9      2.332      7.370
REMARK  Name = 
REMARK  8 active torsions:
REMARK  status: ('A' for Active; 'I' for Inactive)
REMARK    1  A    between atoms: C_1  and  C_2
REMARK    2  A    between atoms: C_2  and  C_3
REMARK    3  A    between atoms: C_2  and  C_4
REMARK    4  A    between atoms: C_6  and  O_7
REMARK    5  A    between atoms: O_7  and  C_8
REMARK    6  A    between atoms: CA_17  and  C_18
REMARK    7  A    between atoms: C_18  and  OXT_20
REMARK    8  A    between atoms: C_24  and  O_25
REMARK                            x       y       z     vdW  Elec       q    Type
REMARK                         _______ _______ _______ _____ _____    ______ ____
ROOT
ATOM      1  C   UNL     1       1.185   9.429  20.216  0.00  0.00    +0.000 A 
ATOM      2  C   UNL     1       0.828   8.712  21.382  0.00  0.00    +0.000 A 
ATOM      3 BR   UNL     1      -0.440   9.310  22.677  0.00  0.00    +0.000 Br
ATOM      4  C   UNL     1       1.292   7.407  21.592  0.00  0.00    +0.000 A 
ATOM      5  C   UNL     1       1.933   6.765  20.555  0.00  0.00    +0.000 A 
ATOM      6  C   UNL     1       2.192   7.407  19.350  0.00  0.00    +0.000 A 
ATOM      7  C   UNL     1       1.852   8.744  19.178  0.00  0.00    +0.000 A 
ATOM      8 BR   UNL     1       2.243   9.594  17.523  0.00  0.00    +0.000 Br
ATOM      9  C   UNL     1       2.856   6.448  18.418  0.00  0.00    +0.000 C 
ATOM     10  CA  UNL     1       2.668   5.115  19.159  0.00  0.00    +0.000 C 
ATOM     11  N   UNL     1       2.367   5.410  20.608  0.00  0.00    +0.000 N 
ATOM     12  H   UNL     1       3.230   5.382  21.163  0.00  0.00    +0.000 HD
ENDROOT
BRANCH  10  13
ATOM     13  C   UNL     1       1.484   4.316  18.576  0.00  0.00    +0.000 C 
ATOM     14  O   UNL     1       1.165   4.300  17.394  0.00  0.00    +0.000 OA
BRANCH  13  15
ATOM     15  OXT UNL     1       0.828   3.607  19.534  0.00  0.00    +0.000 OA
ATOM     16  HXT UNL     1       0.116   4.200  19.882  0.00  0.00    +0.000 HD
ENDBRANCH  13  15
ENDBRANCH  10  13
BRANCH   1  17
ATOM     17  O   UNL     1       0.862  10.749  19.956  0.00  0.00    +0.000 OA
BRANCH  17  20
ATOM     18  C   UNL     1      -2.570  11.197  18.610  0.00  0.00    +0.000 A 
ATOM     19  C   UNL     1      -1.339  10.570  18.884  0.00  0.00    +0.000 A 
ATOM     20  C   UNL     1      -0.455  11.124  19.814  0.00  0.00    +0.000 A 
ATOM     21  C   UNL     1      -0.869  12.177  20.628  0.00  0.00    +0.000 A 
ATOM     22  C   UNL     1      -2.126  12.747  20.440  0.00  0.00    +0.000 A 
ATOM     23  C   UNL     1      -2.952  12.279  19.416  0.00  0.00    +0.000 A 
BRANCH  18  25
ATOM     24  C   UNL     1      -2.608  11.020  16.070  0.00  0.00    +0.000 C 
ATOM     25  C   UNL     1      -3.347  10.750  17.379  0.00  0.00    +0.000 C 
ATOM     26  C   UNL     1      -3.779   9.282  17.484  0.00  0.00    +0.000 C 
ENDBRANCH  18  25
BRANCH  23  27
ATOM     27  O   UNL     1      -4.141  12.906  19.179  0.00  0.00    +0.000 OA
ATOM     28  H   UNL     1      -4.109  13.798  19.560  0.00  0.00    +0.000 HD
ENDBRANCH  23  27
ENDBRANCH  17  20
ENDBRANCH   1  17
TORSDOF 6
ENDMDL
MODEL 3
REMARK VINA RESULT:      -6.9      3.950      6.150
REMARK  Name = 
REMARK  8 active torsions:
REMARK  status: ('A' for Active; 'I' for Inactive)
REMARK    1  A    between atoms: C_1  and  C_2
REMARK    2  A    between atoms: C_2  and  C_3
REMARK    3  A    between atoms: C_2  and  C_4
REMARK    4  A    between atoms: C_6  and  O_7
REMARK    5  A    between atoms: O_7  and  C_8
REMARK    6  A    between atoms: CA_17  and  C_18
REMARK    7  A    between atoms: C_18  and  OXT_20
REMARK    8  A    between atoms: C_24  and  O_25
REMARK                            x       y       z     vdW  Elec       q    Type
REMARK                         _______ _______ _______ _____ _____    ______ ____
ROOT
ATOM      1  C   UNL     1      -2.619  11.710  18.321  0.00  0.00    +0.000 A 
ATOM      2  C   UNL     1      -3.352  11.077  17.289  0.00  0.00    +0.000 A 
ATOM      3 BR   UNL     1      -2.602   9.887  15.999  0.00  0.00    +0.000 Br
ATOM      4  C   UNL     1      -4.748  11.175  17.237  0.00  0.00    +0.000 A 
ATOM      5  C   UNL     1      -5.407  11.726  18.314  0.00  0.00    +0.000 A 
ATOM      6  C   UNL     1      -4.716  12.250  19.401  0.00  0.00    +0.000 A 
ATOM      7  C   UNL     1      -3.326  12.275  19.404  0.00  0.00    +0.000 A 
ATOM      8 BR   UNL     1      -2.416  13.018  20.898  0.00  0.00    +0.000 Br
ATOM      9  C   UNL     1      -5.696  12.734  20.417  0.00  0.00    +0.000 C 
ATOM     10  CA  UNL     1      -7.012  12.147  19.882  0.00  0.00    +0.000 C 
ATOM     11  N   UNL     1      -6.824  11.798  18.426  0.00  0.00    +0.000 N 
ATOM     12  H   UNL     1      -7.144  12.571  17.831  0.00  0.00    +0.000 HD
ENDROOT
BRANCH  10  13
ATOM     13  C   UNL     1      -7.396  10.859  20.639  0.00  0.00    +0.000 C 
ATOM     14  O   UNL     1      -7.510   9.753  20.124  0.00  0.00    +0.000 OA
BRANCH  13  15
ATOM     15  OXT UNL     1      -7.584  11.085  21.966  0.00  0.00    +0.000 OA
ATOM     16  HXT UNL     1      -7.040  10.410  22.444  0.00  0.00    +0.000 HD
ENDBRANCH  13  15
ENDBRANCH  10  13
BRANCH   1  17
ATOM     17  O   UNL     1      -1.239  11.755  18.412  0.00  0.00    +0.000 OA
BRANCH  17  20
ATOM     18  C   UNL     1       0.303   9.307  20.739  0.00  0.00    +0.000 A 
ATOM     19  C   UNL     1      -0.641  10.219  20.231  0.00  0.00    +0.000 A 
ATOM     20  C   UNL     1      -0.543  10.679  18.915  0.00  0.00    +0.000 A 
ATOM     21  C   UNL     1       0.358  10.084  18.034  0.00  0.00    +0.000 A 
ATOM     22  C   UNL     1       1.235   9.105  18.494  0.00  0.00    +0.000 A 
ATOM     23  C   UNL     1       1.225   8.746  19.843  0.00  0.00    +0.000 A 
BRANCH  18  25
ATOM     24  C   UNL     1       1.733   9.333  22.846  0.00  0.00    +0.000 C 
ATOM     25  C   UNL     1       0.351   9.083  22.244  0.00  0.00    +0.000 C 
ATOM     26  C   UNL     1      -0.730   9.892  22.972  0.00  0.00    +0.000 C 
ENDBRANCH  18  25
BRANCH  23  27
ATOM     27  O   UNL     1       2.152   7.855  20.303  0.00  0.00    +0.000 OA
ATOM     28  H   UNL     1       2.786   7.664  19.593  0.00  0.00    +0.000 HD
ENDBRANCH  23  27
ENDBRANCH  17  20
ENDBRANCH   1  17
TORSDOF 6
ENDMDL
MODEL 4
REMARK VINA RESULT:      -6.8      9.531     11.379
REMARK  Name = 
REMARK  8 active torsions:
REMARK  status: ('A' for Active; 'I' for Inactive)
REMARK    1  A    between atoms: C_1  and  C_2
REMARK    2  A    between atoms: C_2  and  C_3
REMARK    3  A    between atoms: C_2  and  C_4
REMARK    4  A    between atoms: C_6  and  O_7
REMARK    5  A    between atoms: O_7  and  C_8
REMARK    6  A    between atoms: CA_17  and  C_18
REMARK    7  A    between atoms: C_18  and  OXT_20
REMARK    8  A    between atoms: C_24  and  O_25
REMARK                            x       y       z     vdW  Elec       q    Type
REMARK                         _______ _______ _______ _____ _____    ______ ____
ROOT
ATOM      1  C   UNL     1       8.247  15.616  20.302  0.00  0.00    +0.000 A 
ATOM      2  C   UNL     1       6.902  15.223  20.104  0.00  0.00    +0.000 A 
ATOM      3 BR   UNL     1       6.053  15.082  18.400  0.00  0.00    +0.000 Br
ATOM      4  C   UNL     1       6.126  14.758  21.174  0.00  0.00    +0.000 A 
ATOM      5  C   UNL     1       6.751  14.501  22.374  0.00  0.00    +0.000 A 
ATOM      6  C   UNL     1       8.103  14.765  22.562  0.00  0.00    +0.000 A 
ATOM      7  C   UNL     1       8.854  15.348  21.548  0.00  0.00    +0.000 A 
ATOM      8 BR   UNL     1      10.694  15.716  21.851  0.00  0.00    +0.000 Br
ATOM      9  C   UNL     1       8.496  14.347  23.941  0.00  0.00    +0.000 C 
ATOM     10  CA  UNL     1       7.259  13.552  24.388  0.00  0.00    +0.000 C 
ATOM     11  N   UNL     1       6.096  13.938  23.506  0.00  0.00    +0.000 N 
ATOM     12  H   UNL     1       5.546  14.683  23.948  0.00  0.00    +0.000 HD
ENDROOT
BRANCH  10  13
ATOM     13  C   UNL     1       7.489  12.034  24.241  0.00  0.00    +0.000 C 
ATOM     14  O   UNL     1       6.610  11.184  24.306  0.00  0.00    +0.000 OA
BRANCH  13  15
ATOM     15  OXT UNL     1       8.796  11.737  24.012  0.00  0.00    +0.000 OA
ATOM     16  HXT UNL     1       9.326  12.390  24.536  0.00  0.00    +0.000 HD
ENDBRANCH  13  15
ENDBRANCH  10  13
BRANCH   1  17
ATOM     17  O   UNL     1       9.068  16.176  19.340  0.00  0.00    +0.000 OA
BRANCH  17  20
ATOM     18  C   UNL     1      10.673  13.244  17.722  0.00  0.00    +0.000 A 
ATOM     19  C   UNL     1       9.752  13.974  18.497  0.00  0.00    +0.000 A 
ATOM     20  C   UNL     1       9.730  15.371  18.441  0.00  0.00    +0.000 A 
ATOM     21  C   UNL     1      10.469  16.040  17.467  0.00  0.00    +0.000 A 
ATOM     22  C   UNL     1      11.312  15.325  16.621  0.00  0.00    +0.000 A 
ATOM     23  C   UNL     1      11.434  13.942  16.773  0.00  0.00    +0.000 A 
BRANCH  18  25
ATOM     24  C   UNL     1      11.702  11.546  19.317  0.00  0.00    +0.000 C 
ATOM     25  C   UNL     1      10.881  11.772  18.048  0.00  0.00    +0.000 C 
ATOM     26  C   UNL     1       9.551  11.010  18.100  0.00  0.00    +0.000 C 
ENDBRANCH  18  25
BRANCH  23  27
ATOM     27  O   UNL     1      12.333  13.263  16.002  0.00  0.00    +0.000 OA
ATOM     28  H   UNL     1      12.209  13.518  15.073  0.00  0.00    +0.000 HD
ENDBRANCH  23  27
ENDBRANCH  17  20
ENDBRANCH   1  17
TORSDOF 6
ENDMDL
MODEL 5
REMARK VINA RESULT:      -6.8      4.763      9.276
REMARK  Name = 
REMARK  8 active torsions:
REMARK  status: ('A' for Active; 'I' for Inactive)
REMARK    1  A    between atoms: C_1  and  C_2
REMARK    2  A    between atoms: C_2  and  C_3
REMARK    3  A    between atoms: C_2  and  C_4
REMARK    4  A    between atoms: C_6  and  O_7
REMARK    5  A    between atoms: O_7  and  C_8
REMARK    6  A    between atoms: CA_17  and  C_18
REMARK    7  A    between atoms: C_18  and  OXT_20
REMARK    8  A    between atoms: C_24  and  O_25
REMARK                            x       y       z     vdW  Elec       q    Type
REMARK                         _______ _______ _______ _____ _____    ______ ____
ROOT
ATOM      1  C   UNL     1      -0.380  13.024  22.028  0.00  0.00    +0.000 A 
ATOM      2  C   UNL     1      -0.091  13.930  20.981  0.00  0.00    +0.000 A 
ATOM      3 BR   UNL     1       0.568  15.704  21.232  0.00  0.00    +0.000 Br
ATOM      4  C   UNL     1      -0.133  13.517  19.643  0.00  0.00    +0.000 A 
ATOM      5  C   UNL     1      -0.264  12.172  19.376  0.00  0.00    +0.000 A 
ATOM      6  C   UNL     1      -0.430  11.240  20.394  0.00  0.00    +0.000 A 
ATOM      7  C   UNL     1      -0.520  11.654  21.719  0.00  0.00    +0.000 A 
ATOM      8 BR   UNL     1      -0.770  10.353  23.081  0.00  0.00    +0.000 Br
ATOM      9  C   UNL     1      -0.503   9.873  19.800  0.00  0.00    +0.000 C 
ATOM     10  CA  UNL     1      -0.063  10.141  18.352  0.00  0.00    +0.000 C 
ATOM     11  N   UNL     1      -0.226  11.615  18.067  0.00  0.00    +0.000 N 
ATOM     12  H   UNL     1      -1.136  11.793  17.627  0.00  0.00    +0.000 HD
ENDROOT
BRANCH  10  13
ATOM     13  C   UNL     1       1.419   9.773  18.141  0.00  0.00    +0.000 C 
ATOM     14  O   UNL     1       1.954   8.755  18.563  0.00  0.00    +0.000 OA
BRANCH  13  15
ATOM     15  OXT UNL     1       2.078  10.710  17.409  0.00  0.00    +0.000 OA
ATOM     16  HXT UNL     1       2.481  11.339  18.060  0.00  0.00    +0.000 HD
ENDBRANCH  13  15
ENDBRANCH  10  13
BRANCH   1  17
ATOM     17  O   UNL     1      -0.459  13.349  23.370  0.00  0.00    +0.000 OA
BRANCH  17  20
ATOM     18  C   UNL     1      -3.990  14.366  23.903  0.00  0.00    +0.000 A 
ATOM     19  C   UNL     1      -2.897  13.539  23.584  0.00  0.00    +0.000 A 
ATOM     20  C   UNL     1      -1.592  13.948  23.873  0.00  0.00    +0.000 A 
ATOM     21  C   UNL     1      -1.374  15.074  24.664  0.00  0.00    +0.000 A 
ATOM     22  C   UNL     1      -2.453  15.852  25.076  0.00  0.00    +0.000 A 
ATOM     23  C   UNL     1      -3.745  15.515  24.669  0.00  0.00    +0.000 A 
BRANCH  18  25
ATOM     24  C   UNL     1      -5.289  13.841  21.777  0.00  0.00    +0.000 C 
ATOM     25  C   UNL     1      -5.345  14.037  23.291  0.00  0.00    +0.000 C 
ATOM     26  C   UNL     1      -6.004  12.839  23.986  0.00  0.00    +0.000 C 
ENDBRANCH  18  25
BRANCH  23  27
ATOM     27  O   UNL     1      -4.785  16.337  24.998  0.00  0.00    +0.000 OA
ATOM     28  H   UNL     1      -4.966  16.931  24.253  0.00  0.00    +0.000 HD
ENDBRANCH  23  27
ENDBRANCH  17  20
ENDBRANCH   1  17
TORSDOF 6
ENDMDL
MODEL 6
REMARK VINA RESULT:      -6.8      2.171      7.591
REMARK  Name = 
REMARK  8 active torsions:
REMARK  status: ('A' for Active; 'I' for Inactive)
REMARK    1  A    between atoms: C_1  and  C_2
REMARK    2  A    between atoms: C_2  and  C_3
REMARK    3  A    between atoms: C_2  and  C_4
REMARK    4  A    between atoms: C_6  and  O_7
REMARK    5  A    between atoms: O_7  and  C_8
REMARK    6  A    between atoms: CA_17  and  C_18
REMARK    7  A    between atoms: C_18  and  OXT_20
REMARK    8  A    between atoms: C_24  and  O_25
REMARK                            x       y       z     vdW  Elec       q    Type
REMARK                         _______ _______ _______ _____ _____    ______ ____
ROOT
ATOM      1  C   UNL     1       1.470   8.876  19.903  0.00  0.00    +0.000 A 
ATOM      2  C   UNL     1       0.892   8.372  21.092  0.00  0.00    +0.000 A 
ATOM      3 BR   UNL     1      -0.423   9.285  22.130  0.00  0.00    +0.000 Br
ATOM      4  C   UNL     1       1.152   7.062  21.516  0.00  0.00    +0.000 A 
ATOM      5  C   UNL     1       1.815   6.214  20.656  0.00  0.00    +0.000 A 
ATOM      6  C   UNL     1       2.291   6.651  19.426  0.00  0.00    +0.000 A 
ATOM      7  C   UNL     1       2.153   7.982  19.050  0.00  0.00    +0.000 A 
ATOM      8 BR   UNL     1       2.837   8.548  17.370  0.00  0.00    +0.000 Br
ATOM      9  C   UNL     1       2.923   5.503  18.710  0.00  0.00    +0.000 C 
ATOM     10  CA  UNL     1       2.477   4.315  19.576  0.00  0.00    +0.000 C 
ATOM     11  N   UNL     1       2.056   4.838  20.929  0.00  0.00    +0.000 N 
ATOM     12  H   UNL     1       2.840   4.785  21.589  0.00  0.00    +0.000 HD
ENDROOT
BRANCH  10  13
ATOM     13  C   UNL     1       1.271   3.588  18.947  0.00  0.00    +0.000 C 
ATOM     14  O   UNL     1       1.085   3.454  17.744  0.00  0.00    +0.000 OA
BRANCH  13  15
ATOM     15  OXT UNL     1       0.427   3.091  19.891  0.00  0.00    +0.000 OA
ATOM     16  HXT UNL     1       0.677   2.140  20.014  0.00  0.00    +0.000 HD
ENDBRANCH  13  15
ENDBRANCH  10  13
BRANCH   1  17
ATOM     17  O   UNL     1       1.356  10.177  19.446  0.00  0.00    +0.000 OA
BRANCH  17  20
ATOM     18  C   UNL     1      -1.827  12.089  19.470  0.00  0.00    +0.000 A 
ATOM     19  C   UNL     1      -0.463  11.808  19.679  0.00  0.00    +0.000 A 
ATOM     20  C   UNL     1       0.125  10.682  19.095  0.00  0.00    +0.000 A 
ATOM     21  C   UNL     1      -0.573   9.950  18.137  0.00  0.00    +0.000 A 
ATOM     22  C   UNL     1      -1.895  10.275  17.841  0.00  0.00    +0.000 A 
ATOM     23  C   UNL     1      -2.522  11.316  18.529  0.00  0.00    +0.000 A 
BRANCH  18  25
ATOM     24  C   UNL     1      -2.871  12.571  21.742  0.00  0.00    +0.000 C 
ATOM     25  C   UNL     1      -2.495  13.122  20.368  0.00  0.00    +0.000 C 
ATOM     26  C   UNL     1      -1.651  14.398  20.488  0.00  0.00    +0.000 C 
ENDBRANCH  18  25
BRANCH  23  27
ATOM     27  O   UNL     1      -3.844  11.566  18.300  0.00  0.00    +0.000 OA
ATOM     28  H   UNL     1      -4.358  11.282  19.073  0.00  0.00    +0.000 HD
ENDBRANCH  23  27
ENDBRANCH  17  20
ENDBRANCH   1  17
TORSDOF 6
ENDMDL
MODEL 7
REMARK VINA RESULT:      -6.7      2.186      7.398
REMARK  Name = 
REMARK  8 active torsions:
REMARK  status: ('A' for Active; 'I' for Inactive)
REMARK    1  A    between atoms: C_1  and  C_2
REMARK    2  A    between atoms: C_2  and  C_3
REMARK    3  A    between atoms: C_2  and  C_4
REMARK    4  A    between atoms: C_6  and  O_7
REMARK    5  A    between atoms: O_7  and  C_8
REMARK    6  A    between atoms: CA_17  and  C_18
REMARK    7  A    between atoms: C_18  and  OXT_20
REMARK    8  A    between atoms: C_24  and  O_25
REMARK                            x       y       z     vdW  Elec       q    Type
REMARK                         _______ _______ _______ _____ _____    ______ ____
ROOT
ATOM      1  C   UNL     1       2.011   8.092  19.546  0.00  0.00    +0.000 A 
ATOM      2  C   UNL     1       1.326   7.606  20.684  0.00  0.00    +0.000 A 
ATOM      3 BR   UNL     1      -0.015   8.574  21.638  0.00  0.00    +0.000 Br
ATOM      4  C   UNL     1       1.490   6.281  21.108  0.00  0.00    +0.000 A 
ATOM      5  C   UNL     1       2.170   5.410  20.287  0.00  0.00    +0.000 A 
ATOM      6  C   UNL     1       2.755   5.834  19.099  0.00  0.00    +0.000 A 
ATOM      7  C   UNL     1       2.708   7.174  18.732  0.00  0.00    +0.000 A 
ATOM      8 BR   UNL     1       3.538   7.720  17.111  0.00  0.00    +0.000 Br
ATOM      9  C   UNL     1       3.379   4.663  18.415  0.00  0.00    +0.000 C 
ATOM     10  CA  UNL     1       2.814   3.490  19.232  0.00  0.00    +0.000 C 
ATOM     11  N   UNL     1       2.325   4.020  20.558  0.00  0.00    +0.000 N 
ATOM     12  H   UNL     1       3.055   3.922  21.272  0.00  0.00    +0.000 HD
ENDROOT
BRANCH  10  13
ATOM     13  C   UNL     1       1.622   2.830  18.510  0.00  0.00    +0.000 C 
ATOM     14  O   UNL     1       0.895   3.394  17.702  0.00  0.00    +0.000 OA
BRANCH  13  15
ATOM     15  OXT UNL     1       1.473   1.525  18.862  0.00  0.00    +0.000 OA
ATOM     16  HXT UNL     1       0.498   1.366  18.938  0.00  0.00    +0.000 HD
ENDBRANCH  13  15
ENDBRANCH  10  13
BRANCH   1  17
ATOM     17  O   UNL     1       1.994   9.401  19.098  0.00  0.00    +0.000 OA
BRANCH  17  20
ATOM     18  C   UNL     1      -1.393  10.336  17.895  0.00  0.00    +0.000 A 
ATOM     19  C   UNL     1      -0.319   9.512  18.281  0.00  0.00    +0.000 A 
ATOM     20  C   UNL     1       0.797  10.058  18.924  0.00  0.00    +0.000 A 
ATOM     21  C   UNL     1       0.764  11.376  19.376  0.00  0.00    +0.000 A 
ATOM     22  C   UNL     1      -0.336  12.181  19.091  0.00  0.00    +0.000 A 
ATOM     23  C   UNL     1      -1.388  11.670  18.329  0.00  0.00    +0.000 A 
BRANCH  18  25
ATOM     24  C   UNL     1      -3.791   9.546  17.569  0.00  0.00    +0.000 C 
ATOM     25  C   UNL     1      -2.423   9.770  16.928  0.00  0.00    +0.000 C 
ATOM     26  C   UNL     1      -2.534  10.622  15.657  0.00  0.00    +0.000 C 
ENDBRANCH  18  25
BRANCH  23  27
ATOM     27  O   UNL     1      -2.417  12.495  17.976  0.00  0.00    +0.000 OA
ATOM     28  H   UNL     1      -3.090  11.977  17.504  0.00  0.00    +0.000 HD
ENDBRANCH  23  27
ENDBRANCH  17  20
ENDBRANCH   1  17
TORSDOF 6
ENDMDL
MODEL 8
REMARK VINA RESULT:      -6.7      2.955      4.844
REMARK  Name = 
REMARK  8 active torsions:
REMARK  status: ('A' for Active; 'I' for Inactive)
REMARK    1  A    between atoms: C_1  and  C_2
REMARK    2  A    between atoms: C_2  and  C_3
REMARK    3  A    between atoms: C_2  and  C_4
REMARK    4  A    between atoms: C_6  and  O_7
REMARK    5  A    between atoms: O_7  and  C_8
REMARK    6  A    between atoms: CA_17  and  C_18
REMARK    7  A    between atoms: C_18  and  OXT_20
REMARK    8  A    between atoms: C_24  and  O_25
REMARK                            x       y       z     vdW  Elec       q    Type
REMARK                         _______ _______ _______ _____ _____    ______ ____
ROOT
ATOM      1  C   UNL     1      -1.378  11.491  18.881  0.00  0.00    +0.000 A 
ATOM      2  C   UNL     1      -1.527  12.458  19.902  0.00  0.00    +0.000 A 
ATOM      3 BR   UNL     1      -0.106  13.522  20.603  0.00  0.00    +0.000 Br
ATOM      4  C   UNL     1      -2.797  12.811  20.375  0.00  0.00    +0.000 A 
ATOM      5  C   UNL     1      -3.902  12.349  19.695  0.00  0.00    +0.000 A 
ATOM      6  C   UNL     1      -3.782  11.489  18.610  0.00  0.00    +0.000 A 
ATOM      7  C   UNL     1      -2.532  11.030  18.211  0.00  0.00    +0.000 A 
ATOM      8 BR   UNL     1      -2.409   9.837  16.736  0.00  0.00    +0.000 Br
ATOM      9  C   UNL     1      -5.141  11.199  18.062  0.00  0.00    +0.000 C 
ATOM     10  CA  UNL     1      -6.000  12.237  18.801  0.00  0.00    +0.000 C 
ATOM     11  N   UNL     1      -5.241  12.710  20.017  0.00  0.00    +0.000 N 
ATOM     12  H   UNL     1      -5.519  12.167  20.843  0.00  0.00    +0.000 HD
ENDROOT
BRANCH  10  13
ATOM     13  C   UNL     1      -6.286  13.462  17.908  0.00  0.00    +0.000 C 
ATOM     14  O   UNL     1      -6.663  13.406  16.745  0.00  0.00    +0.000 OA
BRANCH  13  15
ATOM     15  OXT UNL     1      -6.084  14.632  18.570  0.00  0.00    +0.000 OA
ATOM     16  HXT UNL     1      -6.532  15.336  18.036  0.00  0.00    +0.000 HD
ENDBRANCH  13  15
ENDBRANCH  10  13
BRANCH   1  17
ATOM     17  O   UNL     1      -0.173  11.003  18.408  0.00  0.00    +0.000 OA
BRANCH  17  20
ATOM     18  C   UNL     1       1.967   8.093  19.266  0.00  0.00    +0.000 A 
ATOM     19  C   UNL     1       1.524   9.238  18.578  0.00  0.00    +0.000 A 
ATOM     20  C   UNL     1       0.507  10.036  19.111  0.00  0.00    +0.000 A 
ATOM     21  C   UNL     1       0.072   9.827  20.418  0.00  0.00    +0.000 A 
ATOM     22  C   UNL     1       0.573   8.757  21.155  0.00  0.00    +0.000 A 
ATOM     23  C   UNL     1       1.488   7.881  20.567  0.00  0.00    +0.000 A 
BRANCH  18  25
ATOM     24  C   UNL     1       2.060   5.850  18.064  0.00  0.00    +0.000 C 
ATOM     25  C   UNL     1       2.831   7.089  18.515  0.00  0.00    +0.000 C 
ATOM     26  C   UNL     1       3.570   7.745  17.341  0.00  0.00    +0.000 C 
ENDBRANCH  18  25
BRANCH  23  27
ATOM     27  O   UNL     1       1.901   6.782  21.264  0.00  0.00    +0.000 OA
ATOM     28  H   UNL     1       1.568   6.841  22.174  0.00  0.00    +0.000 HD
ENDBRANCH  23  27
ENDBRANCH  17  20
ENDBRANCH   1  17
TORSDOF 6
ENDMDL
MODEL 9
REMARK VINA RESULT:      -6.7      0.952      1.131
REMARK  Name = 
REMARK  8 active torsions:
REMARK  status: ('A' for Active; 'I' for Inactive)
REMARK    1  A    between atoms: C_1  and  C_2
REMARK    2  A    between atoms: C_2  and  C_3
REMARK    3  A    between atoms: C_2  and  C_4
REMARK    4  A    between atoms: C_6  and  O_7
REMARK    5  A    between atoms: O_7  and  C_8
REMARK    6  A    between atoms: CA_17  and  C_18
REMARK    7  A    between atoms: C_18  and  OXT_20
REMARK    8  A    between atoms: C_24  and  O_25
REMARK                            x       y       z     vdW  Elec       q    Type
REMARK                         _______ _______ _______ _____ _____    ______ ____
ROOT
ATOM      1  C   UNL     1       2.115   7.849  19.678  0.00  0.00    +0.000 A 
ATOM      2  C   UNL     1       2.531   8.211  18.375  0.00  0.00    +0.000 A 
ATOM      3 BR   UNL     1       3.618   7.125  17.243  0.00  0.00    +0.000 Br
ATOM      4  C   UNL     1       2.034   9.366  17.759  0.00  0.00    +0.000 A 
ATOM      5  C   UNL     1       0.988  10.031  18.359  0.00  0.00    +0.000 A 
ATOM      6  C   UNL     1       0.476   9.626  19.586  0.00  0.00    +0.000 A 
ATOM      7  C   UNL     1       1.047   8.558  20.269  0.00  0.00    +0.000 A 
ATOM      8 BR   UNL     1       0.334   8.047  21.955  0.00  0.00    +0.000 Br
ATOM      9  C   UNL     1      -0.669  10.510  19.956  0.00  0.00    +0.000 C 
ATOM     10  CA  UNL     1      -0.909  11.271  18.641  0.00  0.00    +0.000 C 
ATOM     11  N   UNL     1       0.332  11.159  17.789  0.00  0.00    +0.000 N 
ATOM     12  H   UNL     1       0.937  11.975  17.934  0.00  0.00    +0.000 HD
ENDROOT
BRANCH  10  13
ATOM     13  C   UNL     1      -2.088  10.664  17.853  0.00  0.00    +0.000 C 
ATOM     14  O   UNL     1      -3.185  10.400  18.329  0.00  0.00    +0.000 OA
BRANCH  13  15
ATOM     15  OXT UNL     1      -1.776  10.465  16.545  0.00  0.00    +0.000 OA
ATOM     16  HXT UNL     1      -2.146   9.578  16.302  0.00  0.00    +0.000 HD
ENDBRANCH  13  15
ENDBRANCH  10  13
BRANCH   1  17
ATOM     17  O   UNL     1       2.611   6.786  20.412  0.00  0.00    +0.000 OA
BRANCH  17  20
ATOM     18  C   UNL     1       2.575   3.470  18.741  0.00  0.00    +0.000 A 
ATOM     19  C   UNL     1       3.095   4.660  19.284  0.00  0.00    +0.000 A 
ATOM     20  C   UNL     1       2.289   5.494  20.065  0.00  0.00    +0.000 A 
ATOM     21  C   UNL     1       1.036   5.054  20.486  0.00  0.00    +0.000 A 
ATOM     22  C   UNL     1       0.543   3.831  20.040  0.00  0.00    +0.000 A 
ATOM     23  C   UNL     1       1.296   3.064  19.149  0.00  0.00    +0.000 A 
BRANCH  18  25
ATOM     24  C   UNL     1       4.497   3.628  17.078  0.00  0.00    +0.000 C 
ATOM     25  C   UNL     1       3.372   2.768  17.650  0.00  0.00    +0.000 C 
ATOM     26  C   UNL     1       3.895   1.404  18.120  0.00  0.00    +0.000 C 
ENDBRANCH  18  25
BRANCH  23  27
ATOM     27  O   UNL     1       0.764   1.912  18.644  0.00  0.00    +0.000 OA
ATOM     28  H   UNL     1       1.480   1.367  18.280  0.00  0.00    +0.000 HD
ENDBRANCH  23  27
ENDBRANCH  17  20
ENDBRANCH   1  17
TORSDOF 6
ENDMDL
