MODEL 1
REMARK VINA RESULT:      -8.4      0.000      0.000
REMARK  Name = 
REMARK  3 active torsions:
REMARK  status: ('A' for Active; 'I' for Inactive)
REMARK    1  A    between atoms: N_3  and  C_4
REMARK    2  A    between atoms: C_8  and  C_9
REMARK    3  A    between atoms: N_19  and  C_20
REMARK                            x       y       z     vdW  Elec       q    Type
REMARK                         _______ _______ _______ _____ _____    ______ ____
ROOT
ATOM      1  C   UNL     1       7.424   6.510  17.702  0.00  0.00    +0.000 A 
ATOM      2  C   UNL     1       7.502   6.365  16.316  0.00  0.00    +0.000 A 
ATOM      3  C   UNL     1       6.637   5.508  15.640  0.00  0.00    +0.000 A 
ATOM      4  C   UNL     1       5.667   4.798  16.346  0.00  0.00    +0.000 A 
ATOM      5  C   UNL     1       5.547   4.932  17.735  0.00  0.00    +0.000 A 
ATOM      6  C   UNL     1       6.455   5.770  18.409  0.00  0.00    +0.000 A 
ENDROOT
BRANCH   5   7
ATOM      7  C   UNL     1       4.407   4.308  18.416  0.00  0.00    +0.000 A 
ATOM      8  C   UNL     1       3.119   4.112  17.939  0.00  0.00    +0.000 A 
ATOM      9  C   UNL     1       2.314   3.605  18.987  0.00  0.00    +0.000 A 
ATOM     10  C   UNL     1       0.947   3.282  19.092  0.00  0.00    +0.000 A 
ATOM     11  C   UNL     1       0.441   2.852  20.321  0.00  0.00    +0.000 A 
ATOM     12  C   UNL     1       1.280   2.732  21.427  0.00  0.00    +0.000 A 
ATOM     13  C   UNL     1       2.648   3.023  21.337  0.00  0.00    +0.000 A 
ATOM     14  C   UNL     1       3.136   3.463  20.100  0.00  0.00    +0.000 A 
ATOM     15  N   UNL     1       4.408   3.838  19.712  0.00  0.00    +0.000 N 
ATOM     16  H   UNL     1       5.217   3.800  20.314  0.00  0.00    +0.000 HD
ENDBRANCH   5   7
BRANCH   1  19
ATOM     17  O   UNL     1       7.606   9.489  17.603  0.00  0.00    +0.000 OA
ATOM     18  C   UNL     1       8.258   8.785  18.362  0.00  0.00    +0.000 C 
ATOM     19  N   UNL     1       8.241   7.404  18.436  0.00  0.00    +0.000 N 
ATOM     20  N   UNL     1       9.109   9.321  19.308  0.00  0.00    +0.000 N 
ATOM     21  H   UNL     1       8.804   6.993  19.161  0.00  0.00    +0.000 HD
ATOM     22  H   UNL     1       9.818   8.715  19.691  0.00  0.00    +0.000 HD
BRANCH  20  23
ATOM     23  C   UNL     1       9.347  10.751  19.389  0.00  0.00    +0.000 C 
ATOM     24  C   UNL     1       9.458  11.227  20.834  0.00  0.00    +0.000 C 
ATOM     25  C   UNL     1      10.172  12.564  20.727  0.00  0.00    +0.000 C 
ATOM     26  C   UNL     1      11.078  12.454  19.502  0.00  0.00    +0.000 C 
ATOM     27  C   UNL     1      10.690  11.162  18.786  0.00  0.00    +0.000 C 
ENDBRANCH  20  23
ENDBRANCH   1  19
TORSDOF 3
ENDMDL
MODEL 2
REMARK VINA RESULT:      -8.2      0.912      1.235
REMARK  Name = 
REMARK  3 active torsions:
REMARK  status: ('A' for Active; 'I' for Inactive)
REMARK    1  A    between atoms: N_3  and  C_4
REMARK    2  A    between atoms: C_8  and  C_9
REMARK    3  A    between atoms: N_19  and  C_20
REMARK                            x       y       z     vdW  Elec       q    Type
REMARK                         _______ _______ _______ _____ _____    ______ ____
ROOT
ATOM      1  C   UNL     1       6.780   6.609  16.788  0.00  0.00    +0.000 A 
ATOM      2  C   UNL     1       7.059   5.975  15.575  0.00  0.00    +0.000 A 
ATOM      3  C   UNL     1       6.486   4.743  15.269  0.00  0.00    +0.000 A 
ATOM      4  C   UNL     1       5.610   4.138  16.169  0.00  0.00    +0.000 A 
ATOM      5  C   UNL     1       5.293   4.754  17.386  0.00  0.00    +0.000 A 
ATOM      6  C   UNL     1       5.911   5.978  17.700  0.00  0.00    +0.000 A 
ENDROOT
BRANCH   5   7
ATOM      7  C   UNL     1       4.236   4.175  18.224  0.00  0.00    +0.000 A 
ATOM      8  C   UNL     1       2.864   4.208  18.026  0.00  0.00    +0.000 A 
ATOM      9  C   UNL     1       2.223   3.648  19.158  0.00  0.00    +0.000 A 
ATOM     10  C   UNL     1       0.875   3.478  19.525  0.00  0.00    +0.000 A 
ATOM     11  C   UNL     1       0.572   2.931  20.775  0.00  0.00    +0.000 A 
ATOM     12  C   UNL     1       1.592   2.547  21.643  0.00  0.00    +0.000 A 
ATOM     13  C   UNL     1       2.941   2.683  21.286  0.00  0.00    +0.000 A 
ATOM     14  C   UNL     1       3.226   3.243  20.034  0.00  0.00    +0.000 A 
ATOM     15  N   UNL     1       4.432   3.518  19.420  0.00  0.00    +0.000 N 
ATOM     16  H   UNL     1       5.333   3.294  19.817  0.00  0.00    +0.000 HD
ENDBRANCH   5   7
BRANCH   1  19
ATOM     17  O   UNL     1       8.713   7.406  18.920  0.00  0.00    +0.000 OA
ATOM     18  C   UNL     1       8.212   8.185  18.119  0.00  0.00    +0.000 C 
ATOM     19  N   UNL     1       7.291   7.884  17.132  0.00  0.00    +0.000 N 
ATOM     20  N   UNL     1       8.553   9.523  18.088  0.00  0.00    +0.000 N 
ATOM     21  H   UNL     1       7.029   8.643  16.527  0.00  0.00    +0.000 HD
ATOM     22  H   UNL     1       7.916  10.152  17.626  0.00  0.00    +0.000 HD
BRANCH  20  23
ATOM     23  C   UNL     1       9.456  10.097  19.069  0.00  0.00    +0.000 C 
ATOM     24  C   UNL     1      10.331  11.190  18.462  0.00  0.00    +0.000 C 
ATOM     25  C   UNL     1      10.818  11.981  19.665  0.00  0.00    +0.000 C 
ATOM     26  C   UNL     1       9.709  11.872  20.710  0.00  0.00    +0.000 C 
ATOM     27  C   UNL     1       8.723  10.825  20.194  0.00  0.00    +0.000 C 
ENDBRANCH  20  23
ENDBRANCH   1  19
TORSDOF 3
ENDMDL
MODEL 3
REMARK VINA RESULT:      -8.0      5.142      7.663
REMARK  Name = 
REMARK  3 active torsions:
REMARK  status: ('A' for Active; 'I' for Inactive)
REMARK    1  A    between atoms: N_3  and  C_4
REMARK    2  A    between atoms: C_8  and  C_9
REMARK    3  A    between atoms: N_19  and  C_20
REMARK                            x       y       z     vdW  Elec       q    Type
REMARK                         _______ _______ _______ _____ _____    ______ ____
ROOT
ATOM      1  C   UNL     1       3.415   5.625  18.268  0.00  0.00    +0.000 A 
ATOM      2  C   UNL     1       3.054   4.409  18.850  0.00  0.00    +0.000 A 
ATOM      3  C   UNL     1       2.262   4.376  19.995  0.00  0.00    +0.000 A 
ATOM      4  C   UNL     1       1.804   5.564  20.561  0.00  0.00    +0.000 A 
ATOM      5  C   UNL     1       2.130   6.802  19.993  0.00  0.00    +0.000 A 
ATOM      6  C   UNL     1       2.965   6.822  18.861  0.00  0.00    +0.000 A 
ENDROOT
BRANCH   5   7
ATOM      7  C   UNL     1       1.487   8.015  20.510  0.00  0.00    +0.000 A 
ATOM      8  C   UNL     1       1.027   8.267  21.794  0.00  0.00    +0.000 A 
ATOM      9  C   UNL     1       0.348   9.510  21.803  0.00  0.00    +0.000 A 
ATOM     10  C   UNL     1      -0.355  10.226  22.791  0.00  0.00    +0.000 A 
ATOM     11  C   UNL     1      -0.978  11.428  22.448  0.00  0.00    +0.000 A 
ATOM     12  C   UNL     1      -0.897  11.919  21.147  0.00  0.00    +0.000 A 
ATOM     13  C   UNL     1      -0.181  11.236  20.155  0.00  0.00    +0.000 A 
ATOM     14  C   UNL     1       0.430  10.028  20.514  0.00  0.00    +0.000 A 
ATOM     15  N   UNL     1       1.173   9.134  19.767  0.00  0.00    +0.000 N 
ATOM     16  H   UNL     1       1.421   9.275  18.799  0.00  0.00    +0.000 HD
ENDBRANCH   5   7
BRANCH   1  19
ATOM     17  O   UNL     1       4.784   3.503  16.674  0.00  0.00    +0.000 OA
ATOM     18  C   UNL     1       4.763   4.688  16.367  0.00  0.00    +0.000 C 
ATOM     19  N   UNL     1       4.174   5.720  17.076  0.00  0.00    +0.000 N 
ATOM     20  N   UNL     1       5.329   5.152  15.196  0.00  0.00    +0.000 N 
ATOM     21  H   UNL     1       4.207   6.628  16.644  0.00  0.00    +0.000 HD
ATOM     22  H   UNL     1       5.537   6.136  15.139  0.00  0.00    +0.000 HD
BRANCH  20  23
ATOM     23  C   UNL     1       6.063   4.268  14.309  0.00  0.00    +0.000 C 
ATOM     24  C   UNL     1       5.183   3.737  13.182  0.00  0.00    +0.000 C 
ATOM     25  C   UNL     1       6.176   3.272  12.128  0.00  0.00    +0.000 C 
ATOM     26  C   UNL     1       7.394   4.182  12.276  0.00  0.00    +0.000 C 
ATOM     27  C   UNL     1       7.189   4.982  13.561  0.00  0.00    +0.000 C 
ENDBRANCH  20  23
ENDBRANCH   1  19
TORSDOF 3
ENDMDL
MODEL 4
REMARK VINA RESULT:      -7.9      0.731      1.184
REMARK  Name = 
REMARK  3 active torsions:
REMARK  status: ('A' for Active; 'I' for Inactive)
REMARK    1  A    between atoms: N_3  and  C_4
REMARK    2  A    between atoms: C_8  and  C_9
REMARK    3  A    between atoms: N_19  and  C_20
REMARK                            x       y       z     vdW  Elec       q    Type
REMARK                         _______ _______ _______ _____ _____    ______ ____
ROOT
ATOM      1  C   UNL     1       7.411   6.665  17.584  0.00  0.00    +0.000 A 
ATOM      2  C   UNL     1       7.530   6.423  16.215  0.00  0.00    +0.000 A 
ATOM      3  C   UNL     1       6.632   5.583  15.561  0.00  0.00    +0.000 A 
ATOM      4  C   UNL     1       5.589   4.990  16.270  0.00  0.00    +0.000 A 
ATOM      5  C   UNL     1       5.428   5.226  17.641  0.00  0.00    +0.000 A 
ATOM      6  C   UNL     1       6.367   6.043  18.297  0.00  0.00    +0.000 A 
ENDROOT
BRANCH   5   7
ATOM      7  C   UNL     1       4.221   4.729  18.313  0.00  0.00    +0.000 A 
ATOM      8  C   UNL     1       3.848   4.881  19.640  0.00  0.00    +0.000 A 
ATOM      9  C   UNL     1       2.682   4.115  19.880  0.00  0.00    +0.000 A 
ATOM     10  C   UNL     1       1.911   3.853  21.029  0.00  0.00    +0.000 A 
ATOM     11  C   UNL     1       0.825   2.979  20.937  0.00  0.00    +0.000 A 
ATOM     12  C   UNL     1       0.501   2.381  19.721  0.00  0.00    +0.000 A 
ATOM     13  C   UNL     1       1.239   2.648  18.560  0.00  0.00    +0.000 A 
ATOM     14  C   UNL     1       2.330   3.519  18.672  0.00  0.00    +0.000 A 
ATOM     15  N   UNL     1       3.241   3.953  17.729  0.00  0.00    +0.000 N 
ATOM     16  H   UNL     1       3.205   3.705  16.752  0.00  0.00    +0.000 HD
ENDBRANCH   5   7
BRANCH   1  19
ATOM     17  O   UNL     1       7.564   9.648  17.549  0.00  0.00    +0.000 OA
ATOM     18  C   UNL     1       8.264   8.931  18.252  0.00  0.00    +0.000 C 
ATOM     19  N   UNL     1       8.262   7.549  18.293  0.00  0.00    +0.000 N 
ATOM     20  N   UNL     1       9.164   9.452  19.161  0.00  0.00    +0.000 N 
ATOM     21  H   UNL     1       8.869   7.126  18.974  0.00  0.00    +0.000 HD
ATOM     22  H   UNL     1       9.898   8.844  19.487  0.00  0.00    +0.000 HD
BRANCH  20  23
ATOM     23  C   UNL     1       9.395  10.882  19.263  0.00  0.00    +0.000 C 
ATOM     24  C   UNL     1       9.804  11.290  20.675  0.00  0.00    +0.000 C 
ATOM     25  C   UNL     1      10.462  12.648  20.488  0.00  0.00    +0.000 C 
ATOM     26  C   UNL     1      11.088  12.619  19.095  0.00  0.00    +0.000 C 
ATOM     27  C   UNL     1      10.572  11.353  18.411  0.00  0.00    +0.000 C 
ENDBRANCH  20  23
ENDBRANCH   1  19
TORSDOF 3
ENDMDL
MODEL 5
REMARK VINA RESULT:      -7.9      1.118      1.296
REMARK  Name = 
REMARK  3 active torsions:
REMARK  status: ('A' for Active; 'I' for Inactive)
REMARK    1  A    between atoms: N_3  and  C_4
REMARK    2  A    between atoms: C_8  and  C_9
REMARK    3  A    between atoms: N_19  and  C_20
REMARK                            x       y       z     vdW  Elec       q    Type
REMARK                         _______ _______ _______ _____ _____    ______ ____
ROOT
ATOM      1  C   UNL     1       7.084   5.817  16.345  0.00  0.00    +0.000 A 
ATOM      2  C   UNL     1       7.050   5.303  15.048  0.00  0.00    +0.000 A 
ATOM      3  C   UNL     1       6.188   4.259  14.719  0.00  0.00    +0.000 A 
ATOM      4  C   UNL     1       5.335   3.729  15.686  0.00  0.00    +0.000 A 
ATOM      5  C   UNL     1       5.329   4.233  16.992  0.00  0.00    +0.000 A 
ATOM      6  C   UNL     1       6.234   5.259  17.320  0.00  0.00    +0.000 A 
ENDROOT
BRANCH   5   7
ATOM      7  C   UNL     1       4.298   3.772  17.929  0.00  0.00    +0.000 A 
ATOM      8  C   UNL     1       2.919   3.852  17.802  0.00  0.00    +0.000 A 
ATOM      9  C   UNL     1       2.321   3.415  19.009  0.00  0.00    +0.000 A 
ATOM     10  C   UNL     1       0.989   3.337  19.460  0.00  0.00    +0.000 A 
ATOM     11  C   UNL     1       0.735   2.906  20.764  0.00  0.00    +0.000 A 
ATOM     12  C   UNL     1       1.786   2.547  21.606  0.00  0.00    +0.000 A 
ATOM     13  C   UNL     1       3.116   2.592  21.169  0.00  0.00    +0.000 A 
ATOM     14  C   UNL     1       3.354   3.036  19.861  0.00  0.00    +0.000 A 
ATOM     15  N   UNL     1       4.534   3.205  19.164  0.00  0.00    +0.000 N 
ATOM     16  H   UNL     1       5.445   2.972  19.531  0.00  0.00    +0.000 HD
ENDBRANCH   5   7
BRANCH   1  19
ATOM     17  O   UNL     1       6.412   8.297  17.868  0.00  0.00    +0.000 OA
ATOM     18  C   UNL     1       7.533   8.023  17.459  0.00  0.00    +0.000 C 
ATOM     19  N   UNL     1       7.901   6.910  16.725  0.00  0.00    +0.000 N 
ATOM     20  N   UNL     1       8.625   8.824  17.727  0.00  0.00    +0.000 N 
ATOM     21  H   UNL     1       8.882   6.821  16.521  0.00  0.00    +0.000 HD
ATOM     22  H   UNL     1       9.436   8.715  17.138  0.00  0.00    +0.000 HD
BRANCH  20  23
ATOM     23  C   UNL     1       8.485  10.086  18.430  0.00  0.00    +0.000 C 
ATOM     24  C   UNL     1       9.310  10.115  19.713  0.00  0.00    +0.000 C 
ATOM     25  C   UNL     1       9.442  11.595  20.032  0.00  0.00    +0.000 C 
ATOM     26  C   UNL     1       9.426  12.313  18.684  0.00  0.00    +0.000 C 
ATOM     27  C   UNL     1       9.036  11.270  17.638  0.00  0.00    +0.000 C 
ENDBRANCH  20  23
ENDBRANCH   1  19
TORSDOF 3
ENDMDL
MODEL 6
REMARK VINA RESULT:      -7.9      4.999      7.015
REMARK  Name = 
REMARK  3 active torsions:
REMARK  status: ('A' for Active; 'I' for Inactive)
REMARK    1  A    between atoms: N_3  and  C_4
REMARK    2  A    between atoms: C_8  and  C_9
REMARK    3  A    between atoms: N_19  and  C_20
REMARK                            x       y       z     vdW  Elec       q    Type
REMARK                         _______ _______ _______ _____ _____    ______ ____
ROOT
ATOM      1  C   UNL     1       3.973   3.704  18.571  0.00  0.00    +0.000 A 
ATOM      2  C   UNL     1       3.693   2.730  19.531  0.00  0.00    +0.000 A 
ATOM      3  C   UNL     1       2.973   3.051  20.680  0.00  0.00    +0.000 A 
ATOM      4  C   UNL     1       2.508   4.351  20.871  0.00  0.00    +0.000 A 
ATOM      5  C   UNL     1       2.754   5.348  19.919  0.00  0.00    +0.000 A 
ATOM      6  C   UNL     1       3.518   5.020  18.784  0.00  0.00    +0.000 A 
ENDROOT
BRANCH   5   7
ATOM      7  C   UNL     1       2.100   6.654  20.070  0.00  0.00    +0.000 A 
ATOM      8  C   UNL     1       2.013   7.687  19.148  0.00  0.00    +0.000 A 
ATOM      9  C   UNL     1       1.418   8.810  19.772  0.00  0.00    +0.000 A 
ATOM     10  C   UNL     1       1.140  10.123  19.347  0.00  0.00    +0.000 A 
ATOM     11  C   UNL     1       0.587  11.030  20.254  0.00  0.00    +0.000 A 
ATOM     12  C   UNL     1       0.303  10.639  21.560  0.00  0.00    +0.000 A 
ATOM     13  C   UNL     1       0.548   9.330  21.996  0.00  0.00    +0.000 A 
ATOM     14  C   UNL     1       1.112   8.436  21.077  0.00  0.00    +0.000 A 
ATOM     15  N   UNL     1       1.479   7.111  21.213  0.00  0.00    +0.000 N 
ATOM     16  H   UNL     1       1.338   6.569  22.052  0.00  0.00    +0.000 HD
ENDBRANCH   5   7
BRANCH   1  19
ATOM     17  O   UNL     1       4.581   5.474  16.243  0.00  0.00    +0.000 OA
ATOM     18  C   UNL     1       4.930   4.304  16.327  0.00  0.00    +0.000 C 
ATOM     19  N   UNL     1       4.655   3.426  17.361  0.00  0.00    +0.000 N 
ATOM     20  N   UNL     1       5.710   3.701  15.360  0.00  0.00    +0.000 N 
ATOM     21  H   UNL     1       5.071   2.514  17.287  0.00  0.00    +0.000 HD
ATOM     22  H   UNL     1       5.718   2.694  15.332  0.00  0.00    +0.000 HD
BRANCH  20  23
ATOM     23  C   UNL     1       6.078   4.399  14.142  0.00  0.00    +0.000 C 
ATOM     24  C   UNL     1       7.489   4.976  14.224  0.00  0.00    +0.000 C 
ATOM     25  C   UNL     1       7.875   5.210  12.773  0.00  0.00    +0.000 C 
ATOM     26  C   UNL     1       7.138   4.141  11.969  0.00  0.00    +0.000 C 
ATOM     27  C   UNL     1       6.153   3.474  12.928  0.00  0.00    +0.000 C 
ENDBRANCH  20  23
ENDBRANCH   1  19
TORSDOF 3
ENDMDL
MODEL 7
REMARK VINA RESULT:      -7.8      4.956      7.085
REMARK  Name = 
REMARK  3 active torsions:
REMARK  status: ('A' for Active; 'I' for Inactive)
REMARK    1  A    between atoms: N_3  and  C_4
REMARK    2  A    between atoms: C_8  and  C_9
REMARK    3  A    between atoms: N_19  and  C_20
REMARK                            x       y       z     vdW  Elec       q    Type
REMARK                         _______ _______ _______ _____ _____    ______ ____
ROOT
ATOM      1  C   UNL     1       3.941   3.795  18.580  0.00  0.00    +0.000 A 
ATOM      2  C   UNL     1       3.570   2.817  19.504  0.00  0.00    +0.000 A 
ATOM      3  C   UNL     1       2.818   3.151  20.629  0.00  0.00    +0.000 A 
ATOM      4  C   UNL     1       2.412   4.469  20.830  0.00  0.00    +0.000 A 
ATOM      5  C   UNL     1       2.750   5.472  19.914  0.00  0.00    +0.000 A 
ATOM      6  C   UNL     1       3.545   5.129  18.805  0.00  0.00    +0.000 A 
ENDROOT
BRANCH   5   7
ATOM      7  C   UNL     1       2.158   6.806  20.067  0.00  0.00    +0.000 A 
ATOM      8  C   UNL     1       1.408   7.301  21.124  0.00  0.00    +0.000 A 
ATOM      9  C   UNL     1       0.922   8.586  20.781  0.00  0.00    +0.000 A 
ATOM     10  C   UNL     1       0.081   9.511  21.428  0.00  0.00    +0.000 A 
ATOM     11  C   UNL     1      -0.263  10.695  20.771  0.00  0.00    +0.000 A 
ATOM     12  C   UNL     1       0.228  10.963  19.495  0.00  0.00    +0.000 A 
ATOM     13  C   UNL     1       1.087  10.068  18.844  0.00  0.00    +0.000 A 
ATOM     14  C   UNL     1       1.414   8.881  19.513  0.00  0.00    +0.000 A 
ATOM     15  N   UNL     1       2.206   7.816  19.129  0.00  0.00    +0.000 N 
ATOM     16  H   UNL     1       2.720   7.778  18.262  0.00  0.00    +0.000 HD
ENDBRANCH   5   7
BRANCH   1  19
ATOM     17  O   UNL     1       4.526   5.515  16.209  0.00  0.00    +0.000 OA
ATOM     18  C   UNL     1       4.920   4.364  16.338  0.00  0.00    +0.000 C 
ATOM     19  N   UNL     1       4.659   3.508  17.393  0.00  0.00    +0.000 N 
ATOM     20  N   UNL     1       5.745   3.764  15.406  0.00  0.00    +0.000 N 
ATOM     21  H   UNL     1       5.113   2.612  17.358  0.00  0.00    +0.000 HD
ATOM     22  H   UNL     1       5.794   2.758  15.411  0.00  0.00    +0.000 HD
BRANCH  20  23
ATOM     23  C   UNL     1       6.111   4.438  14.174  0.00  0.00    +0.000 C 
ATOM     24  C   UNL     1       7.534   4.986  14.229  0.00  0.00    +0.000 C 
ATOM     25  C   UNL     1       7.905   5.193  12.770  0.00  0.00    +0.000 C 
ATOM     26  C   UNL     1       7.134   4.129  11.990  0.00  0.00    +0.000 C 
ATOM     27  C   UNL     1       6.150   3.496  12.972  0.00  0.00    +0.000 C 
ENDBRANCH  20  23
ENDBRANCH   1  19
TORSDOF 3
ENDMDL
MODEL 8
REMARK VINA RESULT:      -7.8      5.124      7.555
REMARK  Name = 
REMARK  3 active torsions:
REMARK  status: ('A' for Active; 'I' for Inactive)
REMARK    1  A    between atoms: N_3  and  C_4
REMARK    2  A    between atoms: C_8  and  C_9
REMARK    3  A    between atoms: N_19  and  C_20
REMARK                            x       y       z     vdW  Elec       q    Type
REMARK                         _______ _______ _______ _____ _____    ______ ____
ROOT
ATOM      1  C   UNL     1       3.608   5.656  18.389  0.00  0.00    +0.000 A 
ATOM      2  C   UNL     1       3.356   4.448  19.042  0.00  0.00    +0.000 A 
ATOM      3  C   UNL     1       2.543   4.407  20.172  0.00  0.00    +0.000 A 
ATOM      4  C   UNL     1       1.955   5.576  20.651  0.00  0.00    +0.000 A 
ATOM      5  C   UNL     1       2.170   6.803  20.010  0.00  0.00    +0.000 A 
ATOM      6  C   UNL     1       3.027   6.836  18.894  0.00  0.00    +0.000 A 
ENDROOT
BRANCH   5   7
ATOM      7  C   UNL     1       1.396   7.975  20.436  0.00  0.00    +0.000 A 
ATOM      8  C   UNL     1       1.283   9.208  19.810  0.00  0.00    +0.000 A 
ATOM      9  C   UNL     1       0.552  10.083  20.649  0.00  0.00    +0.000 A 
ATOM     10  C   UNL     1       0.190  11.440  20.557  0.00  0.00    +0.000 A 
ATOM     11  C   UNL     1      -0.499  12.036  21.616  0.00  0.00    +0.000 A 
ATOM     12  C   UNL     1      -0.835  11.293  22.746  0.00  0.00    +0.000 A 
ATOM     13  C   UNL     1      -0.508   9.934  22.847  0.00  0.00    +0.000 A 
ATOM     14  C   UNL     1       0.192   9.356  21.780  0.00  0.00    +0.000 A 
ATOM     15  N   UNL     1       0.663   8.070  21.600  0.00  0.00    +0.000 N 
ATOM     16  H   UNL     1       0.512   7.316  22.253  0.00  0.00    +0.000 HD
ENDBRANCH   5   7
BRANCH   1  19
ATOM     17  O   UNL     1       4.782   3.517  16.667  0.00  0.00    +0.000 OA
ATOM     18  C   UNL     1       4.877   4.715  16.436  0.00  0.00    +0.000 C 
ATOM     19  N   UNL     1       4.383   5.752  17.207  0.00  0.00    +0.000 N 
ATOM     20  N   UNL     1       5.495   5.195  15.298  0.00  0.00    +0.000 N 
ATOM     21  H   UNL     1       4.507   6.678  16.834  0.00  0.00    +0.000 HD
ATOM     22  H   UNL     1       5.796   6.156  15.305  0.00  0.00    +0.000 HD
BRANCH  20  23
ATOM     23  C   UNL     1       6.150   4.303  14.359  0.00  0.00    +0.000 C 
ATOM     24  C   UNL     1       5.185   3.798  13.290  0.00  0.00    +0.000 C 
ATOM     25  C   UNL     1       6.095   3.320  12.170  0.00  0.00    +0.000 C 
ATOM     26  C   UNL     1       7.340   4.203  12.241  0.00  0.00    +0.000 C 
ATOM     27  C   UNL     1       7.238   4.997  13.542  0.00  0.00    +0.000 C 
ENDBRANCH  20  23
ENDBRANCH   1  19
TORSDOF 3
ENDMDL
MODEL 9
REMARK VINA RESULT:      -7.7      5.530      7.872
REMARK  Name = 
REMARK  3 active torsions:
REMARK  status: ('A' for Active; 'I' for Inactive)
REMARK    1  A    between atoms: N_3  and  C_4
REMARK    2  A    between atoms: C_8  and  C_9
REMARK    3  A    between atoms: N_19  and  C_20
REMARK                            x       y       z     vdW  Elec       q    Type
REMARK                         _______ _______ _______ _____ _____    ______ ____
ROOT
ATOM      1  C   UNL     1       3.940   6.658  17.823  0.00  0.00    +0.000 A 
ATOM      2  C   UNL     1       3.872   5.724  18.858  0.00  0.00    +0.000 A 
ATOM      3  C   UNL     1       2.998   5.909  19.927  0.00  0.00    +0.000 A 
ATOM      4  C   UNL     1       2.166   7.027  19.961  0.00  0.00    +0.000 A 
ATOM      5  C   UNL     1       2.194   7.975  18.931  0.00  0.00    +0.000 A 
ATOM      6  C   UNL     1       3.111   7.796  17.879  0.00  0.00    +0.000 A 
ENDROOT
BRANCH   5   7
ATOM      7  C   UNL     1       1.184   9.039  18.914  0.00  0.00    +0.000 A 
ATOM      8  C   UNL     1       0.767   9.850  19.959  0.00  0.00    +0.000 A 
ATOM      9  C   UNL     1      -0.328  10.635  19.523  0.00  0.00    +0.000 A 
ATOM     10  C   UNL     1      -1.167  11.569  20.159  0.00  0.00    +0.000 A 
ATOM     11  C   UNL     1      -2.224  12.135  19.442  0.00  0.00    +0.000 A 
ATOM     12  C   UNL     1      -2.439  11.789  18.110  0.00  0.00    +0.000 A 
ATOM     13  C   UNL     1      -1.600  10.881  17.450  0.00  0.00    +0.000 A 
ATOM     14  C   UNL     1      -0.551  10.315  18.187  0.00  0.00    +0.000 A 
ATOM     15  N   UNL     1       0.413   9.394  17.827  0.00  0.00    +0.000 N 
ATOM     16  H   UNL     1       0.511   9.012  16.898  0.00  0.00    +0.000 HD
ENDBRANCH   5   7
BRANCH   1  19
ATOM     17  O   UNL     1       4.759   4.186  16.360  0.00  0.00    +0.000 OA
ATOM     18  C   UNL     1       5.090   5.319  16.036  0.00  0.00    +0.000 C 
ATOM     19  N   UNL     1       4.770   6.497  16.686  0.00  0.00    +0.000 N 
ATOM     20  N   UNL     1       5.837   5.567  14.901  0.00  0.00    +0.000 N 
ATOM     21  H   UNL     1       5.084   7.345  16.245  0.00  0.00    +0.000 HD
ATOM     22  H   UNL     1       6.316   6.452  14.845  0.00  0.00    +0.000 HD
BRANCH  20  23
ATOM     23  C   UNL     1       6.350   4.485  14.081  0.00  0.00    +0.000 C 
ATOM     24  C   UNL     1       5.257   3.859  13.220  0.00  0.00    +0.000 C 
ATOM     25  C   UNL     1       6.022   3.136  12.123  0.00  0.00    +0.000 C 
ATOM     26  C   UNL     1       7.304   3.940  11.912  0.00  0.00    +0.000 C 
ATOM     27  C   UNL     1       7.374   4.957  13.050  0.00  0.00    +0.000 C 
ENDBRANCH  20  23
ENDBRANCH   1  19
TORSDOF 3
ENDMDL
