MODEL 1
REMARK VINA RESULT:      -6.4      0.000      0.000
REMARK  Name = 
REMARK  13 active torsions:
REMARK  status: ('A' for Active; 'I' for Inactive)
REMARK    1  A    between atoms: C_1  and  O_2
REMARK    2  A    between atoms: O_2  and  C_3
REMARK    3  A    between atoms: C_5  and  C_6
REMARK    4  A    between atoms: C_7  and  C_8
REMARK    5  A    between atoms: C_9  and  C_10
REMARK    6  A    between atoms: C_13  and  O_14
REMARK    7  A    between atoms: O_14  and  C_15
REMARK    8  A    between atoms: C_16  and  O_17
REMARK    9  A    between atoms: C_18  and  O_19
REMARK   10  A    between atoms: O_19  and  C_20
REMARK   11  A    between atoms: C_24  and  O_25
REMARK   12  A    between atoms: O_25  and  C_26
REMARK   13  A    between atoms: C_27  and  O_28
REMARK                            x       y       z     vdW  Elec       q    Type
REMARK                         _______ _______ _______ _____ _____    ______ ____
ROOT
ATOM      1  C   UNL     1       2.941   6.069  19.039  0.00  0.00    +0.000 A 
ATOM      2  C   UNL     1       2.105   5.035  18.639  0.00  0.00    +0.000 A 
ATOM      3  C   UNL     1       1.410   5.249  17.293  0.00  0.00    +0.000 C 
ATOM      4  C   UNL     1       2.597   3.821  19.013  0.00  0.00    +0.000 A 
ATOM      5  C   UNL     1       3.017   3.651  20.500  0.00  0.00    +0.000 C 
ATOM      6  C   UNL     1       3.530   3.531  18.076  0.00  0.00    +0.000 A 
ATOM      7  C   UNL     1       4.485   4.550  17.865  0.00  0.00    +0.000 A 
ATOM      8  C   UNL     1       5.490   4.242  16.939  0.00  0.00    +0.000 A 
ATOM      9  C   UNL     1       6.802   4.443  17.332  0.00  0.00    +0.000 A 
ATOM     10  C   UNL     1       7.032   5.110  18.493  0.00  0.00    +0.000 A 
ATOM     11  C   UNL     1       5.916   5.841  19.114  0.00  0.00    +0.000 A 
ATOM     12  C   UNL     1       4.453   5.661  18.744  0.00  0.00    +0.000 A 
ENDROOT
BRANCH   1  15
ATOM     13  C   UNL     1       1.303   9.667  19.073  0.00  0.00    +0.000 A 
ATOM     14  C   UNL     1       1.746   8.392  18.664  0.00  0.00    +0.000 A 
ATOM     15  C   UNL     1       2.006   7.228  19.556  0.00  0.00    +0.000 A 
ATOM     16  C   UNL     1       1.635   7.452  20.889  0.00  0.00    +0.000 A 
ATOM     17  C   UNL     1       1.166   8.742  21.311  0.00  0.00    +0.000 A 
ATOM     18  C   UNL     1       1.007   9.820  20.418  0.00  0.00    +0.000 A 
BRANCH  13  20
ATOM     19  C   UNL     1       2.302  11.710  18.166  0.00  0.00    +0.000 C 
ATOM     20  O   UNL     1       1.214  10.829  18.357  0.00  0.00    +0.000 OA
ENDBRANCH  13  20
BRANCH  17  21
ATOM     21  O   UNL     1       0.860   9.083  22.612  0.00  0.00    +0.000 OA
ATOM     22  C   UNL     1      -0.528   9.015  22.897  0.00  0.00    +0.000 C 
ENDBRANCH  17  21
BRANCH  18  23
ATOM     23  O   UNL     1       0.621  11.063  20.870  0.00  0.00    +0.000 OA
ATOM     24  H   UNL     1       0.826  11.696  20.163  0.00  0.00    +0.000 HD
ENDBRANCH  18  23
ENDBRANCH   1  15
BRANCH   8  25
ATOM     25  O   UNL     1       5.250   3.666  15.712  0.00  0.00    +0.000 OA
ATOM     26  C   UNL     1       5.324   4.611  14.627  0.00  0.00    +0.000 C 
ENDBRANCH   8  25
BRANCH   9  27
ATOM     27  O   UNL     1       7.801   3.932  16.517  0.00  0.00    +0.000 OA
ATOM     28  H   UNL     1       8.051   3.067  16.904  0.00  0.00    +0.000 HD
ENDBRANCH   9  27
BRANCH  10  29
ATOM     29  O   UNL     1       8.303   5.243  19.034  0.00  0.00    +0.000 OA
ATOM     30  C   UNL     1       8.380   5.434  20.469  0.00  0.00    +0.000 C 
ENDBRANCH  10  29
TORSDOF 7
ENDMDL
MODEL 2
REMARK VINA RESULT:      -6.2      2.180      3.945
REMARK  Name = 
REMARK  13 active torsions:
REMARK  status: ('A' for Active; 'I' for Inactive)
REMARK    1  A    between atoms: C_1  and  O_2
REMARK    2  A    between atoms: O_2  and  C_3
REMARK    3  A    between atoms: C_5  and  C_6
REMARK    4  A    between atoms: C_7  and  C_8
REMARK    5  A    between atoms: C_9  and  C_10
REMARK    6  A    between atoms: C_13  and  O_14
REMARK    7  A    between atoms: O_14  and  C_15
REMARK    8  A    between atoms: C_16  and  O_17
REMARK    9  A    between atoms: C_18  and  O_19
REMARK   10  A    between atoms: O_19  and  C_20
REMARK   11  A    between atoms: C_24  and  O_25
REMARK   12  A    between atoms: O_25  and  C_26
REMARK   13  A    between atoms: C_27  and  O_28
REMARK                            x       y       z     vdW  Elec       q    Type
REMARK                         _______ _______ _______ _____ _____    ______ ____
ROOT
ATOM      1  C   UNL     1       2.439   6.804  19.123  0.00  0.00    +0.000 A 
ATOM      2  C   UNL     1       2.861   6.769  17.801  0.00  0.00    +0.000 A 
ATOM      3  C   UNL     1       4.179   7.496  17.523  0.00  0.00    +0.000 C 
ATOM      4  C   UNL     1       2.552   5.581  17.209  0.00  0.00    +0.000 A 
ATOM      5  C   UNL     1       1.085   5.083  17.335  0.00  0.00    +0.000 C 
ATOM      6  C   UNL     1       3.524   4.734  17.621  0.00  0.00    +0.000 A 
ATOM      7  C   UNL     1       3.717   4.700  19.020  0.00  0.00    +0.000 A 
ATOM      8  C   UNL     1       4.681   3.787  19.467  0.00  0.00    +0.000 A 
ATOM      9  C   UNL     1       4.313   2.916  20.478  0.00  0.00    +0.000 A 
ATOM     10  C   UNL     1       3.131   3.128  21.113  0.00  0.00    +0.000 A 
ATOM     11  C   UNL     1       2.451   4.418  20.915  0.00  0.00    +0.000 A 
ATOM     12  C   UNL     1       2.790   5.414  19.820  0.00  0.00    +0.000 A 
ENDROOT
BRANCH   1  15
ATOM     13  C   UNL     1       0.891   9.785  21.209  0.00  0.00    +0.000 A 
ATOM     14  C   UNL     1       1.738   8.747  20.765  0.00  0.00    +0.000 A 
ATOM     15  C   UNL     1       1.848   8.245  19.367  0.00  0.00    +0.000 A 
ATOM     16  C   UNL     1       1.114   9.000  18.443  0.00  0.00    +0.000 A 
ATOM     17  C   UNL     1       0.263  10.070  18.883  0.00  0.00    +0.000 A 
ATOM     18  C   UNL     1       0.159  10.448  20.237  0.00  0.00    +0.000 A 
BRANCH  13  20
ATOM     19  C   UNL     1      -0.213   9.431  23.365  0.00  0.00    +0.000 C 
ATOM     20  O   UNL     1       0.597  10.183  22.484  0.00  0.00    +0.000 OA
ENDBRANCH  13  20
BRANCH  17  21
ATOM     21  O   UNL     1      -0.561  10.812  18.063  0.00  0.00    +0.000 OA
ATOM     22  C   UNL     1      -1.577  10.039  17.444  0.00  0.00    +0.000 C 
ENDBRANCH  17  21
BRANCH  18  23
ATOM     23  O   UNL     1      -0.719  11.433  20.632  0.00  0.00    +0.000 OA
ATOM     24  H   UNL     1      -0.722  11.434  21.603  0.00  0.00    +0.000 HD
ENDBRANCH  18  23
ENDBRANCH   1  15
BRANCH   8  25
ATOM     25  O   UNL     1       5.924   3.646  18.894  0.00  0.00    +0.000 OA
ATOM     26  C   UNL     1       6.650   4.889  18.822  0.00  0.00    +0.000 C 
ENDBRANCH   8  25
BRANCH   9  27
ATOM     27  O   UNL     1       5.175   1.869  20.767  0.00  0.00    +0.000 OA
ATOM     28  H   UNL     1       5.115   1.728  21.735  0.00  0.00    +0.000 HD
ENDBRANCH   9  27
BRANCH  10  29
ATOM     29  O   UNL     1       2.618   2.236  22.044  0.00  0.00    +0.000 OA
ATOM     30  C   UNL     1       1.183   2.265  22.247  0.00  0.00    +0.000 C 
ENDBRANCH  10  29
TORSDOF 7
ENDMDL
MODEL 3
REMARK VINA RESULT:      -6.1      2.557      8.221
REMARK  Name = 
REMARK  13 active torsions:
REMARK  status: ('A' for Active; 'I' for Inactive)
REMARK    1  A    between atoms: C_1  and  O_2
REMARK    2  A    between atoms: O_2  and  C_3
REMARK    3  A    between atoms: C_5  and  C_6
REMARK    4  A    between atoms: C_7  and  C_8
REMARK    5  A    between atoms: C_9  and  C_10
REMARK    6  A    between atoms: C_13  and  O_14
REMARK    7  A    between atoms: O_14  and  C_15
REMARK    8  A    between atoms: C_16  and  O_17
REMARK    9  A    between atoms: C_18  and  O_19
REMARK   10  A    between atoms: O_19  and  C_20
REMARK   11  A    between atoms: C_24  and  O_25
REMARK   12  A    between atoms: O_25  and  C_26
REMARK   13  A    between atoms: C_27  and  O_28
REMARK                            x       y       z     vdW  Elec       q    Type
REMARK                         _______ _______ _______ _____ _____    ______ ____
ROOT
ATOM      1  C   UNL     1       1.464   9.597  19.121  0.00  0.00    +0.000 A 
ATOM      2  C   UNL     1       0.304   9.383  19.853  0.00  0.00    +0.000 A 
ATOM      3  C   UNL     1       0.526   8.962  21.308  0.00  0.00    +0.000 C 
ATOM      4  C   UNL     1      -0.681  10.254  19.495  0.00  0.00    +0.000 A 
ATOM      5  C   UNL     1      -0.999  10.384  17.979  0.00  0.00    +0.000 C 
ATOM      6  C   UNL     1      -0.381  11.395  20.158  0.00  0.00    +0.000 A 
ATOM      7  C   UNL     1       0.945  11.847  19.976  0.00  0.00    +0.000 A 
ATOM      8  C   UNL     1       1.254  13.057  20.611  0.00  0.00    +0.000 A 
ATOM      9  C   UNL     1       1.848  14.045  19.845  0.00  0.00    +0.000 A 
ATOM     10  C   UNL     1       2.281  13.720  18.598  0.00  0.00    +0.000 A 
ATOM     11  C   UNL     1       2.377  12.297  18.238  0.00  0.00    +0.000 A 
ATOM     12  C   UNL     1       1.738  11.163  19.022  0.00  0.00    +0.000 A 
ENDROOT
BRANCH   1  15
ATOM     13  C   UNL     1       2.655   5.887  19.797  0.00  0.00    +0.000 A 
ATOM     14  C   UNL     1       1.883   7.067  19.748  0.00  0.00    +0.000 A 
ATOM     15  C   UNL     1       2.035   8.172  18.760  0.00  0.00    +0.000 A 
ATOM     16  C   UNL     1       2.958   7.890  17.744  0.00  0.00    +0.000 A 
ATOM     17  C   UNL     1       3.735   6.682  17.776  0.00  0.00    +0.000 A 
ATOM     18  C   UNL     1       3.582   5.709  18.783  0.00  0.00    +0.000 A 
BRANCH  13  20
ATOM     19  C   UNL     1       1.665   3.989  20.984  0.00  0.00    +0.000 C 
ATOM     20  O   UNL     1       2.705   4.919  20.762  0.00  0.00    +0.000 OA
ENDBRANCH  13  20
BRANCH  17  21
ATOM     21  O   UNL     1       4.725   6.357  16.872  0.00  0.00    +0.000 OA
ATOM     22  C   UNL     1       5.942   7.050  17.100  0.00  0.00    +0.000 C 
ENDBRANCH  17  21
BRANCH  18  23
ATOM     23  O   UNL     1       4.393   4.595  18.821  0.00  0.00    +0.000 OA
ATOM     24  H   UNL     1       3.941   3.937  19.372  0.00  0.00    +0.000 HD
ENDBRANCH  18  23
ENDBRANCH   1  15
BRANCH   8  25
ATOM     25  O   UNL     1       0.912  13.348  21.912  0.00  0.00    +0.000 OA
ATOM     26  C   UNL     1      -0.391  13.951  22.025  0.00  0.00    +0.000 C 
ENDBRANCH   8  25
BRANCH   9  27
ATOM     27  O   UNL     1       1.949  15.313  20.398  0.00  0.00    +0.000 OA
ATOM     28  H   UNL     1       2.904  15.462  20.562  0.00  0.00    +0.000 HD
ENDBRANCH   9  27
BRANCH  10  29
ATOM     29  O   UNL     1       2.767  14.670  17.710  0.00  0.00    +0.000 OA
ATOM     30  C   UNL     1       4.180  14.980  17.803  0.00  0.00    +0.000 C 
ENDBRANCH  10  29
TORSDOF 7
ENDMDL
MODEL 4
REMARK VINA RESULT:      -5.9      5.723     11.615
REMARK  Name = 
REMARK  13 active torsions:
REMARK  status: ('A' for Active; 'I' for Inactive)
REMARK    1  A    between atoms: C_1  and  O_2
REMARK    2  A    between atoms: O_2  and  C_3
REMARK    3  A    between atoms: C_5  and  C_6
REMARK    4  A    between atoms: C_7  and  C_8
REMARK    5  A    between atoms: C_9  and  C_10
REMARK    6  A    between atoms: C_13  and  O_14
REMARK    7  A    between atoms: O_14  and  C_15
REMARK    8  A    between atoms: C_16  and  O_17
REMARK    9  A    between atoms: C_18  and  O_19
REMARK   10  A    between atoms: O_19  and  C_20
REMARK   11  A    between atoms: C_24  and  O_25
REMARK   12  A    between atoms: O_25  and  C_26
REMARK   13  A    between atoms: C_27  and  O_28
REMARK                            x       y       z     vdW  Elec       q    Type
REMARK                         _______ _______ _______ _____ _____    ______ ____
ROOT
ATOM      1  C   UNL     1      -2.142  12.678  20.964  0.00  0.00    +0.000 A 
ATOM      2  C   UNL     1      -0.879  12.864  21.507  0.00  0.00    +0.000 A 
ATOM      3  C   UNL     1      -0.109  14.068  20.960  0.00  0.00    +0.000 C 
ATOM      4  C   UNL     1      -0.848  12.526  22.827  0.00  0.00    +0.000 A 
ATOM      5  C   UNL     1      -1.420  11.135  23.219  0.00  0.00    +0.000 C 
ATOM      6  C   UNL     1      -1.364  13.603  23.464  0.00  0.00    +0.000 A 
ATOM      7  C   UNL     1      -2.611  14.038  22.963  0.00  0.00    +0.000 A 
ATOM      8  C   UNL     1      -3.184  15.117  23.649  0.00  0.00    +0.000 A 
ATOM      9  C   UNL     1      -4.498  14.983  24.062  0.00  0.00    +0.000 A 
ATOM     10  C   UNL     1      -5.212  13.919  23.607  0.00  0.00    +0.000 A 
ATOM     11  C   UNL     1      -4.669  13.141  22.482  0.00  0.00    +0.000 A 
ATOM     12  C   UNL     1      -3.236  13.225  21.985  0.00  0.00    +0.000 A 
ENDROOT
BRANCH   1  15
ATOM     13  C   UNL     1      -3.201  11.254  17.430  0.00  0.00    +0.000 A 
ATOM     14  C   UNL     1      -3.055  12.088  18.559  0.00  0.00    +0.000 A 
ATOM     15  C   UNL     1      -1.927  12.056  19.530  0.00  0.00    +0.000 A 
ATOM     16  C   UNL     1      -0.893  11.186  19.159  0.00  0.00    +0.000 A 
ATOM     17  C   UNL     1      -1.025  10.346  18.001  0.00  0.00    +0.000 A 
ATOM     18  C   UNL     1      -2.156  10.385  17.162  0.00  0.00    +0.000 A 
BRANCH  13  20
ATOM     19  C   UNL     1      -5.518  11.735  16.802  0.00  0.00    +0.000 C 
ATOM     20  O   UNL     1      -4.275  11.093  16.599  0.00  0.00    +0.000 OA
ENDBRANCH  13  20
BRANCH  17  21
ATOM     21  O   UNL     1      -0.104   9.400  17.605  0.00  0.00    +0.000 OA
ATOM     22  C   UNL     1       1.188   9.611  18.152  0.00  0.00    +0.000 C 
ENDBRANCH  17  21
BRANCH  18  23
ATOM     23  O   UNL     1      -2.279   9.516  16.099  0.00  0.00    +0.000 OA
ATOM     24  H   UNL     1      -1.690   9.842  15.399  0.00  0.00    +0.000 HD
ENDBRANCH  18  23
ENDBRANCH   1  15
BRANCH   8  25
ATOM     25  O   UNL     1      -2.490  16.247  24.015  0.00  0.00    +0.000 OA
ATOM     26  C   UNL     1      -2.262  17.144  22.911  0.00  0.00    +0.000 C 
ENDBRANCH   8  25
BRANCH   9  27
ATOM     27  O   UNL     1      -4.999  15.941  24.930  0.00  0.00    +0.000 OA
ATOM     28  H   UNL     1      -4.346  16.015  25.658  0.00  0.00    +0.000 HD
ENDBRANCH   9  27
BRANCH  10  29
ATOM     29  O   UNL     1      -6.488  13.629  24.068  0.00  0.00    +0.000 OA
ATOM     30  C   UNL     1      -7.592  14.085  23.246  0.00  0.00    +0.000 C 
ENDBRANCH  10  29
TORSDOF 7
ENDMDL
MODEL 5
REMARK VINA RESULT:      -5.9      7.546     10.287
REMARK  Name = 
REMARK  13 active torsions:
REMARK  status: ('A' for Active; 'I' for Inactive)
REMARK    1  A    between atoms: C_1  and  O_2
REMARK    2  A    between atoms: O_2  and  C_3
REMARK    3  A    between atoms: C_5  and  C_6
REMARK    4  A    between atoms: C_7  and  C_8
REMARK    5  A    between atoms: C_9  and  C_10
REMARK    6  A    between atoms: C_13  and  O_14
REMARK    7  A    between atoms: O_14  and  C_15
REMARK    8  A    between atoms: C_16  and  O_17
REMARK    9  A    between atoms: C_18  and  O_19
REMARK   10  A    between atoms: O_19  and  C_20
REMARK   11  A    between atoms: C_24  and  O_25
REMARK   12  A    between atoms: O_25  and  C_26
REMARK   13  A    between atoms: C_27  and  O_28
REMARK                            x       y       z     vdW  Elec       q    Type
REMARK                         _______ _______ _______ _____ _____    ______ ____
ROOT
ATOM      1  C   UNL     1      -0.369  13.679  19.500  0.00  0.00    +0.000 A 
ATOM      2  C   UNL     1      -0.536  13.674  20.877  0.00  0.00    +0.000 A 
ATOM      3  C   UNL     1      -1.283  14.883  21.444  0.00  0.00    +0.000 C 
ATOM      4  C   UNL     1      -0.739  12.412  21.352  0.00  0.00    +0.000 A 
ATOM      5  C   UNL     1       0.271  11.315  20.911  0.00  0.00    +0.000 C 
ATOM      6  C   UNL     1      -2.049  12.169  21.115  0.00  0.00    +0.000 A 
ATOM      7  C   UNL     1      -2.459  12.406  19.784  0.00  0.00    +0.000 A 
ATOM      8  C   UNL     1      -3.799  12.105  19.511  0.00  0.00    +0.000 A 
ATOM      9  C   UNL     1      -4.061  11.300  18.416  0.00  0.00    +0.000 A 
ATOM     10  C   UNL     1      -3.041  11.023  17.562  0.00  0.00    +0.000 A 
ATOM     11  C   UNL     1      -1.807  11.818  17.662  0.00  0.00    +0.000 A 
ATOM     12  C   UNL     1      -1.447  12.709  18.839  0.00  0.00    +0.000 A 
ENDROOT
BRANCH   1  15
ATOM     13  C   UNL     1       1.248  17.034  18.172  0.00  0.00    +0.000 A 
ATOM     14  C   UNL     1       0.430  16.111  18.857  0.00  0.00    +0.000 A 
ATOM     15  C   UNL     1       0.789  14.704  19.191  0.00  0.00    +0.000 A 
ATOM     16  C   UNL     1       2.116  14.377  18.883  0.00  0.00    +0.000 A 
ATOM     17  C   UNL     1       2.962  15.317  18.202  0.00  0.00    +0.000 A 
ATOM     18  C   UNL     1       2.531  16.613  17.857  0.00  0.00    +0.000 A 
BRANCH  13  20
ATOM     19  C   UNL     1       0.037  18.467  16.599  0.00  0.00    +0.000 C 
ATOM     20  O   UNL     1       0.937  18.268  17.670  0.00  0.00    +0.000 OA
ENDBRANCH  13  20
BRANCH  17  21
ATOM     21  O   UNL     1       4.249  15.058  17.780  0.00  0.00    +0.000 OA
ATOM     22  C   UNL     1       5.179  14.959  18.847  0.00  0.00    +0.000 C 
ENDBRANCH  17  21
BRANCH  18  23
ATOM     23  O   UNL     1       3.346  17.465  17.143  0.00  0.00    +0.000 OA
ATOM     24  H   UNL     1       4.255  17.300  17.441  0.00  0.00    +0.000 HD
ENDBRANCH  18  23
ENDBRANCH   1  15
BRANCH   8  25
ATOM     25  O   UNL     1      -4.848  12.480  20.320  0.00  0.00    +0.000 OA
ATOM     26  C   UNL     1      -5.246  13.850  20.117  0.00  0.00    +0.000 C 
ENDBRANCH   8  25
BRANCH   9  27
ATOM     27  O   UNL     1      -5.351  10.814  18.271  0.00  0.00    +0.000 OA
ATOM     28  H   UNL     1      -5.824  11.049  19.098  0.00  0.00    +0.000 HD
ENDBRANCH   9  27
BRANCH  10  29
ATOM     29  O   UNL     1      -3.174  10.123  16.514  0.00  0.00    +0.000 OA
ATOM     30  C   UNL     1      -3.104  10.672  15.175  0.00  0.00    +0.000 C 
ENDBRANCH  10  29
TORSDOF 7
ENDMDL
MODEL 6
REMARK VINA RESULT:      -5.9      7.139      9.885
REMARK  Name = 
REMARK  13 active torsions:
REMARK  status: ('A' for Active; 'I' for Inactive)
REMARK    1  A    between atoms: C_1  and  O_2
REMARK    2  A    between atoms: O_2  and  C_3
REMARK    3  A    between atoms: C_5  and  C_6
REMARK    4  A    between atoms: C_7  and  C_8
REMARK    5  A    between atoms: C_9  and  C_10
REMARK    6  A    between atoms: C_13  and  O_14
REMARK    7  A    between atoms: O_14  and  C_15
REMARK    8  A    between atoms: C_16  and  O_17
REMARK    9  A    between atoms: C_18  and  O_19
REMARK   10  A    between atoms: O_19  and  C_20
REMARK   11  A    between atoms: C_24  and  O_25
REMARK   12  A    between atoms: O_25  and  C_26
REMARK   13  A    between atoms: C_27  and  O_28
REMARK                            x       y       z     vdW  Elec       q    Type
REMARK                         _______ _______ _______ _____ _____    ______ ____
ROOT
ATOM      1  C   UNL     1      -1.310  13.120  19.650  0.00  0.00    +0.000 A 
ATOM      2  C   UNL     1      -0.623  12.350  20.579  0.00  0.00    +0.000 A 
ATOM      3  C   UNL     1       0.071  11.112  20.006  0.00  0.00    +0.000 C 
ATOM      4  C   UNL     1      -0.045  13.123  21.540  0.00  0.00    +0.000 A 
ATOM      5  C   UNL     1      -0.949  14.171  22.249  0.00  0.00    +0.000 C 
ATOM      6  C   UNL     1       1.092  13.582  20.967  0.00  0.00    +0.000 A 
ATOM      7  C   UNL     1       0.907  14.192  19.706  0.00  0.00    +0.000 A 
ATOM      8  C   UNL     1       2.067  14.722  19.126  0.00  0.00    +0.000 A 
ATOM      9  C   UNL     1       2.014  16.030  18.677  0.00  0.00    +0.000 A 
ATOM     10  C   UNL     1       0.804  16.648  18.634  0.00  0.00    +0.000 A 
ATOM     11  C   UNL     1      -0.408  15.825  18.771  0.00  0.00    +0.000 A 
ATOM     12  C   UNL     1      -0.427  14.391  19.271  0.00  0.00    +0.000 A 
ENDROOT
BRANCH   1  15
ATOM     13  C   UNL     1      -4.013  11.320  17.395  0.00  0.00    +0.000 A 
ATOM     14  C   UNL     1      -2.796  11.683  18.010  0.00  0.00    +0.000 A 
ATOM     15  C   UNL     1      -2.650  12.351  19.332  0.00  0.00    +0.000 A 
ATOM     16  C   UNL     1      -3.859  12.486  20.028  0.00  0.00    +0.000 A 
ATOM     17  C   UNL     1      -5.101  12.103  19.416  0.00  0.00    +0.000 A 
ATOM     18  C   UNL     1      -5.168  11.534  18.129  0.00  0.00    +0.000 A 
BRANCH  13  20
ATOM     19  C   UNL     1      -3.218  10.611  15.190  0.00  0.00    +0.000 C 
ATOM     20  O   UNL     1      -4.247  10.874  16.123  0.00  0.00    +0.000 OA
ENDBRANCH  13  20
BRANCH  17  21
ATOM     21  O   UNL     1      -6.346  12.276  19.984  0.00  0.00    +0.000 OA
ATOM     22  C   UNL     1      -6.626  13.626  20.320  0.00  0.00    +0.000 C 
ENDBRANCH  17  21
BRANCH  18  23
ATOM     23  O   UNL     1      -6.382  11.242  17.546  0.00  0.00    +0.000 OA
ATOM     24  H   UNL     1      -7.067  11.639  18.108  0.00  0.00    +0.000 HD
ENDBRANCH  18  23
ENDBRANCH   1  15
BRANCH   8  25
ATOM     25  O   UNL     1       3.268  14.053  19.069  0.00  0.00    +0.000 OA
ATOM     26  C   UNL     1       3.259  12.969  18.120  0.00  0.00    +0.000 C 
ENDBRANCH   8  25
BRANCH   9  27
ATOM     27  O   UNL     1       3.209  16.632  18.313  0.00  0.00    +0.000 OA
ATOM     28  H   UNL     1       3.007  17.179  17.524  0.00  0.00    +0.000 HD
ENDBRANCH   9  27
BRANCH  10  29
ATOM     29  O   UNL     1       0.669  17.994  18.326  0.00  0.00    +0.000 OA
ATOM     30  C   UNL     1      -0.307  18.331  17.308  0.00  0.00    +0.000 C 
ENDBRANCH  10  29
TORSDOF 7
ENDMDL
MODEL 7
REMARK VINA RESULT:      -5.8      2.537      8.004
REMARK  Name = 
REMARK  13 active torsions:
REMARK  status: ('A' for Active; 'I' for Inactive)
REMARK    1  A    between atoms: C_1  and  O_2
REMARK    2  A    between atoms: O_2  and  C_3
REMARK    3  A    between atoms: C_5  and  C_6
REMARK    4  A    between atoms: C_7  and  C_8
REMARK    5  A    between atoms: C_9  and  C_10
REMARK    6  A    between atoms: C_13  and  O_14
REMARK    7  A    between atoms: O_14  and  C_15
REMARK    8  A    between atoms: C_16  and  O_17
REMARK    9  A    between atoms: C_18  and  O_19
REMARK   10  A    between atoms: O_19  and  C_20
REMARK   11  A    between atoms: C_24  and  O_25
REMARK   12  A    between atoms: O_25  and  C_26
REMARK   13  A    between atoms: C_27  and  O_28
REMARK                            x       y       z     vdW  Elec       q    Type
REMARK                         _______ _______ _______ _____ _____    ______ ____
ROOT
ATOM      1  C   UNL     1       1.132   8.608  20.389  0.00  0.00    +0.000 A 
ATOM      2  C   UNL     1       1.230   8.852  21.752  0.00  0.00    +0.000 A 
ATOM      3  C   UNL     1       2.582   9.398  22.216  0.00  0.00    +0.000 C 
ATOM      4  C   UNL     1       0.052   9.306  22.265  0.00  0.00    +0.000 A 
ATOM      5  C   UNL     1      -1.229   8.487  21.938  0.00  0.00    +0.000 C 
ATOM      6  C   UNL     1       0.033  10.623  21.953  0.00  0.00    +0.000 A 
ATOM      7  C   UNL     1       0.268  10.906  20.589  0.00  0.00    +0.000 A 
ATOM      8  C   UNL     1       0.196  12.261  20.242  0.00  0.00    +0.000 A 
ATOM      9  C   UNL     1      -0.607  12.601  19.167  0.00  0.00    +0.000 A 
ATOM     10  C   UNL     1      -1.106  11.601  18.394  0.00  0.00    +0.000 A 
ATOM     11  C   UNL     1      -0.539  10.251  18.542  0.00  0.00    +0.000 A 
ATOM     12  C   UNL     1       0.335   9.804  19.701  0.00  0.00    +0.000 A 
ENDROOT
BRANCH   1  15
ATOM     13  C   UNL     1       3.330   6.048  18.328  0.00  0.00    +0.000 A 
ATOM     14  C   UNL     1       2.868   7.217  18.969  0.00  0.00    +0.000 A 
ATOM     15  C   UNL     1       1.917   7.268  20.114  0.00  0.00    +0.000 A 
ATOM     16  C   UNL     1       1.595   6.006  20.631  0.00  0.00    +0.000 A 
ATOM     17  C   UNL     1       2.076   4.811  19.996  0.00  0.00    +0.000 A 
ATOM     18  C   UNL     1       2.923   4.839  18.871  0.00  0.00    +0.000 A 
BRANCH  13  20
ATOM     19  C   UNL     1       5.247   6.620  16.917  0.00  0.00    +0.000 C 
ATOM     20  O   UNL     1       4.049   5.915  17.172  0.00  0.00    +0.000 OA
ENDBRANCH  13  20
BRANCH  17  21
ATOM     21  O   UNL     1       1.745   3.528  20.377  0.00  0.00    +0.000 OA
ATOM     22  C   UNL     1       2.290   3.158  21.633  0.00  0.00    +0.000 C 
ENDBRANCH  17  21
BRANCH  18  23
ATOM     23  O   UNL     1       3.309   3.674  18.245  0.00  0.00    +0.000 OA
ATOM     24  H   UNL     1       4.120   3.875  17.751  0.00  0.00    +0.000 HD
ENDBRANCH  18  23
ENDBRANCH   1  15
BRANCH   8  25
ATOM     25  O   UNL     1       0.795  13.269  20.963  0.00  0.00    +0.000 OA
ATOM     26  C   UNL     1       2.193  13.422  20.653  0.00  0.00    +0.000 C 
ENDBRANCH   8  25
BRANCH   9  27
ATOM     27  O   UNL     1      -0.863  13.948  18.958  0.00  0.00    +0.000 OA
ATOM     28  H   UNL     1      -0.047  14.321  18.562  0.00  0.00    +0.000 HD
ENDBRANCH   9  27
BRANCH  10  29
ATOM     29  O   UNL     1      -2.023  11.835  17.379  0.00  0.00    +0.000 OA
ATOM     30  C   UNL     1      -2.423  10.687  16.590  0.00  0.00    +0.000 C 
ENDBRANCH  10  29
TORSDOF 7
ENDMDL
MODEL 8
REMARK VINA RESULT:      -5.8      5.997     10.034
REMARK  Name = 
REMARK  13 active torsions:
REMARK  status: ('A' for Active; 'I' for Inactive)
REMARK    1  A    between atoms: C_1  and  O_2
REMARK    2  A    between atoms: O_2  and  C_3
REMARK    3  A    between atoms: C_5  and  C_6
REMARK    4  A    between atoms: C_7  and  C_8
REMARK    5  A    between atoms: C_9  and  C_10
REMARK    6  A    between atoms: C_13  and  O_14
REMARK    7  A    between atoms: O_14  and  C_15
REMARK    8  A    between atoms: C_16  and  O_17
REMARK    9  A    between atoms: C_18  and  O_19
REMARK   10  A    between atoms: O_19  and  C_20
REMARK   11  A    between atoms: C_24  and  O_25
REMARK   12  A    between atoms: O_25  and  C_26
REMARK   13  A    between atoms: C_27  and  O_28
REMARK                            x       y       z     vdW  Elec       q    Type
REMARK                         _______ _______ _______ _____ _____    ______ ____
ROOT
ATOM      1  C   UNL     1      -2.780  13.016  21.161  0.00  0.00    +0.000 A 
ATOM      2  C   UNL     1      -1.650  13.469  21.827  0.00  0.00    +0.000 A 
ATOM      3  C   UNL     1      -1.256  12.656  23.062  0.00  0.00    +0.000 C 
ATOM      4  C   UNL     1      -0.721  13.960  20.959  0.00  0.00    +0.000 A 
ATOM      5  C   UNL     1      -1.205  15.005  19.914  0.00  0.00    +0.000 C 
ATOM      6  C   UNL     1      -0.092  12.862  20.480  0.00  0.00    +0.000 A 
ATOM      7  C   UNL     1      -0.955  11.867  19.970  0.00  0.00    +0.000 A 
ATOM      8  C   UNL     1      -0.316  10.749  19.420  0.00  0.00    +0.000 A 
ATOM      9  C   UNL     1      -0.702  10.355  18.150  0.00  0.00    +0.000 A 
ATOM     10  C   UNL     1      -1.803  10.934  17.603  0.00  0.00    +0.000 A 
ATOM     11  C   UNL     1      -2.694  11.712  18.478  0.00  0.00    +0.000 A 
ATOM     12  C   UNL     1      -2.331  12.191  19.873  0.00  0.00    +0.000 A 
ENDROOT
BRANCH   1  15
ATOM     13  C   UNL     1      -6.560  13.097  22.317  0.00  0.00    +0.000 A 
ATOM     14  C   UNL     1      -5.265  12.655  21.972  0.00  0.00    +0.000 A 
ATOM     15  C   UNL     1      -4.021  13.472  22.020  0.00  0.00    +0.000 A 
ATOM     16  C   UNL     1      -4.206  14.740  22.587  0.00  0.00    +0.000 A 
ATOM     17  C   UNL     1      -5.518  15.191  22.958  0.00  0.00    +0.000 A 
ATOM     18  C   UNL     1      -6.664  14.383  22.823  0.00  0.00    +0.000 A 
BRANCH  13  20
ATOM     19  C   UNL     1      -7.916  11.245  21.464  0.00  0.00    +0.000 C 
ATOM     20  O   UNL     1      -7.767  12.481  22.134  0.00  0.00    +0.000 OA
ENDBRANCH  13  20
BRANCH  17  21
ATOM     21  O   UNL     1      -5.813  16.449  23.442  0.00  0.00    +0.000 OA
ATOM     22  C   UNL     1      -5.163  16.743  24.669  0.00  0.00    +0.000 C 
ENDBRANCH  17  21
BRANCH  18  23
ATOM     23  O   UNL     1      -7.916  14.872  23.124  0.00  0.00    +0.000 OA
ATOM     24  H   UNL     1      -7.929  15.044  24.079  0.00  0.00    +0.000 HD
ENDBRANCH  18  23
ENDBRANCH   1  15
BRANCH   8  25
ATOM     25  O   UNL     1       0.730  10.090  20.025  0.00  0.00    +0.000 OA
ATOM     26  C   UNL     1       0.298   9.202  21.074  0.00  0.00    +0.000 C 
ENDBRANCH   8  25
BRANCH   9  27
ATOM     27  O   UNL     1       0.074   9.399  17.511  0.00  0.00    +0.000 OA
ATOM     28  H   UNL     1       0.888   9.862  17.220  0.00  0.00    +0.000 HD
ENDBRANCH   9  27
BRANCH  10  29
ATOM     29  O   UNL     1      -2.189  10.701  16.290  0.00  0.00    +0.000 OA
ATOM     30  C   UNL     1      -3.504  11.176  15.908  0.00  0.00    +0.000 C 
ENDBRANCH  10  29
TORSDOF 7
ENDMDL
MODEL 9
REMARK VINA RESULT:      -5.8      7.279     10.228
REMARK  Name = 
REMARK  13 active torsions:
REMARK  status: ('A' for Active; 'I' for Inactive)
REMARK    1  A    between atoms: C_1  and  O_2
REMARK    2  A    between atoms: O_2  and  C_3
REMARK    3  A    between atoms: C_5  and  C_6
REMARK    4  A    between atoms: C_7  and  C_8
REMARK    5  A    between atoms: C_9  and  C_10
REMARK    6  A    between atoms: C_13  and  O_14
REMARK    7  A    between atoms: O_14  and  C_15
REMARK    8  A    between atoms: C_16  and  O_17
REMARK    9  A    between atoms: C_18  and  O_19
REMARK   10  A    between atoms: O_19  and  C_20
REMARK   11  A    between atoms: C_24  and  O_25
REMARK   12  A    between atoms: O_25  and  C_26
REMARK   13  A    between atoms: C_27  and  O_28
REMARK                            x       y       z     vdW  Elec       q    Type
REMARK                         _______ _______ _______ _____ _____    ______ ____
ROOT
ATOM      1  C   UNL     1       0.049  13.542  19.404  0.00  0.00    +0.000 A 
ATOM      2  C   UNL     1       0.037  13.503  20.791  0.00  0.00    +0.000 A 
ATOM      3  C   UNL     1      -0.517  14.759  21.469  0.00  0.00    +0.000 C 
ATOM      4  C   UNL     1      -0.236  12.252  21.255  0.00  0.00    +0.000 A 
ATOM      5  C   UNL     1       0.603  11.079  20.675  0.00  0.00    +0.000 C 
ATOM      6  C   UNL     1      -1.583  12.145  21.164  0.00  0.00    +0.000 A 
ATOM      7  C   UNL     1      -2.112  12.468  19.895  0.00  0.00    +0.000 A 
ATOM      8  C   UNL     1      -3.498  12.307  19.770  0.00  0.00    +0.000 A 
ATOM      9  C   UNL     1      -3.960  11.571  18.693  0.00  0.00    +0.000 A 
ATOM     10  C   UNL     1      -3.074  11.227  17.721  0.00  0.00    +0.000 A 
ATOM     11  C   UNL     1      -1.763  11.895  17.699  0.00  0.00    +0.000 A 
ATOM     12  C   UNL     1      -1.187  12.704  18.848  0.00  0.00    +0.000 A 
ENDROOT
BRANCH   1  15
ATOM     13  C   UNL     1       3.698  15.049  19.620  0.00  0.00    +0.000 A 
ATOM     14  C   UNL     1       2.614  14.150  19.532  0.00  0.00    +0.000 A 
ATOM     15  C   UNL     1       1.262  14.461  18.990  0.00  0.00    +0.000 A 
ATOM     16  C   UNL     1       1.168  15.736  18.418  0.00  0.00    +0.000 A 
ATOM     17  C   UNL     1       2.273  16.651  18.486  0.00  0.00    +0.000 A 
ATOM     18  C   UNL     1       3.506  16.309  19.075  0.00  0.00    +0.000 A 
BRANCH  13  20
ATOM     19  C   UNL     1       5.017  14.551  21.622  0.00  0.00    +0.000 C 
ATOM     20  O   UNL     1       4.899  14.905  20.259  0.00  0.00    +0.000 OA
ENDBRANCH  13  20
BRANCH  17  21
ATOM     21  O   UNL     1       2.249  17.953  18.030  0.00  0.00    +0.000 OA
ATOM     22  C   UNL     1       1.106  18.249  17.243  0.00  0.00    +0.000 C 
ENDBRANCH  17  21
BRANCH  18  23
ATOM     23  O   UNL     1       4.521  17.235  19.185  0.00  0.00    +0.000 OA
ATOM     24  H   UNL     1       4.506  17.766  18.372  0.00  0.00    +0.000 HD
ENDBRANCH  18  23
ENDBRANCH   1  15
BRANCH   8  25
ATOM     25  O   UNL     1      -4.407  12.753  20.702  0.00  0.00    +0.000 OA
ATOM     26  C   UNL     1      -4.644  14.172  20.617  0.00  0.00    +0.000 C 
ENDBRANCH   8  25
BRANCH   9  27
ATOM     27  O   UNL     1      -5.301  11.217  18.685  0.00  0.00    +0.000 OA
ATOM     28  H   UNL     1      -5.591  11.274  17.750  0.00  0.00    +0.000 HD
ENDBRANCH   9  27
BRANCH  10  29
ATOM     29  O   UNL     1      -3.413  10.381  16.674  0.00  0.00    +0.000 OA
ATOM     30  C   UNL     1      -2.899  10.733  15.365  0.00  0.00    +0.000 C 
ENDBRANCH  10  29
TORSDOF 7
ENDMDL
