MODEL 1
REMARK VINA RESULT:      -9.1      0.000      0.000
REMARK  Name = 
REMARK  8 active torsions:
REMARK  status: ('A' for Active; 'I' for Inactive)
REMARK    1  A    between atoms: C_1  and  C_2
REMARK    2  A    between atoms: C_5  and  C_6
REMARK    3  A    between atoms: C_8  and  S_9
REMARK    4  A    between atoms: S_9  and  C_10
REMARK    5  A    between atoms: C_14  and  S_15
REMARK    6  A    between atoms: S_15  and  C_18
REMARK    7  A    between atoms: C_21  and  C_22
REMARK    8  A    between atoms: C_22  and  N_23
REMARK                            x       y       z     vdW  Elec       q    Type
REMARK                         _______ _______ _______ _____ _____    ______ ____
ROOT
ATOM      1  C   UNL     1       3.425   6.244  18.447  0.00  0.00    +0.000 A 
ATOM      2  C   UNL     1       3.116   4.992  19.011  0.00  0.00    +0.000 A 
ATOM      3  C   UNL     1       4.005   3.913  18.915  0.00  0.00    +0.000 A 
ATOM      4  C   UNL     1       5.222   4.042  18.249  0.00  0.00    +0.000 A 
ATOM      5  C   UNL     1       5.529   5.272  17.669  0.00  0.00    +0.000 A 
ATOM      6  C   UNL     1       4.640   6.352  17.747  0.00  0.00    +0.000 A 
ENDROOT
BRANCH   1  11
ATOM      7  C   UNL     1       0.243  11.028  19.389  0.00  0.00    +0.000 C 
ATOM      8  C   UNL     1       1.018   9.770  19.135  0.00  0.00    +0.000 A 
ATOM      9  C   UNL     1       1.187   8.817  20.139  0.00  0.00    +0.000 A 
ATOM     10  C   UNL     1       1.947   7.667  19.902  0.00  0.00    +0.000 A 
ATOM     11  C   UNL     1       2.555   7.425  18.656  0.00  0.00    +0.000 A 
ATOM     12  C   UNL     1       2.348   8.384  17.649  0.00  0.00    +0.000 A 
ATOM     13  C   UNL     1       1.601   9.544  17.887  0.00  0.00    +0.000 A 
ENDBRANCH   1  11
BRANCH   3  14
ATOM     14  S   UNL     1       3.636   2.408  19.790  0.00  0.00    +0.000 S 
ATOM     15  C   UNL     1       2.568   2.932  21.101  0.00  0.00    +0.000 C 
ATOM     16  O   UNL     1       2.878   1.565  18.888  0.00  0.00    +0.000 OA
ATOM     17  O   UNL     1       4.879   1.938  20.373  0.00  0.00    +0.000 OA
ENDBRANCH   3  14
BRANCH   5  18
ATOM     18  S   UNL     1       7.089   5.489  16.852  0.00  0.00    +0.000 S 
ATOM     19  O   UNL     1       7.325   6.915  16.738  0.00  0.00    +0.000 OA
ATOM     20  O   UNL     1       8.064   4.605  17.461  0.00  0.00    +0.000 OA
BRANCH  18  21
ATOM     21  C   UNL     1       6.862   4.921  15.205  0.00  0.00    +0.000 A 
ATOM     22  C   UNL     1       7.561   5.146  14.039  0.00  0.00    +0.000 A 
ATOM     23  N   UNL     1       7.044   4.551  12.905  0.00  0.00    +0.000 NA
ATOM     24  C   UNL     1       5.955   3.874  13.218  0.00  0.00    +0.000 A 
ATOM     25  S   UNL     1       5.524   3.903  14.883  0.00  0.00    +0.000 S 
BRANCH  24  26
ATOM     26  C   UNL     1       5.122   3.112  12.223  0.00  0.00    +0.000 C 
BRANCH  26  27
ATOM     27  N   UNL     1       5.851   1.967  11.672  0.00  0.00    +0.000 NA
ATOM     28  H   UNL     1       6.775   2.292  11.385  0.00  0.00    +0.000 HD
ATOM     29  H   UNL     1       5.385   1.663  10.819  0.00  0.00    +0.000 HD
ENDBRANCH  26  27
ENDBRANCH  24  26
ENDBRANCH  18  21
ENDBRANCH   5  18
TORSDOF 6
ENDMDL
MODEL 2
REMARK VINA RESULT:      -9.0      0.702      1.160
REMARK  Name = 
REMARK  8 active torsions:
REMARK  status: ('A' for Active; 'I' for Inactive)
REMARK    1  A    between atoms: C_1  and  C_2
REMARK    2  A    between atoms: C_5  and  C_6
REMARK    3  A    between atoms: C_8  and  S_9
REMARK    4  A    between atoms: S_9  and  C_10
REMARK    5  A    between atoms: C_14  and  S_15
REMARK    6  A    between atoms: S_15  and  C_18
REMARK    7  A    between atoms: C_21  and  C_22
REMARK    8  A    between atoms: C_22  and  N_23
REMARK                            x       y       z     vdW  Elec       q    Type
REMARK                         _______ _______ _______ _____ _____    ______ ____
ROOT
ATOM      1  C   UNL     1       3.309   6.287  18.291  0.00  0.00    +0.000 A 
ATOM      2  C   UNL     1       2.857   5.007  18.663  0.00  0.00    +0.000 A 
ATOM      3  C   UNL     1       3.647   3.868  18.453  0.00  0.00    +0.000 A 
ATOM      4  C   UNL     1       4.904   3.966  17.861  0.00  0.00    +0.000 A 
ATOM      5  C   UNL     1       5.353   5.226  17.470  0.00  0.00    +0.000 A 
ATOM      6  C   UNL     1       4.564   6.368  17.661  0.00  0.00    +0.000 A 
ENDROOT
BRANCH   1  11
ATOM      7  C   UNL     1       0.044  10.954  19.496  0.00  0.00    +0.000 C 
ATOM      8  C   UNL     1       0.928   9.781  19.196  0.00  0.00    +0.000 A 
ATOM      9  C   UNL     1       1.498   9.616  17.935  0.00  0.00    +0.000 A 
ATOM     10  C   UNL     1       2.287   8.495  17.656  0.00  0.00    +0.000 A 
ATOM     11  C   UNL     1       2.541   7.508  18.626  0.00  0.00    +0.000 A 
ATOM     12  C   UNL     1       1.980   7.709  19.900  0.00  0.00    +0.000 A 
ATOM     13  C   UNL     1       1.178   8.821  20.179  0.00  0.00    +0.000 A 
ENDBRANCH   1  11
BRANCH   3  14
ATOM     14  S   UNL     1       3.096   2.303  19.095  0.00  0.00    +0.000 S 
ATOM     15  C   UNL     1       1.355   2.304  18.775  0.00  0.00    +0.000 C 
ATOM     16  O   UNL     1       3.711   1.270  18.288  0.00  0.00    +0.000 OA
ATOM     17  O   UNL     1       3.296   2.337  20.533  0.00  0.00    +0.000 OA
ENDBRANCH   3  14
BRANCH   5  18
ATOM     18  S   UNL     1       6.968   5.397  16.754  0.00  0.00    +0.000 S 
ATOM     19  O   UNL     1       7.259   6.815  16.674  0.00  0.00    +0.000 OA
ATOM     20  O   UNL     1       7.871   4.473  17.410  0.00  0.00    +0.000 OA
BRANCH  18  21
ATOM     21  C   UNL     1       6.824   4.856  15.089  0.00  0.00    +0.000 A 
ATOM     22  C   UNL     1       7.543   5.149  13.951  0.00  0.00    +0.000 A 
ATOM     23  N   UNL     1       7.096   4.551  12.788  0.00  0.00    +0.000 NA
ATOM     24  C   UNL     1       6.041   3.804  13.052  0.00  0.00    +0.000 A 
ATOM     25  S   UNL     1       5.560   3.768  14.703  0.00  0.00    +0.000 S 
BRANCH  24  26
ATOM     26  C   UNL     1       5.286   3.018  12.015  0.00  0.00    +0.000 C 
BRANCH  26  27
ATOM     27  N   UNL     1       5.995   1.792  11.643  0.00  0.00    +0.000 NA
ATOM     28  H   UNL     1       6.543   1.988  10.805  0.00  0.00    +0.000 HD
ATOM     29  H   UNL     1       5.311   1.088  11.371  0.00  0.00    +0.000 HD
ENDBRANCH  26  27
ENDBRANCH  24  26
ENDBRANCH  18  21
ENDBRANCH   5  18
TORSDOF 6
ENDMDL
MODEL 3
REMARK VINA RESULT:      -8.6      0.900      1.348
REMARK  Name = 
REMARK  8 active torsions:
REMARK  status: ('A' for Active; 'I' for Inactive)
REMARK    1  A    between atoms: C_1  and  C_2
REMARK    2  A    between atoms: C_5  and  C_6
REMARK    3  A    between atoms: C_8  and  S_9
REMARK    4  A    between atoms: S_9  and  C_10
REMARK    5  A    between atoms: C_14  and  S_15
REMARK    6  A    between atoms: S_15  and  C_18
REMARK    7  A    between atoms: C_21  and  C_22
REMARK    8  A    between atoms: C_22  and  N_23
REMARK                            x       y       z     vdW  Elec       q    Type
REMARK                         _______ _______ _______ _____ _____    ______ ____
ROOT
ATOM      1  C   UNL     1       3.197   6.370  18.614  0.00  0.00    +0.000 A 
ATOM      2  C   UNL     1       2.925   5.129  19.220  0.00  0.00    +0.000 A 
ATOM      3  C   UNL     1       3.778   4.032  19.044  0.00  0.00    +0.000 A 
ATOM      4  C   UNL     1       4.921   4.131  18.255  0.00  0.00    +0.000 A 
ATOM      5  C   UNL     1       5.190   5.349  17.633  0.00  0.00    +0.000 A 
ATOM      6  C   UNL     1       4.335   6.448  17.791  0.00  0.00    +0.000 A 
ENDROOT
BRANCH   1  11
ATOM      7  C   UNL     1      -0.273  10.932  19.636  0.00  0.00    +0.000 C 
ATOM      8  C   UNL     1       0.663   9.789  19.381  0.00  0.00    +0.000 A 
ATOM      9  C   UNL     1       1.209   9.577  18.116  0.00  0.00    +0.000 A 
ATOM     10  C   UNL     1       2.047   8.482  17.880  0.00  0.00    +0.000 A 
ATOM     11  C   UNL     1       2.376   7.569  18.900  0.00  0.00    +0.000 A 
ATOM     12  C   UNL     1       1.838   7.817  20.175  0.00  0.00    +0.000 A 
ATOM     13  C   UNL     1       0.987   8.903  20.411  0.00  0.00    +0.000 A 
ENDBRANCH   1  11
BRANCH   3  14
ATOM     14  S   UNL     1       3.474   2.542  19.968  0.00  0.00    +0.000 S 
ATOM     15  C   UNL     1       2.482   3.085  21.330  0.00  0.00    +0.000 C 
ATOM     16  O   UNL     1       2.669   1.677  19.130  0.00  0.00    +0.000 OA
ATOM     17  O   UNL     1       4.753   2.091  20.485  0.00  0.00    +0.000 OA
ENDBRANCH   3  14
BRANCH   5  18
ATOM     18  S   UNL     1       6.661   5.528  16.657  0.00  0.00    +0.000 S 
ATOM     19  O   UNL     1       6.841   6.943  16.397  0.00  0.00    +0.000 OA
ATOM     20  O   UNL     1       7.715   4.726  17.246  0.00  0.00    +0.000 OA
BRANCH  18  21
ATOM     21  C   UNL     1       6.302   4.809  15.095  0.00  0.00    +0.000 A 
ATOM     22  C   UNL     1       5.155   4.255  14.568  0.00  0.00    +0.000 A 
ATOM     23  N   UNL     1       5.270   3.739  13.292  0.00  0.00    +0.000 NA
ATOM     24  C   UNL     1       6.503   3.909  12.854  0.00  0.00    +0.000 A 
ATOM     25  S   UNL     1       7.565   4.713  13.944  0.00  0.00    +0.000 S 
BRANCH  24  26
ATOM     26  C   UNL     1       6.988   3.453  11.506  0.00  0.00    +0.000 C 
BRANCH  26  27
ATOM     27  N   UNL     1       7.181   2.001  11.463  0.00  0.00    +0.000 NA
ATOM     28  H   UNL     1       7.350   1.679  12.416  0.00  0.00    +0.000 HD
ATOM     29  H   UNL     1       8.033   1.800  10.944  0.00  0.00    +0.000 HD
ENDBRANCH  26  27
ENDBRANCH  24  26
ENDBRANCH  18  21
ENDBRANCH   5  18
TORSDOF 6
ENDMDL
MODEL 4
REMARK VINA RESULT:      -8.5      0.852      1.369
REMARK  Name = 
REMARK  8 active torsions:
REMARK  status: ('A' for Active; 'I' for Inactive)
REMARK    1  A    between atoms: C_1  and  C_2
REMARK    2  A    between atoms: C_5  and  C_6
REMARK    3  A    between atoms: C_8  and  S_9
REMARK    4  A    between atoms: S_9  and  C_10
REMARK    5  A    between atoms: C_14  and  S_15
REMARK    6  A    between atoms: S_15  and  C_18
REMARK    7  A    between atoms: C_21  and  C_22
REMARK    8  A    between atoms: C_22  and  N_23
REMARK                            x       y       z     vdW  Elec       q    Type
REMARK                         _______ _______ _______ _____ _____    ______ ____
ROOT
ATOM      1  C   UNL     1       3.289   6.354  18.724  0.00  0.00    +0.000 A 
ATOM      2  C   UNL     1       2.863   5.130  19.272  0.00  0.00    +0.000 A 
ATOM      3  C   UNL     1       3.694   4.002  19.263  0.00  0.00    +0.000 A 
ATOM      4  C   UNL     1       4.968   4.053  18.701  0.00  0.00    +0.000 A 
ATOM      5  C   UNL     1       5.392   5.255  18.137  0.00  0.00    +0.000 A 
ATOM      6  C   UNL     1       4.562   6.384  18.128  0.00  0.00    +0.000 A 
ENDROOT
BRANCH   1  11
ATOM      7  C   UNL     1      -0.157  11.032  19.099  0.00  0.00    +0.000 C 
ATOM      8  C   UNL     1       0.772   9.860  19.011  0.00  0.00    +0.000 A 
ATOM      9  C   UNL     1       1.408   9.536  17.813  0.00  0.00    +0.000 A 
ATOM     10  C   UNL     1       2.239   8.414  17.733  0.00  0.00    +0.000 A 
ATOM     11  C   UNL     1       2.472   7.584  18.846  0.00  0.00    +0.000 A 
ATOM     12  C   UNL     1       1.845   7.945  20.051  0.00  0.00    +0.000 A 
ATOM     13  C   UNL     1       1.000   9.058  20.132  0.00  0.00    +0.000 A 
ENDBRANCH   1  11
BRANCH   3  14
ATOM     14  S   UNL     1       3.169   2.534  20.119  0.00  0.00    +0.000 S 
ATOM     15  C   UNL     1       4.682   1.687  20.476  0.00  0.00    +0.000 C 
ATOM     16  O   UNL     1       2.574   2.958  21.370  0.00  0.00    +0.000 OA
ATOM     17  O   UNL     1       2.411   1.735  19.173  0.00  0.00    +0.000 OA
ENDBRANCH   3  14
BRANCH   5  18
ATOM     18  S   UNL     1       7.025   5.372  17.452  0.00  0.00    +0.000 S 
ATOM     19  O   UNL     1       7.398   6.773  17.458  0.00  0.00    +0.000 OA
ATOM     20  O   UNL     1       7.863   4.362  18.065  0.00  0.00    +0.000 OA
BRANCH  18  21
ATOM     21  C   UNL     1       6.877   4.935  15.757  0.00  0.00    +0.000 A 
ATOM     22  C   UNL     1       7.575   5.321  14.633  0.00  0.00    +0.000 A 
ATOM     23  N   UNL     1       7.131   4.787  13.439  0.00  0.00    +0.000 NA
ATOM     24  C   UNL     1       6.100   3.996  13.663  0.00  0.00    +0.000 A 
ATOM     25  S   UNL     1       5.638   3.841  15.314  0.00  0.00    +0.000 S 
BRANCH  24  26
ATOM     26  C   UNL     1       5.354   3.258  12.585  0.00  0.00    +0.000 C 
BRANCH  26  27
ATOM     27  N   UNL     1       6.213   2.291  11.898  0.00  0.00    +0.000 NA
ATOM     28  H   UNL     1       7.082   2.765  11.649  0.00  0.00    +0.000 HD
ATOM     29  H   UNL     1       5.774   2.032  11.017  0.00  0.00    +0.000 HD
ENDBRANCH  26  27
ENDBRANCH  24  26
ENDBRANCH  18  21
ENDBRANCH   5  18
TORSDOF 6
ENDMDL
MODEL 5
REMARK VINA RESULT:      -8.5      0.877      1.148
REMARK  Name = 
REMARK  8 active torsions:
REMARK  status: ('A' for Active; 'I' for Inactive)
REMARK    1  A    between atoms: C_1  and  C_2
REMARK    2  A    between atoms: C_5  and  C_6
REMARK    3  A    between atoms: C_8  and  S_9
REMARK    4  A    between atoms: S_9  and  C_10
REMARK    5  A    between atoms: C_14  and  S_15
REMARK    6  A    between atoms: S_15  and  C_18
REMARK    7  A    between atoms: C_21  and  C_22
REMARK    8  A    between atoms: C_22  and  N_23
REMARK                            x       y       z     vdW  Elec       q    Type
REMARK                         _______ _______ _______ _____ _____    ______ ____
ROOT
ATOM      1  C   UNL     1       3.084   6.434  18.339  0.00  0.00    +0.000 A 
ATOM      2  C   UNL     1       2.562   5.176  18.693  0.00  0.00    +0.000 A 
ATOM      3  C   UNL     1       3.322   4.007  18.548  0.00  0.00    +0.000 A 
ATOM      4  C   UNL     1       4.618   4.052  18.038  0.00  0.00    +0.000 A 
ATOM      5  C   UNL     1       5.137   5.290  17.665  0.00  0.00    +0.000 A 
ATOM      6  C   UNL     1       4.380   6.462  17.793  0.00  0.00    +0.000 A 
ENDROOT
BRANCH   1  11
ATOM      7  C   UNL     1       0.418  11.471  19.528  0.00  0.00    +0.000 C 
ATOM      8  C   UNL     1       1.057  10.153  19.212  0.00  0.00    +0.000 A 
ATOM      9  C   UNL     1       1.159   9.154  20.179  0.00  0.00    +0.000 A 
ATOM     10  C   UNL     1       1.795   7.944  19.883  0.00  0.00    +0.000 A 
ATOM     11  C   UNL     1       2.341   7.686  18.612  0.00  0.00    +0.000 A 
ATOM     12  C   UNL     1       2.203   8.695  17.642  0.00  0.00    +0.000 A 
ATOM     13  C   UNL     1       1.580   9.913  17.939  0.00  0.00    +0.000 A 
ENDBRANCH   1  11
BRANCH   3  14
ATOM     14  S   UNL     1       2.673   2.471  19.167  0.00  0.00    +0.000 S 
ATOM     15  C   UNL     1       3.774   1.251  18.509  0.00  0.00    +0.000 C 
ATOM     16  O   UNL     1       2.822   2.494  20.608  0.00  0.00    +0.000 OA
ATOM     17  O   UNL     1       1.368   2.283  18.561  0.00  0.00    +0.000 OA
ENDBRANCH   3  14
BRANCH   5  18
ATOM     18  S   UNL     1       6.801   5.394  17.055  0.00  0.00    +0.000 S 
ATOM     19  O   UNL     1       7.155   6.799  16.997  0.00  0.00    +0.000 OA
ATOM     20  O   UNL     1       7.621   4.434  17.766  0.00  0.00    +0.000 OA
BRANCH  18  21
ATOM     21  C   UNL     1       6.742   4.858  15.383  0.00  0.00    +0.000 A 
ATOM     22  C   UNL     1       7.563   5.096  14.302  0.00  0.00    +0.000 A 
ATOM     23  N   UNL     1       7.162   4.527  13.108  0.00  0.00    +0.000 NA
ATOM     24  C   UNL     1       6.039   3.858  13.292  0.00  0.00    +0.000 A 
ATOM     25  S   UNL     1       5.435   3.863  14.903  0.00  0.00    +0.000 S 
BRANCH  24  26
ATOM     26  C   UNL     1       5.309   3.124  12.200  0.00  0.00    +0.000 C 
BRANCH  26  27
ATOM     27  N   UNL     1       6.082   1.984  11.704  0.00  0.00    +0.000 NA
ATOM     28  H   UNL     1       6.542   2.269  10.839  0.00  0.00    +0.000 HD
ATOM     29  H   UNL     1       5.437   1.239  11.445  0.00  0.00    +0.000 HD
ENDBRANCH  26  27
ENDBRANCH  24  26
ENDBRANCH  18  21
ENDBRANCH   5  18
TORSDOF 6
ENDMDL
MODEL 6
REMARK VINA RESULT:      -8.3      1.030      1.112
REMARK  Name = 
REMARK  8 active torsions:
REMARK  status: ('A' for Active; 'I' for Inactive)
REMARK    1  A    between atoms: C_1  and  C_2
REMARK    2  A    between atoms: C_5  and  C_6
REMARK    3  A    between atoms: C_8  and  S_9
REMARK    4  A    between atoms: S_9  and  C_10
REMARK    5  A    between atoms: C_14  and  S_15
REMARK    6  A    between atoms: S_15  and  C_18
REMARK    7  A    between atoms: C_21  and  C_22
REMARK    8  A    between atoms: C_22  and  N_23
REMARK                            x       y       z     vdW  Elec       q    Type
REMARK                         _______ _______ _______ _____ _____    ______ ____
ROOT
ATOM      1  C   UNL     1       2.894   6.589  18.802  0.00  0.00    +0.000 A 
ATOM      2  C   UNL     1       2.577   5.352  19.394  0.00  0.00    +0.000 A 
ATOM      3  C   UNL     1       3.420   4.242  19.252  0.00  0.00    +0.000 A 
ATOM      4  C   UNL     1       4.597   4.324  18.511  0.00  0.00    +0.000 A 
ATOM      5  C   UNL     1       4.910   5.539  17.903  0.00  0.00    +0.000 A 
ATOM      6  C   UNL     1       4.066   6.650  18.027  0.00  0.00    +0.000 A 
ENDROOT
BRANCH   1  11
ATOM      7  C   UNL     1      -0.052  11.490  19.897  0.00  0.00    +0.000 C 
ATOM      8  C   UNL     1       0.660  10.203  19.608  0.00  0.00    +0.000 A 
ATOM      9  C   UNL     1       0.876   9.261  20.613  0.00  0.00    +0.000 A 
ATOM     10  C   UNL     1       1.579   8.083  20.340  0.00  0.00    +0.000 A 
ATOM     11  C   UNL     1       2.081   7.801  19.055  0.00  0.00    +0.000 A 
ATOM     12  C   UNL     1       1.827   8.751  18.050  0.00  0.00    +0.000 A 
ATOM     13  C   UNL     1       1.138   9.938  18.322  0.00  0.00    +0.000 A 
ENDBRANCH   1  11
BRANCH   3  14
ATOM     14  S   UNL     1       3.054   2.756  20.159  0.00  0.00    +0.000 S 
ATOM     15  C   UNL     1       2.193   3.337  21.593  0.00  0.00    +0.000 C 
ATOM     16  O   UNL     1       2.134   1.979  19.354  0.00  0.00    +0.000 OA
ATOM     17  O   UNL     1       4.322   2.192  20.586  0.00  0.00    +0.000 OA
ENDBRANCH   3  14
BRANCH   5  18
ATOM     18  S   UNL     1       6.423   5.695  16.989  0.00  0.00    +0.000 S 
ATOM     19  O   UNL     1       6.615   7.105  16.705  0.00  0.00    +0.000 OA
ATOM     20  O   UNL     1       7.449   4.907  17.642  0.00  0.00    +0.000 OA
BRANCH  18  21
ATOM     21  C   UNL     1       6.133   4.941  15.429  0.00  0.00    +0.000 A 
ATOM     22  C   UNL     1       5.015   4.360  14.872  0.00  0.00    +0.000 A 
ATOM     23  N   UNL     1       5.184   3.821  13.611  0.00  0.00    +0.000 NA
ATOM     24  C   UNL     1       6.431   4.000  13.217  0.00  0.00    +0.000 A 
ATOM     25  S   UNL     1       7.440   4.840  14.329  0.00  0.00    +0.000 S 
BRANCH  24  26
ATOM     26  C   UNL     1       6.973   3.524  11.897  0.00  0.00    +0.000 C 
BRANCH  26  27
ATOM     27  N   UNL     1       6.667   2.111  11.664  0.00  0.00    +0.000 NA
ATOM     28  H   UNL     1       7.546   1.593  11.677  0.00  0.00    +0.000 HD
ATOM     29  H   UNL     1       6.295   2.007  10.722  0.00  0.00    +0.000 HD
ENDBRANCH  26  27
ENDBRANCH  24  26
ENDBRANCH  18  21
ENDBRANCH   5  18
TORSDOF 6
ENDMDL
MODEL 7
REMARK VINA RESULT:      -8.1      1.183      1.733
REMARK  Name = 
REMARK  8 active torsions:
REMARK  status: ('A' for Active; 'I' for Inactive)
REMARK    1  A    between atoms: C_1  and  C_2
REMARK    2  A    between atoms: C_5  and  C_6
REMARK    3  A    between atoms: C_8  and  S_9
REMARK    4  A    between atoms: S_9  and  C_10
REMARK    5  A    between atoms: C_14  and  S_15
REMARK    6  A    between atoms: S_15  and  C_18
REMARK    7  A    between atoms: C_21  and  C_22
REMARK    8  A    between atoms: C_22  and  N_23
REMARK                            x       y       z     vdW  Elec       q    Type
REMARK                         _______ _______ _______ _____ _____    ______ ____
ROOT
ATOM      1  C   UNL     1       2.964   6.542  18.577  0.00  0.00    +0.000 A 
ATOM      2  C   UNL     1       2.575   5.282  19.068  0.00  0.00    +0.000 A 
ATOM      3  C   UNL     1       3.356   4.141  18.839  0.00  0.00    +0.000 A 
ATOM      4  C   UNL     1       4.539   4.216  18.107  0.00  0.00    +0.000 A 
ATOM      5  C   UNL     1       4.923   5.455  17.598  0.00  0.00    +0.000 A 
ATOM      6  C   UNL     1       4.141   6.599  17.810  0.00  0.00    +0.000 A 
ENDROOT
BRANCH   1  11
ATOM      7  C   UNL     1      -0.220  11.250  19.840  0.00  0.00    +0.000 C 
ATOM      8  C   UNL     1       0.644  10.067  19.524  0.00  0.00    +0.000 A 
ATOM      9  C   UNL     1       1.170   9.883  18.246  0.00  0.00    +0.000 A 
ATOM     10  C   UNL     1       1.939   8.752  17.953  0.00  0.00    +0.000 A 
ATOM     11  C   UNL     1       2.218   7.774  18.925  0.00  0.00    +0.000 A 
ATOM     12  C   UNL     1       1.702   7.992  20.215  0.00  0.00    +0.000 A 
ATOM     13  C   UNL     1       0.919   9.114  20.509  0.00  0.00    +0.000 A 
ENDBRANCH   1  11
BRANCH   3  14
ATOM     14  S   UNL     1       2.903   2.610  19.625  0.00  0.00    +0.000 S 
ATOM     15  C   UNL     1       3.492   1.370  18.508  0.00  0.00    +0.000 C 
ATOM     16  O   UNL     1       3.664   2.520  20.854  0.00  0.00    +0.000 OA
ATOM     17  O   UNL     1       1.453   2.554  19.647  0.00  0.00    +0.000 OA
ENDBRANCH   3  14
BRANCH   5  18
ATOM     18  S   UNL     1       6.447   5.599  16.701  0.00  0.00    +0.000 S 
ATOM     19  O   UNL     1       6.654   7.006  16.420  0.00  0.00    +0.000 OA
ATOM     20  O   UNL     1       7.459   4.802  17.365  0.00  0.00    +0.000 OA
BRANCH  18  21
ATOM     21  C   UNL     1       6.167   4.847  15.138  0.00  0.00    +0.000 A 
ATOM     22  C   UNL     1       5.051   4.274  14.569  0.00  0.00    +0.000 A 
ATOM     23  N   UNL     1       5.229   3.735  13.310  0.00  0.00    +0.000 NA
ATOM     24  C   UNL     1       6.480   3.905  12.928  0.00  0.00    +0.000 A 
ATOM     25  S   UNL     1       7.484   4.739  14.050  0.00  0.00    +0.000 S 
BRANCH  24  26
ATOM     26  C   UNL     1       7.032   3.427  11.613  0.00  0.00    +0.000 C 
BRANCH  26  27
ATOM     27  N   UNL     1       7.003   1.966  11.514  0.00  0.00    +0.000 NA
ATOM     28  H   UNL     1       6.683   1.721  10.576  0.00  0.00    +0.000 HD
ATOM     29  H   UNL     1       6.295   1.609  12.152  0.00  0.00    +0.000 HD
ENDBRANCH  26  27
ENDBRANCH  24  26
ENDBRANCH  18  21
ENDBRANCH   5  18
TORSDOF 6
ENDMDL
MODEL 8
REMARK VINA RESULT:      -8.1      3.001      4.118
REMARK  Name = 
REMARK  8 active torsions:
REMARK  status: ('A' for Active; 'I' for Inactive)
REMARK    1  A    between atoms: C_1  and  C_2
REMARK    2  A    between atoms: C_5  and  C_6
REMARK    3  A    between atoms: C_8  and  S_9
REMARK    4  A    between atoms: S_9  and  C_10
REMARK    5  A    between atoms: C_14  and  S_15
REMARK    6  A    between atoms: S_15  and  C_18
REMARK    7  A    between atoms: C_21  and  C_22
REMARK    8  A    between atoms: C_22  and  N_23
REMARK                            x       y       z     vdW  Elec       q    Type
REMARK                         _______ _______ _______ _____ _____    ______ ____
ROOT
ATOM      1  C   UNL     1       2.700   6.407  18.354  0.00  0.00    +0.000 A 
ATOM      2  C   UNL     1       2.135   5.155  18.657  0.00  0.00    +0.000 A 
ATOM      3  C   UNL     1       2.778   3.962  18.298  0.00  0.00    +0.000 A 
ATOM      4  C   UNL     1       3.995   3.979  17.619  0.00  0.00    +0.000 A 
ATOM      5  C   UNL     1       4.553   5.214  17.296  0.00  0.00    +0.000 A 
ATOM      6  C   UNL     1       3.910   6.411  17.637  0.00  0.00    +0.000 A 
ENDROOT
BRANCH   1  11
ATOM      7  C   UNL     1       0.060  11.260  20.191  0.00  0.00    +0.000 C 
ATOM      8  C   UNL     1       0.787  10.035  19.724  0.00  0.00    +0.000 A 
ATOM      9  C   UNL     1       1.180   9.896  18.394  0.00  0.00    +0.000 A 
ATOM     10  C   UNL     1       1.819   8.730  17.962  0.00  0.00    +0.000 A 
ATOM     11  C   UNL     1       2.097   7.669  18.843  0.00  0.00    +0.000 A 
ATOM     12  C   UNL     1       1.718   7.840  20.187  0.00  0.00    +0.000 A 
ATOM     13  C   UNL     1       1.064   8.999  20.620  0.00  0.00    +0.000 A 
ENDBRANCH   1  11
BRANCH   3  14
ATOM     14  S   UNL     1       2.102   2.413  18.854  0.00  0.00    +0.000 S 
ATOM     15  C   UNL     1       1.935   2.629  20.604  0.00  0.00    +0.000 C 
ATOM     16  O   UNL     1       0.779   2.293  18.277  0.00  0.00    +0.000 OA
ATOM     17  O   UNL     1       3.110   1.396  18.615  0.00  0.00    +0.000 OA
ENDBRANCH   3  14
BRANCH   5  18
ATOM     18  S   UNL     1       6.124   5.276  16.472  0.00  0.00    +0.000 S 
ATOM     19  O   UNL     1       6.744   3.974  16.622  0.00  0.00    +0.000 OA
ATOM     20  O   UNL     1       5.946   5.886  15.169  0.00  0.00    +0.000 OA
BRANCH  18  21
ATOM     21  C   UNL     1       7.122   6.379  17.406  0.00  0.00    +0.000 A 
ATOM     22  C   UNL     1       7.868   6.213  18.553  0.00  0.00    +0.000 A 
ATOM     23  N   UNL     1       8.498   7.347  19.028  0.00  0.00    +0.000 NA
ATOM     24  C   UNL     1       8.228   8.368  18.237  0.00  0.00    +0.000 A 
ATOM     25  S   UNL     1       7.232   8.005  16.881  0.00  0.00    +0.000 S 
BRANCH  24  26
ATOM     26  C   UNL     1       8.737   9.766  18.462  0.00  0.00    +0.000 C 
BRANCH  26  27
ATOM     27  N   UNL     1       9.358   9.909  19.781  0.00  0.00    +0.000 NA
ATOM     28  H   UNL     1      10.303  10.269  19.646  0.00  0.00    +0.000 HD
ATOM     29  H   UNL     1       9.467   8.984  20.193  0.00  0.00    +0.000 HD
ENDBRANCH  26  27
ENDBRANCH  24  26
ENDBRANCH  18  21
ENDBRANCH   5  18
TORSDOF 6
ENDMDL
MODEL 9
REMARK VINA RESULT:      -7.9      3.077      4.098
REMARK  Name = 
REMARK  8 active torsions:
REMARK  status: ('A' for Active; 'I' for Inactive)
REMARK    1  A    between atoms: C_1  and  C_2
REMARK    2  A    between atoms: C_5  and  C_6
REMARK    3  A    between atoms: C_8  and  S_9
REMARK    4  A    between atoms: S_9  and  C_10
REMARK    5  A    between atoms: C_14  and  S_15
REMARK    6  A    between atoms: S_15  and  C_18
REMARK    7  A    between atoms: C_21  and  C_22
REMARK    8  A    between atoms: C_22  and  N_23
REMARK                            x       y       z     vdW  Elec       q    Type
REMARK                         _______ _______ _______ _____ _____    ______ ____
ROOT
ATOM      1  C   UNL     1       2.790   6.435  18.399  0.00  0.00    +0.000 A 
ATOM      2  C   UNL     1       2.340   5.168  18.815  0.00  0.00    +0.000 A 
ATOM      3  C   UNL     1       3.084   4.010  18.548  0.00  0.00    +0.000 A 
ATOM      4  C   UNL     1       4.289   4.076  17.854  0.00  0.00    +0.000 A 
ATOM      5  C   UNL     1       4.734   5.323  17.419  0.00  0.00    +0.000 A 
ATOM      6  C   UNL     1       3.990   6.484  17.668  0.00  0.00    +0.000 A 
ENDROOT
BRANCH   1  11
ATOM      7  C   UNL     1       0.270  11.426  20.023  0.00  0.00    +0.000 C 
ATOM      8  C   UNL     1       0.870  10.120  19.599  0.00  0.00    +0.000 A 
ATOM      9  C   UNL     1       1.091   9.099  20.523  0.00  0.00    +0.000 A 
ATOM     10  C   UNL     1       1.691   7.900  20.123  0.00  0.00    +0.000 A 
ATOM     11  C   UNL     1       2.081   7.676  18.789  0.00  0.00    +0.000 A 
ATOM     12  C   UNL     1       1.823   8.707  17.868  0.00  0.00    +0.000 A 
ATOM     13  C   UNL     1       1.237   9.914  18.267  0.00  0.00    +0.000 A 
ENDBRANCH   1  11
BRANCH   3  14
ATOM     14  S   UNL     1       2.551   2.462  19.243  0.00  0.00    +0.000 S 
ATOM     15  C   UNL     1       0.839   2.367  18.803  0.00  0.00    +0.000 C 
ATOM     16  O   UNL     1       3.263   1.412  18.543  0.00  0.00    +0.000 OA
ATOM     17  O   UNL     1       2.646   2.585  20.686  0.00  0.00    +0.000 OA
ENDBRANCH   3  14
BRANCH   5  18
ATOM     18  S   UNL     1       6.288   5.452  16.571  0.00  0.00    +0.000 S 
ATOM     19  O   UNL     1       6.944   4.163  16.669  0.00  0.00    +0.000 OA
ATOM     20  O   UNL     1       6.070   6.098  15.292  0.00  0.00    +0.000 OA
BRANCH  18  21
ATOM     21  C   UNL     1       7.274   6.551  17.522  0.00  0.00    +0.000 A 
ATOM     22  C   UNL     1       8.013   6.378  18.673  0.00  0.00    +0.000 A 
ATOM     23  N   UNL     1       8.633   7.511  19.163  0.00  0.00    +0.000 NA
ATOM     24  C   UNL     1       8.364   8.538  18.379  0.00  0.00    +0.000 A 
ATOM     25  S   UNL     1       7.380   8.182  17.013  0.00  0.00    +0.000 S 
BRANCH  24  26
ATOM     26  C   UNL     1       8.865   9.936  18.621  0.00  0.00    +0.000 C 
BRANCH  26  27
ATOM     27  N   UNL     1       9.389  10.095  19.979  0.00  0.00    +0.000 NA
ATOM     28  H   UNL     1       8.692   9.731  20.630  0.00  0.00    +0.000 HD
ATOM     29  H   UNL     1       9.472  11.089  20.184  0.00  0.00    +0.000 HD
ENDBRANCH  26  27
ENDBRANCH  24  26
ENDBRANCH  18  21
ENDBRANCH   5  18
TORSDOF 6
ENDMDL
