MODEL 1
REMARK VINA RESULT:      -8.2      0.000      0.000
REMARK  Name = 
REMARK  11 active torsions:
REMARK  status: ('A' for Active; 'I' for Inactive)
REMARK    1  A    between atoms: C_1  and  C_2
REMARK    2  A    between atoms: C_2  and  C_3
REMARK    3  A    between atoms: C_3  and  C_4
REMARK    4  A    between atoms: C_4  and  C_5
REMARK    5  A    between atoms: C_5  and  C_6
REMARK    6  A    between atoms: C_6  and  C_7
REMARK    7  A    between atoms: C_7  and  C_8
REMARK    8  A    between atoms: C_8  and  C_9
REMARK    9  A    between atoms: C_9  and  N_10
REMARK   10  A    between atoms: C_11  and  C_12
REMARK   11  A    between atoms: C_15  and  C_16
REMARK                            x       y       z     vdW  Elec       q    Type
REMARK                         _______ _______ _______ _____ _____    ______ ____
ROOT
ATOM      1  N   UNL     1       4.129   5.145  18.947  0.00  0.00    +0.000 N 
ATOM      2  C   UNL     1       2.967   5.681  19.501  0.00  0.00    +0.000 A 
ATOM      3  C   UNL     1       2.505   4.660  20.316  0.00  0.00    +0.000 A 
ATOM      4  N   UNL     1       3.275   3.535  20.215  0.00  0.00    +0.000 NA
ATOM      5  C   UNL     1       4.229   3.836  19.374  0.00  0.00    +0.000 A 
ATOM      6  N   UNL     1       5.198   2.993  18.983  0.00  0.00    +0.000 N 
ATOM      7  H   UNL     1       5.246   2.129  19.514  0.00  0.00    +0.000 HD
ATOM      8  H   UNL     1       6.106   3.318  18.679  0.00  0.00    +0.000 HD
ENDROOT
BRANCH   2   9
ATOM      9  C   UNL     1       2.412   7.021  19.283  0.00  0.00    +0.000 A 
ATOM     10  C   UNL     1       1.782   7.708  20.319  0.00  0.00    +0.000 A 
ATOM     11  C   UNL     1       1.194   8.955  20.106  0.00  0.00    +0.000 A 
ATOM     12  C   UNL     1       1.322   9.634  18.887  0.00  0.00    +0.000 A 
ATOM     13  C   UNL     1       1.984   8.956  17.849  0.00  0.00    +0.000 A 
ATOM     14  C   UNL     1       2.506   7.663  18.039  0.00  0.00    +0.000 A 
BRANCH  12  15
ATOM     15  C   UNL     1       0.819  11.022  18.767  0.00  0.00    +0.000 A 
ATOM     16  C   UNL     1      -0.571  11.274  18.774  0.00  0.00    +0.000 A 
ATOM     17  C   UNL     1      -1.091  12.560  18.639  0.00  0.00    +0.000 A 
ATOM     18  C   UNL     1      -0.227  13.640  18.515  0.00  0.00    +0.000 A 
ATOM     19  C   UNL     1       1.149  13.428  18.522  0.00  0.00    +0.000 A 
ATOM     20  C   UNL     1       1.668  12.131  18.641  0.00  0.00    +0.000 A 
ENDBRANCH  12  15
ENDBRANCH   2   9
BRANCH   1  21
ATOM     21  C   UNL     1       5.121   5.839  18.142  0.00  0.00    +0.000 C 
BRANCH  21  22
ATOM     22  C   UNL     1       4.951   5.646  16.634  0.00  0.00    +0.000 C 
BRANCH  22  23
ATOM     23  C   UNL     1       6.238   5.134  15.995  0.00  0.00    +0.000 C 
BRANCH  23  24
ATOM     24  C   UNL     1       5.960   4.004  15.014  0.00  0.00    +0.000 C 
BRANCH  24  25
ATOM     25  C   UNL     1       6.652   4.290  13.686  0.00  0.00    +0.000 C 
BRANCH  25  26
ATOM     26  C   UNL     1       6.123   3.381  12.584  0.00  0.00    +0.000 C 
BRANCH  26  27
ATOM     27  C   UNL     1       4.707   3.791  12.188  0.00  0.00    +0.000 C 
BRANCH  27  29
ATOM     28  C   UNL     1       3.207   3.684  10.180  0.00  0.00    +0.000 C 
ATOM     29  C   UNL     1       4.175   2.913  11.060  0.00  0.00    +0.000 C 
ENDBRANCH  27  29
ENDBRANCH  26  27
ENDBRANCH  25  26
ENDBRANCH  24  25
ENDBRANCH  23  24
ENDBRANCH  22  23
ENDBRANCH  21  22
ENDBRANCH   1  21
TORSDOF 10
ENDMDL
MODEL 2
REMARK VINA RESULT:      -8.1      0.690      1.610
REMARK  Name = 
REMARK  11 active torsions:
REMARK  status: ('A' for Active; 'I' for Inactive)
REMARK    1  A    between atoms: C_1  and  C_2
REMARK    2  A    between atoms: C_2  and  C_3
REMARK    3  A    between atoms: C_3  and  C_4
REMARK    4  A    between atoms: C_4  and  C_5
REMARK    5  A    between atoms: C_5  and  C_6
REMARK    6  A    between atoms: C_6  and  C_7
REMARK    7  A    between atoms: C_7  and  C_8
REMARK    8  A    between atoms: C_8  and  C_9
REMARK    9  A    between atoms: C_9  and  N_10
REMARK   10  A    between atoms: C_11  and  C_12
REMARK   11  A    between atoms: C_15  and  C_16
REMARK                            x       y       z     vdW  Elec       q    Type
REMARK                         _______ _______ _______ _____ _____    ______ ____
ROOT
ATOM      1  N   UNL     1       3.998   4.644  19.404  0.00  0.00    +0.000 N 
ATOM      2  C   UNL     1       2.701   5.148  19.476  0.00  0.00    +0.000 A 
ATOM      3  C   UNL     1       1.937   4.020  19.730  0.00  0.00    +0.000 A 
ATOM      4  N   UNL     1       2.691   2.880  19.731  0.00  0.00    +0.000 NA
ATOM      5  C   UNL     1       3.919   3.270  19.512  0.00  0.00    +0.000 A 
ATOM      6  N   UNL     1       4.977   2.449  19.420  0.00  0.00    +0.000 N 
ATOM      7  H   UNL     1       4.794   1.491  19.698  0.00  0.00    +0.000 HD
ATOM      8  H   UNL     1       5.916   2.751  19.647  0.00  0.00    +0.000 HD
ENDROOT
BRANCH   2   9
ATOM      9  C   UNL     1       2.279   6.548  19.348  0.00  0.00    +0.000 A 
ATOM     10  C   UNL     1       2.357   7.205  18.123  0.00  0.00    +0.000 A 
ATOM     11  C   UNL     1       2.019   8.554  18.005  0.00  0.00    +0.000 A 
ATOM     12  C   UNL     1       1.463   9.273  19.071  0.00  0.00    +0.000 A 
ATOM     13  C   UNL     1       1.354   8.602  20.301  0.00  0.00    +0.000 A 
ATOM     14  C   UNL     1       1.772   7.265  20.441  0.00  0.00    +0.000 A 
BRANCH  12  15
ATOM     15  C   UNL     1       0.973  10.652  18.846  0.00  0.00    +0.000 A 
ATOM     16  C   UNL     1       1.887  11.693  18.573  0.00  0.00    +0.000 A 
ATOM     17  C   UNL     1       1.475  13.010  18.379  0.00  0.00    +0.000 A 
ATOM     18  C   UNL     1       0.122  13.320  18.431  0.00  0.00    +0.000 A 
ATOM     19  C   UNL     1      -0.808  12.315  18.682  0.00  0.00    +0.000 A 
ATOM     20  C   UNL     1      -0.387  10.994  18.893  0.00  0.00    +0.000 A 
ENDBRANCH  12  15
ENDBRANCH   2   9
BRANCH   1  21
ATOM     21  C   UNL     1       5.235   5.405  19.323  0.00  0.00    +0.000 C 
BRANCH  21  22
ATOM     22  C   UNL     1       5.486   6.052  17.960  0.00  0.00    +0.000 C 
BRANCH  22  23
ATOM     23  C   UNL     1       5.270   5.053  16.828  0.00  0.00    +0.000 C 
BRANCH  23  24
ATOM     24  C   UNL     1       6.079   5.428  15.594  0.00  0.00    +0.000 C 
BRANCH  24  25
ATOM     25  C   UNL     1       6.480   4.166  14.836  0.00  0.00    +0.000 C 
BRANCH  25  26
ATOM     26  C   UNL     1       5.521   3.889  13.686  0.00  0.00    +0.000 C 
BRANCH  26  27
ATOM     27  C   UNL     1       6.291   3.453  12.443  0.00  0.00    +0.000 C 
BRANCH  27  29
ATOM     28  C   UNL     1       4.074   3.237  11.287  0.00  0.00    +0.000 C 
ATOM     29  C   UNL     1       5.424   2.586  11.534  0.00  0.00    +0.000 C 
ENDBRANCH  27  29
ENDBRANCH  26  27
ENDBRANCH  25  26
ENDBRANCH  24  25
ENDBRANCH  23  24
ENDBRANCH  22  23
ENDBRANCH  21  22
ENDBRANCH   1  21
TORSDOF 10
ENDMDL
MODEL 3
REMARK VINA RESULT:      -8.0      2.900      4.722
REMARK  Name = 
REMARK  11 active torsions:
REMARK  status: ('A' for Active; 'I' for Inactive)
REMARK    1  A    between atoms: C_1  and  C_2
REMARK    2  A    between atoms: C_2  and  C_3
REMARK    3  A    between atoms: C_3  and  C_4
REMARK    4  A    between atoms: C_4  and  C_5
REMARK    5  A    between atoms: C_5  and  C_6
REMARK    6  A    between atoms: C_6  and  C_7
REMARK    7  A    between atoms: C_7  and  C_8
REMARK    8  A    between atoms: C_8  and  C_9
REMARK    9  A    between atoms: C_9  and  N_10
REMARK   10  A    between atoms: C_11  and  C_12
REMARK   11  A    between atoms: C_15  and  C_16
REMARK                            x       y       z     vdW  Elec       q    Type
REMARK                         _______ _______ _______ _____ _____    ______ ____
ROOT
ATOM      1  N   UNL     1       4.037   4.558  19.525  0.00  0.00    +0.000 N 
ATOM      2  C   UNL     1       2.759   5.098  19.655  0.00  0.00    +0.000 A 
ATOM      3  C   UNL     1       2.006   4.025  20.104  0.00  0.00    +0.000 A 
ATOM      4  N   UNL     1       2.741   2.874  20.170  0.00  0.00    +0.000 NA
ATOM      5  C   UNL     1       3.949   3.208  19.798  0.00  0.00    +0.000 A 
ATOM      6  N   UNL     1       4.983   2.356  19.707  0.00  0.00    +0.000 N 
ATOM      7  H   UNL     1       4.812   1.440  20.108  0.00  0.00    +0.000 HD
ATOM      8  H   UNL     1       5.942   2.659  19.812  0.00  0.00    +0.000 HD
ENDROOT
BRANCH   2   9
ATOM      9  C   UNL     1       2.347   6.484  19.405  0.00  0.00    +0.000 A 
ATOM     10  C   UNL     1       1.868   7.282  20.442  0.00  0.00    +0.000 A 
ATOM     11  C   UNL     1       1.413   8.579  20.202  0.00  0.00    +0.000 A 
ATOM     12  C   UNL     1       1.538   9.187  18.946  0.00  0.00    +0.000 A 
ATOM     13  C   UNL     1       2.050   8.394  17.905  0.00  0.00    +0.000 A 
ATOM     14  C   UNL     1       2.432   7.057  18.128  0.00  0.00    +0.000 A 
BRANCH  12  15
ATOM     15  C   UNL     1       1.190  10.618  18.789  0.00  0.00    +0.000 A 
ATOM     16  C   UNL     1      -0.141  11.048  18.986  0.00  0.00    +0.000 A 
ATOM     17  C   UNL     1      -0.521  12.380  18.824  0.00  0.00    +0.000 A 
ATOM     18  C   UNL     1       0.434  13.328  18.480  0.00  0.00    +0.000 A 
ATOM     19  C   UNL     1       1.758  12.940  18.294  0.00  0.00    +0.000 A 
ATOM     20  C   UNL     1       2.133  11.597  18.441  0.00  0.00    +0.000 A 
ENDBRANCH  12  15
ENDBRANCH   2   9
BRANCH   1  21
ATOM     21  C   UNL     1       5.272   5.275  19.248  0.00  0.00    +0.000 C 
BRANCH  21  22
ATOM     22  C   UNL     1       5.644   5.332  17.765  0.00  0.00    +0.000 C 
BRANCH  22  23
ATOM     23  C   UNL     1       5.952   6.761  17.329  0.00  0.00    +0.000 C 
BRANCH  23  24
ATOM     24  C   UNL     1       7.441   6.956  17.079  0.00  0.00    +0.000 C 
BRANCH  24  25
ATOM     25  C   UNL     1       8.077   7.659  18.273  0.00  0.00    +0.000 C 
BRANCH  25  26
ATOM     26  C   UNL     1       8.247   9.149  18.007  0.00  0.00    +0.000 C 
BRANCH  26  27
ATOM     27  C   UNL     1       9.128   9.786  19.077  0.00  0.00    +0.000 C 
BRANCH  27  29
ATOM     28  C   UNL     1      10.388  11.844  19.765  0.00  0.00    +0.000 C 
ATOM     29  C   UNL     1       9.466  11.231  18.725  0.00  0.00    +0.000 C 
ENDBRANCH  27  29
ENDBRANCH  26  27
ENDBRANCH  25  26
ENDBRANCH  24  25
ENDBRANCH  23  24
ENDBRANCH  22  23
ENDBRANCH  21  22
ENDBRANCH   1  21
TORSDOF 10
ENDMDL
MODEL 4
REMARK VINA RESULT:      -8.0      0.939      1.808
REMARK  Name = 
REMARK  11 active torsions:
REMARK  status: ('A' for Active; 'I' for Inactive)
REMARK    1  A    between atoms: C_1  and  C_2
REMARK    2  A    between atoms: C_2  and  C_3
REMARK    3  A    between atoms: C_3  and  C_4
REMARK    4  A    between atoms: C_4  and  C_5
REMARK    5  A    between atoms: C_5  and  C_6
REMARK    6  A    between atoms: C_6  and  C_7
REMARK    7  A    between atoms: C_7  and  C_8
REMARK    8  A    between atoms: C_8  and  C_9
REMARK    9  A    between atoms: C_9  and  N_10
REMARK   10  A    between atoms: C_11  and  C_12
REMARK   11  A    between atoms: C_15  and  C_16
REMARK                            x       y       z     vdW  Elec       q    Type
REMARK                         _______ _______ _______ _____ _____    ______ ____
ROOT
ATOM      1  N   UNL     1       4.106   4.550  19.542  0.00  0.00    +0.000 N 
ATOM      2  C   UNL     1       2.798   5.026  19.621  0.00  0.00    +0.000 A 
ATOM      3  C   UNL     1       2.065   3.888  19.918  0.00  0.00    +0.000 A 
ATOM      4  N   UNL     1       2.846   2.766  19.939  0.00  0.00    +0.000 NA
ATOM      5  C   UNL     1       4.060   3.178  19.689  0.00  0.00    +0.000 A 
ATOM      6  N   UNL     1       5.136   2.380  19.603  0.00  0.00    +0.000 N 
ATOM      7  H   UNL     1       4.979   1.425  19.910  0.00  0.00    +0.000 HD
ATOM      8  H   UNL     1       6.070   2.709  19.806  0.00  0.00    +0.000 HD
ENDROOT
BRANCH   2   9
ATOM      9  C   UNL     1       2.342   6.412  19.462  0.00  0.00    +0.000 A 
ATOM     10  C   UNL     1       2.444   7.057  18.232  0.00  0.00    +0.000 A 
ATOM     11  C   UNL     1       2.073   8.394  18.086  0.00  0.00    +0.000 A 
ATOM     12  C   UNL     1       1.460   9.109  19.124  0.00  0.00    +0.000 A 
ATOM     13  C   UNL     1       1.328   8.449  20.357  0.00  0.00    +0.000 A 
ATOM     14  C   UNL     1       1.778   7.126  20.528  0.00  0.00    +0.000 A 
BRANCH  12  15
ATOM     15  C   UNL     1       0.939  10.471  18.864  0.00  0.00    +0.000 A 
ATOM     16  C   UNL     1      -0.448  10.680  18.701  0.00  0.00    +0.000 A 
ATOM     17  C   UNL     1      -0.982  11.939  18.430  0.00  0.00    +0.000 A 
ATOM     18  C   UNL     1      -0.136  13.037  18.339  0.00  0.00    +0.000 A 
ATOM     19  C   UNL     1       1.236  12.869  18.512  0.00  0.00    +0.000 A 
ATOM     20  C   UNL     1       1.770  11.598  18.767  0.00  0.00    +0.000 A 
ENDBRANCH  12  15
ENDBRANCH   2   9
BRANCH   1  21
ATOM     21  C   UNL     1       5.323   5.337  19.421  0.00  0.00    +0.000 C 
BRANCH  21  22
ATOM     22  C   UNL     1       6.234   4.909  18.269  0.00  0.00    +0.000 C 
BRANCH  22  23
ATOM     23  C   UNL     1       6.788   6.119  17.525  0.00  0.00    +0.000 C 
BRANCH  23  24
ATOM     24  C   UNL     1       5.741   6.733  16.605  0.00  0.00    +0.000 C 
BRANCH  24  25
ATOM     25  C   UNL     1       5.198   5.669  15.658  0.00  0.00    +0.000 C 
BRANCH  25  26
ATOM     26  C   UNL     1       6.259   5.230  14.658  0.00  0.00    +0.000 C 
BRANCH  26  27
ATOM     27  C   UNL     1       6.009   3.793  14.209  0.00  0.00    +0.000 C 
BRANCH  27  29
ATOM     28  C   UNL     1       5.091   3.218  11.946  0.00  0.00    +0.000 C 
ATOM     29  C   UNL     1       6.331   3.615  12.729  0.00  0.00    +0.000 C 
ENDBRANCH  27  29
ENDBRANCH  26  27
ENDBRANCH  25  26
ENDBRANCH  24  25
ENDBRANCH  23  24
ENDBRANCH  22  23
ENDBRANCH  21  22
ENDBRANCH   1  21
TORSDOF 10
ENDMDL
MODEL 5
REMARK VINA RESULT:      -7.9      3.718      6.258
REMARK  Name = 
REMARK  11 active torsions:
REMARK  status: ('A' for Active; 'I' for Inactive)
REMARK    1  A    between atoms: C_1  and  C_2
REMARK    2  A    between atoms: C_2  and  C_3
REMARK    3  A    between atoms: C_3  and  C_4
REMARK    4  A    between atoms: C_4  and  C_5
REMARK    5  A    between atoms: C_5  and  C_6
REMARK    6  A    between atoms: C_6  and  C_7
REMARK    7  A    between atoms: C_7  and  C_8
REMARK    8  A    between atoms: C_8  and  C_9
REMARK    9  A    between atoms: C_9  and  N_10
REMARK   10  A    between atoms: C_11  and  C_12
REMARK   11  A    between atoms: C_15  and  C_16
REMARK                            x       y       z     vdW  Elec       q    Type
REMARK                         _______ _______ _______ _____ _____    ______ ____
ROOT
ATOM      1  N   UNL     1       5.672   5.828  16.905  0.00  0.00    +0.000 N 
ATOM      2  C   UNL     1       4.375   5.556  17.336  0.00  0.00    +0.000 A 
ATOM      3  C   UNL     1       4.147   4.273  16.864  0.00  0.00    +0.000 A 
ATOM      4  N   UNL     1       5.194   3.808  16.118  0.00  0.00    +0.000 NA
ATOM      5  C   UNL     1       6.088   4.760  16.135  0.00  0.00    +0.000 A 
ATOM      6  N   UNL     1       7.271   4.710  15.502  0.00  0.00    +0.000 N 
ATOM      7  H   UNL     1       7.511   3.797  15.127  0.00  0.00    +0.000 HD
ATOM      8  H   UNL     1       8.078   5.227  15.824  0.00  0.00    +0.000 HD
ENDROOT
BRANCH   2   9
ATOM      9  C   UNL     1       3.498   6.424  18.130  0.00  0.00    +0.000 A 
ATOM     10  C   UNL     1       3.090   6.047  19.407  0.00  0.00    +0.000 A 
ATOM     11  C   UNL     1       2.206   6.835  20.144  0.00  0.00    +0.000 A 
ATOM     12  C   UNL     1       1.792   8.098  19.699  0.00  0.00    +0.000 A 
ATOM     13  C   UNL     1       2.228   8.494  18.423  0.00  0.00    +0.000 A 
ATOM     14  C   UNL     1       3.054   7.662  17.644  0.00  0.00    +0.000 A 
BRANCH  12  15
ATOM     15  C   UNL     1       0.985   8.959  20.592  0.00  0.00    +0.000 A 
ATOM     16  C   UNL     1       0.955   8.708  21.981  0.00  0.00    +0.000 A 
ATOM     17  C   UNL     1       0.190   9.477  22.857  0.00  0.00    +0.000 A 
ATOM     18  C   UNL     1      -0.555  10.540  22.365  0.00  0.00    +0.000 A 
ATOM     19  C   UNL     1      -0.535  10.826  21.002  0.00  0.00    +0.000 A 
ATOM     20  C   UNL     1       0.223  10.040  20.122  0.00  0.00    +0.000 A 
ENDBRANCH  12  15
ENDBRANCH   2   9
BRANCH   1  21
ATOM     21  C   UNL     1       6.496   6.972  17.262  0.00  0.00    +0.000 C 
BRANCH  21  22
ATOM     22  C   UNL     1       7.661   6.638  18.196  0.00  0.00    +0.000 C 
BRANCH  22  23
ATOM     23  C   UNL     1       8.426   7.896  18.594  0.00  0.00    +0.000 C 
BRANCH  23  24
ATOM     24  C   UNL     1       7.960   9.106  17.795  0.00  0.00    +0.000 C 
BRANCH  24  25
ATOM     25  C   UNL     1       8.873  10.294  18.076  0.00  0.00    +0.000 C 
BRANCH  25  26
ATOM     26  C   UNL     1       9.381  10.269  19.512  0.00  0.00    +0.000 C 
BRANCH  26  27
ATOM     27  C   UNL     1       9.604  11.689  20.024  0.00  0.00    +0.000 C 
BRANCH  27  29
ATOM     28  C   UNL     1       8.511  13.072  21.811  0.00  0.00    +0.000 C 
ATOM     29  C   UNL     1       9.278  11.795  21.511  0.00  0.00    +0.000 C 
ENDBRANCH  27  29
ENDBRANCH  26  27
ENDBRANCH  25  26
ENDBRANCH  24  25
ENDBRANCH  23  24
ENDBRANCH  22  23
ENDBRANCH  21  22
ENDBRANCH   1  21
TORSDOF 10
ENDMDL
MODEL 6
REMARK VINA RESULT:      -7.9      0.755      1.202
REMARK  Name = 
REMARK  11 active torsions:
REMARK  status: ('A' for Active; 'I' for Inactive)
REMARK    1  A    between atoms: C_1  and  C_2
REMARK    2  A    between atoms: C_2  and  C_3
REMARK    3  A    between atoms: C_3  and  C_4
REMARK    4  A    between atoms: C_4  and  C_5
REMARK    5  A    between atoms: C_5  and  C_6
REMARK    6  A    between atoms: C_6  and  C_7
REMARK    7  A    between atoms: C_7  and  C_8
REMARK    8  A    between atoms: C_8  and  C_9
REMARK    9  A    between atoms: C_9  and  N_10
REMARK   10  A    between atoms: C_11  and  C_12
REMARK   11  A    between atoms: C_15  and  C_16
REMARK                            x       y       z     vdW  Elec       q    Type
REMARK                         _______ _______ _______ _____ _____    ______ ____
ROOT
ATOM      1  N   UNL     1       3.978   4.487  19.299  0.00  0.00    +0.000 N 
ATOM      2  C   UNL     1       2.896   5.152  19.874  0.00  0.00    +0.000 A 
ATOM      3  C   UNL     1       2.435   4.248  20.818  0.00  0.00    +0.000 A 
ATOM      4  N   UNL     1       3.125   3.069  20.780  0.00  0.00    +0.000 NA
ATOM      5  C   UNL     1       4.030   3.222  19.849  0.00  0.00    +0.000 A 
ATOM      6  N   UNL     1       4.913   2.280  19.480  0.00  0.00    +0.000 N 
ATOM      7  H   UNL     1       4.948   1.471  20.092  0.00  0.00    +0.000 HD
ATOM      8  H   UNL     1       5.814   2.512  19.083  0.00  0.00    +0.000 HD
ENDROOT
BRANCH   2   9
ATOM      9  C   UNL     1       2.408   6.500  19.560  0.00  0.00    +0.000 A 
ATOM     10  C   UNL     1       1.805   7.284  20.540  0.00  0.00    +0.000 A 
ATOM     11  C   UNL     1       1.280   8.541  20.235  0.00  0.00    +0.000 A 
ATOM     12  C   UNL     1       1.451   9.129  18.975  0.00  0.00    +0.000 A 
ATOM     13  C   UNL     1       2.088   8.351  17.993  0.00  0.00    +0.000 A 
ATOM     14  C   UNL     1       2.544   7.049  18.277  0.00  0.00    +0.000 A 
BRANCH  12  15
ATOM     15  C   UNL     1       1.018  10.528  18.756  0.00  0.00    +0.000 A 
ATOM     16  C   UNL     1       1.979  11.549  18.591  0.00  0.00    +0.000 A 
ATOM     17  C   UNL     1       1.619  12.884  18.408  0.00  0.00    +0.000 A 
ATOM     18  C   UNL     1       0.275  13.231  18.362  0.00  0.00    +0.000 A 
ATOM     19  C   UNL     1      -0.699  12.246  18.505  0.00  0.00    +0.000 A 
ATOM     20  C   UNL     1      -0.332  10.907  18.706  0.00  0.00    +0.000 A 
ENDBRANCH  12  15
ENDBRANCH   2   9
BRANCH   1  21
ATOM     21  C   UNL     1       4.948   5.030  18.362  0.00  0.00    +0.000 C 
BRANCH  21  22
ATOM     22  C   UNL     1       4.721   4.605  16.909  0.00  0.00    +0.000 C 
BRANCH  22  23
ATOM     23  C   UNL     1       6.027   4.171  16.252  0.00  0.00    +0.000 C 
BRANCH  23  24
ATOM     24  C   UNL     1       6.284   4.941  14.964  0.00  0.00    +0.000 C 
BRANCH  24  25
ATOM     25  C   UNL     1       5.467   4.335  13.828  0.00  0.00    +0.000 C 
BRANCH  25  26
ATOM     26  C   UNL     1       6.342   3.487  12.915  0.00  0.00    +0.000 C 
BRANCH  26  27
ATOM     27  C   UNL     1       5.514   2.898  11.777  0.00  0.00    +0.000 C 
BRANCH  27  29
ATOM     28  C   UNL     1       3.395   3.096  10.447  0.00  0.00    +0.000 C 
ATOM     29  C   UNL     1       4.171   3.610  11.647  0.00  0.00    +0.000 C 
ENDBRANCH  27  29
ENDBRANCH  26  27
ENDBRANCH  25  26
ENDBRANCH  24  25
ENDBRANCH  23  24
ENDBRANCH  22  23
ENDBRANCH  21  22
ENDBRANCH   1  21
TORSDOF 10
ENDMDL
MODEL 7
REMARK VINA RESULT:      -7.9      1.476      2.322
REMARK  Name = 
REMARK  11 active torsions:
REMARK  status: ('A' for Active; 'I' for Inactive)
REMARK    1  A    between atoms: C_1  and  C_2
REMARK    2  A    between atoms: C_2  and  C_3
REMARK    3  A    between atoms: C_3  and  C_4
REMARK    4  A    between atoms: C_4  and  C_5
REMARK    5  A    between atoms: C_5  and  C_6
REMARK    6  A    between atoms: C_6  and  C_7
REMARK    7  A    between atoms: C_7  and  C_8
REMARK    8  A    between atoms: C_8  and  C_9
REMARK    9  A    between atoms: C_9  and  N_10
REMARK   10  A    between atoms: C_11  and  C_12
REMARK   11  A    between atoms: C_15  and  C_16
REMARK                            x       y       z     vdW  Elec       q    Type
REMARK                         _______ _______ _______ _____ _____    ______ ____
ROOT
ATOM      1  N   UNL     1       3.615   3.261  18.846  0.00  0.00    +0.000 N 
ATOM      2  C   UNL     1       2.415   3.966  18.782  0.00  0.00    +0.000 A 
ATOM      3  C   UNL     1       1.479   2.975  18.528  0.00  0.00    +0.000 A 
ATOM      4  N   UNL     1       2.063   1.750  18.360  0.00  0.00    +0.000 NA
ATOM      5  C   UNL     1       3.344   1.945  18.531  0.00  0.00    +0.000 A 
ATOM      6  N   UNL     1       4.282   0.989  18.433  0.00  0.00    +0.000 N 
ATOM      7  H   UNL     1       3.917   0.044  18.375  0.00  0.00    +0.000 HD
ATOM      8  H   UNL     1       5.160   1.042  18.933  0.00  0.00    +0.000 HD
ENDROOT
BRANCH   2   9
ATOM      9  C   UNL     1       2.214   5.406  18.979  0.00  0.00    +0.000 A 
ATOM     10  C   UNL     1       2.323   6.292  17.910  0.00  0.00    +0.000 A 
ATOM     11  C   UNL     1       2.197   7.669  18.099  0.00  0.00    +0.000 A 
ATOM     12  C   UNL     1       1.827   8.215  19.335  0.00  0.00    +0.000 A 
ATOM     13  C   UNL     1       1.686   7.319  20.408  0.00  0.00    +0.000 A 
ATOM     14  C   UNL     1       1.893   5.938  20.236  0.00  0.00    +0.000 A 
BRANCH  12  15
ATOM     15  C   UNL     1       1.550   9.666  19.438  0.00  0.00    +0.000 A 
ATOM     16  C   UNL     1       1.943  10.538  18.399  0.00  0.00    +0.000 A 
ATOM     17  C   UNL     1       1.726  11.914  18.464  0.00  0.00    +0.000 A 
ATOM     18  C   UNL     1       1.084  12.456  19.570  0.00  0.00    +0.000 A 
ATOM     19  C   UNL     1       0.668  11.622  20.605  0.00  0.00    +0.000 A 
ATOM     20  C   UNL     1       0.903  10.241  20.543  0.00  0.00    +0.000 A 
ENDBRANCH  12  15
ENDBRANCH   2   9
BRANCH   1  21
ATOM     21  C   UNL     1       4.914   3.771  19.256  0.00  0.00    +0.000 C 
BRANCH  21  22
ATOM     22  C   UNL     1       5.554   4.734  18.255  0.00  0.00    +0.000 C 
BRANCH  22  23
ATOM     23  C   UNL     1       5.315   4.277  16.820  0.00  0.00    +0.000 C 
BRANCH  23  24
ATOM     24  C   UNL     1       5.382   5.446  15.846  0.00  0.00    +0.000 C 
BRANCH  24  25
ATOM     25  C   UNL     1       6.308   5.100  14.685  0.00  0.00    +0.000 C 
BRANCH  25  26
ATOM     26  C   UNL     1       5.946   3.751  14.078  0.00  0.00    +0.000 C 
BRANCH  26  27
ATOM     27  C   UNL     1       6.303   3.719  12.595  0.00  0.00    +0.000 C 
BRANCH  27  29
ATOM     28  C   UNL     1       5.943   1.552  11.382  0.00  0.00    +0.000 C 
ATOM     29  C   UNL     1       5.312   2.867  11.809  0.00  0.00    +0.000 C 
ENDBRANCH  27  29
ENDBRANCH  26  27
ENDBRANCH  25  26
ENDBRANCH  24  25
ENDBRANCH  23  24
ENDBRANCH  22  23
ENDBRANCH  21  22
ENDBRANCH   1  21
TORSDOF 10
ENDMDL
MODEL 8
REMARK VINA RESULT:      -7.9      4.130      6.452
REMARK  Name = 
REMARK  11 active torsions:
REMARK  status: ('A' for Active; 'I' for Inactive)
REMARK    1  A    between atoms: C_1  and  C_2
REMARK    2  A    between atoms: C_2  and  C_3
REMARK    3  A    between atoms: C_3  and  C_4
REMARK    4  A    between atoms: C_4  and  C_5
REMARK    5  A    between atoms: C_5  and  C_6
REMARK    6  A    between atoms: C_6  and  C_7
REMARK    7  A    between atoms: C_7  and  C_8
REMARK    8  A    between atoms: C_8  and  C_9
REMARK    9  A    between atoms: C_9  and  N_10
REMARK   10  A    between atoms: C_11  and  C_12
REMARK   11  A    between atoms: C_15  and  C_16
REMARK                            x       y       z     vdW  Elec       q    Type
REMARK                         _______ _______ _______ _____ _____    ______ ____
ROOT
ATOM      1  N   UNL     1       5.968   5.481  17.303  0.00  0.00    +0.000 N 
ATOM      2  C   UNL     1       4.575   5.447  17.321  0.00  0.00    +0.000 A 
ATOM      3  C   UNL     1       4.273   4.399  16.466  0.00  0.00    +0.000 A 
ATOM      4  N   UNL     1       5.393   3.869  15.889  0.00  0.00    +0.000 NA
ATOM      5  C   UNL     1       6.396   4.544  16.385  0.00  0.00    +0.000 A 
ATOM      6  N   UNL     1       7.684   4.346  16.061  0.00  0.00    +0.000 N 
ATOM      7  H   UNL     1       7.859   3.510  15.513  0.00  0.00    +0.000 HD
ATOM      8  H   UNL     1       8.440   4.564  16.698  0.00  0.00    +0.000 HD
ENDROOT
BRANCH   2   9
ATOM      9  C   UNL     1       3.671   6.305  18.097  0.00  0.00    +0.000 A 
ATOM     10  C   UNL     1       3.241   5.921  19.365  0.00  0.00    +0.000 A 
ATOM     11  C   UNL     1       2.331   6.698  20.083  0.00  0.00    +0.000 A 
ATOM     12  C   UNL     1       1.913   7.956  19.630  0.00  0.00    +0.000 A 
ATOM     13  C   UNL     1       2.371   8.359  18.364  0.00  0.00    +0.000 A 
ATOM     14  C   UNL     1       3.224   7.538  17.602  0.00  0.00    +0.000 A 
BRANCH  12  15
ATOM     15  C   UNL     1       1.076   8.808  20.506  0.00  0.00    +0.000 A 
ATOM     16  C   UNL     1       0.314   9.860  19.952  0.00  0.00    +0.000 A 
ATOM     17  C   UNL     1      -0.468  10.703  20.740  0.00  0.00    +0.000 A 
ATOM     18  C   UNL     1      -0.526  10.500  22.113  0.00  0.00    +0.000 A 
ATOM     19  C   UNL     1       0.200   9.461  22.689  0.00  0.00    +0.000 A 
ATOM     20  C   UNL     1       0.999   8.626  21.895  0.00  0.00    +0.000 A 
ENDBRANCH  12  15
ENDBRANCH   2   9
BRANCH   1  21
ATOM     21  C   UNL     1       6.840   6.278  18.152  0.00  0.00    +0.000 C 
BRANCH  21  22
ATOM     22  C   UNL     1       7.214   7.639  17.563  0.00  0.00    +0.000 C 
BRANCH  22  23
ATOM     23  C   UNL     1       8.308   8.313  18.385  0.00  0.00    +0.000 C 
BRANCH  23  24
ATOM     24  C   UNL     1       8.489   9.770  17.981  0.00  0.00    +0.000 C 
BRANCH  24  25
ATOM     25  C   UNL     1       9.411  10.471  18.972  0.00  0.00    +0.000 C 
BRANCH  25  26
ATOM     26  C   UNL     1      10.470  11.293  18.250  0.00  0.00    +0.000 C 
BRANCH  26  27
ATOM     27  C   UNL     1      10.610  12.669  18.894  0.00  0.00    +0.000 C 
BRANCH  27  29
ATOM     28  C   UNL     1      10.021  13.455  21.203  0.00  0.00    +0.000 C 
ATOM     29  C   UNL     1      10.925  12.551  20.382  0.00  0.00    +0.000 C 
ENDBRANCH  27  29
ENDBRANCH  26  27
ENDBRANCH  25  26
ENDBRANCH  24  25
ENDBRANCH  23  24
ENDBRANCH  22  23
ENDBRANCH  21  22
ENDBRANCH   1  21
TORSDOF 10
ENDMDL
MODEL 9
REMARK VINA RESULT:      -7.9      3.894      5.831
REMARK  Name = 
REMARK  11 active torsions:
REMARK  status: ('A' for Active; 'I' for Inactive)
REMARK    1  A    between atoms: C_1  and  C_2
REMARK    2  A    between atoms: C_2  and  C_3
REMARK    3  A    between atoms: C_3  and  C_4
REMARK    4  A    between atoms: C_4  and  C_5
REMARK    5  A    between atoms: C_5  and  C_6
REMARK    6  A    between atoms: C_6  and  C_7
REMARK    7  A    between atoms: C_7  and  C_8
REMARK    8  A    between atoms: C_8  and  C_9
REMARK    9  A    between atoms: C_9  and  N_10
REMARK   10  A    between atoms: C_11  and  C_12
REMARK   11  A    between atoms: C_15  and  C_16
REMARK                            x       y       z     vdW  Elec       q    Type
REMARK                         _______ _______ _______ _____ _____    ______ ____
ROOT
ATOM      1  N   UNL     1       4.584   5.463  17.079  0.00  0.00    +0.000 N 
ATOM      2  C   UNL     1       3.480   5.284  17.911  0.00  0.00    +0.000 A 
ATOM      3  C   UNL     1       3.280   3.913  17.881  0.00  0.00    +0.000 A 
ATOM      4  N   UNL     1       4.144   3.288  17.026  0.00  0.00    +0.000 NA
ATOM      5  C   UNL     1       4.901   4.234  16.538  0.00  0.00    +0.000 A 
ATOM      6  N   UNL     1       5.879   4.042  15.637  0.00  0.00    +0.000 N 
ATOM      7  H   UNL     1       6.113   3.069  15.468  0.00  0.00    +0.000 HD
ATOM      8  H   UNL     1       6.680   4.656  15.571  0.00  0.00    +0.000 HD
ENDROOT
BRANCH   2   9
ATOM      9  C   UNL     1       2.748   6.315  18.656  0.00  0.00    +0.000 A 
ATOM     10  C   UNL     1       2.368   6.102  19.979  0.00  0.00    +0.000 A 
ATOM     11  C   UNL     1       1.616   7.050  20.675  0.00  0.00    +0.000 A 
ATOM     12  C   UNL     1       1.323   8.307  20.130  0.00  0.00    +0.000 A 
ATOM     13  C   UNL     1       1.733   8.536  18.806  0.00  0.00    +0.000 A 
ATOM     14  C   UNL     1       2.420   7.549  18.074  0.00  0.00    +0.000 A 
BRANCH  12  15
ATOM     15  C   UNL     1       0.665   9.332  20.971  0.00  0.00    +0.000 A 
ATOM     16  C   UNL     1      -0.032   8.949  22.139  0.00  0.00    +0.000 A 
ATOM     17  C   UNL     1      -0.689   9.876  22.948  0.00  0.00    +0.000 A 
ATOM     18  C   UNL     1      -0.646  11.224  22.620  0.00  0.00    +0.000 A 
ATOM     19  C   UNL     1       0.046  11.638  21.484  0.00  0.00    +0.000 A 
ATOM     20  C   UNL     1       0.691  10.701  20.664  0.00  0.00    +0.000 A 
ENDBRANCH  12  15
ENDBRANCH   2   9
BRANCH   1  21
ATOM     21  C   UNL     1       5.341   6.687  16.872  0.00  0.00    +0.000 C 
BRANCH  21  22
ATOM     22  C   UNL     1       6.611   6.790  17.720  0.00  0.00    +0.000 C 
BRANCH  22  23
ATOM     23  C   UNL     1       7.514   7.914  17.225  0.00  0.00    +0.000 C 
BRANCH  23  24
ATOM     24  C   UNL     1       8.378   8.468  18.349  0.00  0.00    +0.000 C 
BRANCH  24  25
ATOM     25  C   UNL     1       8.400   9.992  18.282  0.00  0.00    +0.000 C 
BRANCH  25  26
ATOM     26  C   UNL     1       9.665  10.551  18.919  0.00  0.00    +0.000 C 
BRANCH  26  27
ATOM     27  C   UNL     1      10.334  11.555  17.985  0.00  0.00    +0.000 C 
BRANCH  27  29
ATOM     28  C   UNL     1      12.104  11.814  19.744  0.00  0.00    +0.000 C 
ATOM     29  C   UNL     1      11.832  11.649  18.259  0.00  0.00    +0.000 C 
ENDBRANCH  27  29
ENDBRANCH  26  27
ENDBRANCH  25  26
ENDBRANCH  24  25
ENDBRANCH  23  24
ENDBRANCH  22  23
ENDBRANCH  21  22
ENDBRANCH   1  21
TORSDOF 10
ENDMDL
