MODEL 1
REMARK VINA RESULT:      -8.8      0.000      0.000
REMARK  Name = 
REMARK  4 active torsions:
REMARK  status: ('A' for Active; 'I' for Inactive)
REMARK    1  A    between atoms: C_1  and  N_2
REMARK    2  A    between atoms: N_2  and  S_3
REMARK    3  A    between atoms: S_3  and  C_6
REMARK    4  A    between atoms: C_9  and  C_10
REMARK                            x       y       z     vdW  Elec       q    Type
REMARK                         _______ _______ _______ _____ _____    ______ ____
ROOT
ATOM      1  C   UNL     1       2.201   5.131  18.525  0.00  0.00    +0.000 C 
ATOM      2  C   UNL     1       1.767   4.101  19.560  0.00  0.00    +0.000 C 
ATOM      3  C   UNL     1       2.893   3.516  20.372  0.00  0.00    +0.000 C 
ATOM      4  O   UNL     1       2.693   2.985  21.464  0.00  0.00    +0.000 OA
ATOM      5  N   UNL     1       4.137   3.482  19.815  0.00  0.00    +0.000 N 
ATOM      6  C   UNL     1       4.488   4.046  18.588  0.00  0.00    +0.000 A 
ATOM      7  C   UNL     1       5.805   3.895  18.136  0.00  0.00    +0.000 A 
ATOM      8  C   UNL     1       6.135   4.508  16.948  0.00  0.00    +0.000 A 
ATOM      9  O   UNL     1       7.383   4.492  16.349  0.00  0.00    +0.000 OA
ATOM     10  C   UNL     1       7.173   5.267  15.200  0.00  0.00    +0.000 A 
ATOM     11  O   UNL     1       8.034   5.512  14.373  0.00  0.00    +0.000 OA
ATOM     12  N   UNL     1       5.871   5.713  15.134  0.00  0.00    +0.000 N 
ATOM     13  C   UNL     1       5.211   5.239  16.232  0.00  0.00    +0.000 A 
ATOM     14  C   UNL     1       3.913   5.418  16.652  0.00  0.00    +0.000 A 
ATOM     15  C   UNL     1       3.543   4.811  17.872  0.00  0.00    +0.000 A 
ATOM     16  H   UNL     1       4.835   2.999  20.368  0.00  0.00    +0.000 HD
ATOM     17  H   UNL     1       5.520   6.289  14.390  0.00  0.00    +0.000 HD
ENDROOT
BRANCH   1  21
ATOM     18  C   UNL     1       1.368   9.070  19.886  0.00  0.00    +0.000 A 
ATOM     19  C   UNL     1       1.844   8.910  18.587  0.00  0.00    +0.000 A 
ATOM     20  C   UNL     1       2.292   7.657  18.183  0.00  0.00    +0.000 A 
ATOM     21  C   UNL     1       2.206   6.563  19.061  0.00  0.00    +0.000 A 
ATOM     22  C   UNL     1       1.922   6.791  20.416  0.00  0.00    +0.000 A 
ATOM     23  C   UNL     1       1.506   8.053  20.833  0.00  0.00    +0.000 A 
BRANCH  18  24
ATOM     24  S   UNL     1       0.422  10.512  20.292  0.00  0.00    +0.000 S 
ATOM     25  O   UNL     1      -0.973  10.223  20.046  0.00  0.00    +0.000 OA
ATOM     26  O   UNL     1       1.079  11.675  19.743  0.00  0.00    +0.000 OA
BRANCH  24  28
ATOM     27  C   UNL     1      -0.593  10.424  22.806  0.00  0.00    +0.000 C 
ATOM     28  N   UNL     1       0.595  10.543  21.970  0.00  0.00    +0.000 NA
ATOM     29  H   UNL     1       1.461  10.105  22.284  0.00  0.00    +0.000 HD
ENDBRANCH  24  28
ENDBRANCH  18  24
ENDBRANCH   1  21
TORSDOF 3
ENDMDL
MODEL 2
REMARK VINA RESULT:      -8.6      1.101      1.440
REMARK  Name = 
REMARK  4 active torsions:
REMARK  status: ('A' for Active; 'I' for Inactive)
REMARK    1  A    between atoms: C_1  and  N_2
REMARK    2  A    between atoms: N_2  and  S_3
REMARK    3  A    between atoms: S_3  and  C_6
REMARK    4  A    between atoms: C_9  and  C_10
REMARK                            x       y       z     vdW  Elec       q    Type
REMARK                         _______ _______ _______ _____ _____    ______ ____
ROOT
ATOM      1  C   UNL     1       2.270   5.214  18.332  0.00  0.00    +0.000 C 
ATOM      2  C   UNL     1       1.836   4.232  19.413  0.00  0.00    +0.000 C 
ATOM      3  C   UNL     1       2.961   3.699  20.263  0.00  0.00    +0.000 C 
ATOM      4  O   UNL     1       2.756   3.221  21.378  0.00  0.00    +0.000 OA
ATOM      5  N   UNL     1       4.210   3.651  19.719  0.00  0.00    +0.000 N 
ATOM      6  C   UNL     1       4.567   4.159  18.469  0.00  0.00    +0.000 A 
ATOM      7  C   UNL     1       5.889   3.999  18.036  0.00  0.00    +0.000 A 
ATOM      8  C   UNL     1       6.225   4.557  16.822  0.00  0.00    +0.000 A 
ATOM      9  O   UNL     1       7.478   4.525  16.236  0.00  0.00    +0.000 OA
ATOM     10  C   UNL     1       7.270   5.240  15.049  0.00  0.00    +0.000 A 
ATOM     11  O   UNL     1       8.137   5.453  14.218  0.00  0.00    +0.000 OA
ATOM     12  N   UNL     1       5.965   5.668  14.949  0.00  0.00    +0.000 N 
ATOM     13  C   UNL     1       5.299   5.242  16.063  0.00  0.00    +0.000 A 
ATOM     14  C   UNL     1       3.996   5.428  16.463  0.00  0.00    +0.000 A 
ATOM     15  C   UNL     1       3.621   4.877  17.708  0.00  0.00    +0.000 A 
ATOM     16  H   UNL     1       4.908   3.204  20.301  0.00  0.00    +0.000 HD
ATOM     17  H   UNL     1       5.615   6.204  14.175  0.00  0.00    +0.000 HD
ENDROOT
BRANCH   1  21
ATOM     18  C   UNL     1       1.386   9.209  19.482  0.00  0.00    +0.000 A 
ATOM     19  C   UNL     1       1.889   8.989  18.201  0.00  0.00    +0.000 A 
ATOM     20  C   UNL     1       2.352   7.722  17.869  0.00  0.00    +0.000 A 
ATOM     21  C   UNL     1       2.255   6.671  18.798  0.00  0.00    +0.000 A 
ATOM     22  C   UNL     1       1.943   6.963  20.134  0.00  0.00    +0.000 A 
ATOM     23  C   UNL     1       1.510   8.241  20.480  0.00  0.00    +0.000 A 
BRANCH  18  24
ATOM     24  S   UNL     1       0.423  10.663  19.797  0.00  0.00    +0.000 S 
ATOM     25  O   UNL     1       1.329  11.764  20.038  0.00  0.00    +0.000 OA
ATOM     26  O   UNL     1      -0.647  10.329  20.707  0.00  0.00    +0.000 OA
BRANCH  24  28
ATOM     27  C   UNL     1      -1.567  10.418  17.969  0.00  0.00    +0.000 C 
ATOM     28  N   UNL     1      -0.240  10.941  18.270  0.00  0.00    +0.000 NA
ATOM     29  H   UNL     1       0.029  11.845  17.884  0.00  0.00    +0.000 HD
ENDBRANCH  24  28
ENDBRANCH  18  24
ENDBRANCH   1  21
TORSDOF 3
ENDMDL
MODEL 3
REMARK VINA RESULT:      -8.6      1.191      1.399
REMARK  Name = 
REMARK  4 active torsions:
REMARK  status: ('A' for Active; 'I' for Inactive)
REMARK    1  A    between atoms: C_1  and  N_2
REMARK    2  A    between atoms: N_2  and  S_3
REMARK    3  A    between atoms: S_3  and  C_6
REMARK    4  A    between atoms: C_9  and  C_10
REMARK                            x       y       z     vdW  Elec       q    Type
REMARK                         _______ _______ _______ _____ _____    ______ ____
ROOT
ATOM      1  C   UNL     1       1.904   5.203  19.018  0.00  0.00    +0.000 C 
ATOM      2  C   UNL     1       1.432   4.217  20.080  0.00  0.00    +0.000 C 
ATOM      3  C   UNL     1       2.534   3.629  20.923  0.00  0.00    +0.000 C 
ATOM      4  O   UNL     1       2.308   3.138  22.028  0.00  0.00    +0.000 OA
ATOM      5  N   UNL     1       3.782   3.545  20.381  0.00  0.00    +0.000 N 
ATOM      6  C   UNL     1       4.161   4.062  19.141  0.00  0.00    +0.000 A 
ATOM      7  C   UNL     1       5.478   3.863  18.709  0.00  0.00    +0.000 A 
ATOM      8  C   UNL     1       5.837   4.430  17.506  0.00  0.00    +0.000 A 
ATOM      9  O   UNL     1       7.090   4.363  16.922  0.00  0.00    +0.000 OA
ATOM     10  C   UNL     1       6.912   5.107  15.748  0.00  0.00    +0.000 A 
ATOM     11  O   UNL     1       7.788   5.304  14.924  0.00  0.00    +0.000 OA
ATOM     12  N   UNL     1       5.623   5.584  15.653  0.00  0.00    +0.000 N 
ATOM     13  C   UNL     1       4.939   5.162  16.758  0.00  0.00    +0.000 A 
ATOM     14  C   UNL     1       3.642   5.387  17.157  0.00  0.00    +0.000 A 
ATOM     15  C   UNL     1       3.244   4.828  18.391  0.00  0.00    +0.000 A 
ATOM     16  H   UNL     1       4.462   3.063  20.956  0.00  0.00    +0.000 HD
ATOM     17  H   UNL     1       5.295   6.146  14.888  0.00  0.00    +0.000 HD
ENDROOT
BRANCH   1  21
ATOM     18  C   UNL     1       1.174   9.226  20.178  0.00  0.00    +0.000 A 
ATOM     19  C   UNL     1       1.759   8.995  18.935  0.00  0.00    +0.000 A 
ATOM     20  C   UNL     1       2.170   7.707  18.613  0.00  0.00    +0.000 A 
ATOM     21  C   UNL     1       1.940   6.650  19.511  0.00  0.00    +0.000 A 
ATOM     22  C   UNL     1       1.544   6.940  20.825  0.00  0.00    +0.000 A 
ATOM     23  C   UNL     1       1.164   8.237  21.163  0.00  0.00    +0.000 A 
BRANCH  18  24
ATOM     24  S   UNL     1       0.278  10.730  20.448  0.00  0.00    +0.000 S 
ATOM     25  O   UNL     1       0.509  11.158  21.810  0.00  0.00    +0.000 OA
ATOM     26  O   UNL     1      -1.049  10.593  19.896  0.00  0.00    +0.000 OA
BRANCH  24  28
ATOM     27  C   UNL     1       0.435  12.823  18.729  0.00  0.00    +0.000 C 
ATOM     28  N   UNL     1       1.153  11.799  19.478  0.00  0.00    +0.000 NA
ATOM     29  H   UNL     1       2.065  12.027  19.870  0.00  0.00    +0.000 HD
ENDBRANCH  24  28
ENDBRANCH  18  24
ENDBRANCH   1  21
TORSDOF 3
ENDMDL
MODEL 4
REMARK VINA RESULT:      -7.9      3.822      8.951
REMARK  Name = 
REMARK  4 active torsions:
REMARK  status: ('A' for Active; 'I' for Inactive)
REMARK    1  A    between atoms: C_1  and  N_2
REMARK    2  A    between atoms: N_2  and  S_3
REMARK    3  A    between atoms: S_3  and  C_6
REMARK    4  A    between atoms: C_9  and  C_10
REMARK                            x       y       z     vdW  Elec       q    Type
REMARK                         _______ _______ _______ _____ _____    ______ ____
ROOT
ATOM      1  C   UNL     1      -0.847  10.597  19.593  0.00  0.00    +0.000 C 
ATOM      2  C   UNL     1      -1.885  10.308  18.515  0.00  0.00    +0.000 C 
ATOM      3  C   UNL     1      -1.805  11.209  17.310  0.00  0.00    +0.000 C 
ATOM      4  O   UNL     1      -2.289  10.883  16.227  0.00  0.00    +0.000 OA
ATOM      5  N   UNL     1      -1.281  12.457  17.475  0.00  0.00    +0.000 N 
ATOM      6  C   UNL     1      -0.704  12.942  18.649  0.00  0.00    +0.000 A 
ATOM      7  C   UNL     1      -0.241  14.264  18.669  0.00  0.00    +0.000 A 
ATOM      8  C   UNL     1       0.372  14.697  19.825  0.00  0.00    +0.000 A 
ATOM      9  O   UNL     1       0.910  15.955  20.032  0.00  0.00    +0.000 OA
ATOM     10  C   UNL     1       1.409  15.856  21.337  0.00  0.00    +0.000 A 
ATOM     11  O   UNL     1       1.976  16.761  21.924  0.00  0.00    +0.000 OA
ATOM     12  N   UNL     1       1.175  14.604  21.863  0.00  0.00    +0.000 N 
ATOM     13  C   UNL     1       0.522  13.868  20.916  0.00  0.00    +0.000 A 
ATOM     14  C   UNL     1       0.089  12.562  20.927  0.00  0.00    +0.000 A 
ATOM     15  C   UNL     1      -0.534  12.082  19.754  0.00  0.00    +0.000 A 
ATOM     16  H   UNL     1      -1.332  13.050  16.655  0.00  0.00    +0.000 HD
ATOM     17  H   UNL     1       1.462  14.329  22.786  0.00  0.00    +0.000 HD
ENDROOT
BRANCH   1  21
ATOM     18  C   UNL     1       2.225   7.750  18.875  0.00  0.00    +0.000 A 
ATOM     19  C   UNL     1       1.830   7.974  20.193  0.00  0.00    +0.000 A 
ATOM     20  C   UNL     1       0.960   9.023  20.465  0.00  0.00    +0.000 A 
ATOM     21  C   UNL     1       0.447   9.803  19.414  0.00  0.00    +0.000 A 
ATOM     22  C   UNL     1       1.016   9.692  18.137  0.00  0.00    +0.000 A 
ATOM     23  C   UNL     1       1.914   8.663  17.866  0.00  0.00    +0.000 A 
BRANCH  18  24
ATOM     24  S   UNL     1       2.977   6.204  18.447  0.00  0.00    +0.000 S 
ATOM     25  O   UNL     1       4.237   6.478  17.791  0.00  0.00    +0.000 OA
ATOM     26  O   UNL     1       1.977   5.339  17.868  0.00  0.00    +0.000 OA
BRANCH  24  28
ATOM     27  C   UNL     1       2.734   4.393  20.452  0.00  0.00    +0.000 C 
ATOM     28  N   UNL     1       3.377   5.611  19.976  0.00  0.00    +0.000 NA
ATOM     29  H   UNL     1       4.352   5.778  20.219  0.00  0.00    +0.000 HD
ENDBRANCH  24  28
ENDBRANCH  18  24
ENDBRANCH   1  21
TORSDOF 3
ENDMDL
MODEL 5
REMARK VINA RESULT:      -7.8      2.465      2.768
REMARK  Name = 
REMARK  4 active torsions:
REMARK  status: ('A' for Active; 'I' for Inactive)
REMARK    1  A    between atoms: C_1  and  N_2
REMARK    2  A    between atoms: N_2  and  S_3
REMARK    3  A    between atoms: S_3  and  C_6
REMARK    4  A    between atoms: C_9  and  C_10
REMARK                            x       y       z     vdW  Elec       q    Type
REMARK                         _______ _______ _______ _____ _____    ______ ____
ROOT
ATOM      1  C   UNL     1       3.570   5.262  17.573  0.00  0.00    +0.000 C 
ATOM      2  C   UNL     1       3.446   3.761  17.801  0.00  0.00    +0.000 C 
ATOM      3  C   UNL     1       4.321   3.221  18.903  0.00  0.00    +0.000 C 
ATOM      4  O   UNL     1       4.073   2.151  19.457  0.00  0.00    +0.000 OA
ATOM      5  N   UNL     1       5.471   3.891  19.197  0.00  0.00    +0.000 N 
ATOM      6  C   UNL     1       5.861   5.109  18.638  0.00  0.00    +0.000 A 
ATOM      7  C   UNL     1       7.093   5.655  19.020  0.00  0.00    +0.000 A 
ATOM      8  C   UNL     1       7.427   6.883  18.492  0.00  0.00    +0.000 A 
ATOM      9  O   UNL     1       8.585   7.591  18.762  0.00  0.00    +0.000 OA
ATOM     10  C   UNL     1       8.410   8.752  17.997  0.00  0.00    +0.000 A 
ATOM     11  O   UNL     1       9.216   9.665  17.945  0.00  0.00    +0.000 OA
ATOM     12  N   UNL     1       7.212   8.722  17.317  0.00  0.00    +0.000 N 
ATOM     13  C   UNL     1       6.587   7.547  17.625  0.00  0.00    +0.000 A 
ATOM     14  C   UNL     1       5.365   7.047  17.237  0.00  0.00    +0.000 A 
ATOM     15  C   UNL     1       4.987   5.793  17.768  0.00  0.00    +0.000 A 
ATOM     16  H   UNL     1       6.063   3.437  19.882  0.00  0.00    +0.000 HD
ATOM     17  H   UNL     1       6.897   9.464  16.718  0.00  0.00    +0.000 HD
ENDROOT
BRANCH   1  21
ATOM     18  C   UNL     1       1.525   7.948  20.156  0.00  0.00    +0.000 A 
ATOM     19  C   UNL     1       1.763   6.651  20.608  0.00  0.00    +0.000 A 
ATOM     20  C   UNL     1       2.265   5.709  19.719  0.00  0.00    +0.000 A 
ATOM     21  C   UNL     1       2.581   6.084  18.401  0.00  0.00    +0.000 A 
ATOM     22  C   UNL     1       2.142   7.325  17.917  0.00  0.00    +0.000 A 
ATOM     23  C   UNL     1       1.606   8.261  18.797  0.00  0.00    +0.000 A 
BRANCH  18  24
ATOM     24  S   UNL     1       1.290   9.248  21.335  0.00  0.00    +0.000 S 
ATOM     25  O   UNL     1       1.138  10.493  20.614  0.00  0.00    +0.000 OA
ATOM     26  O   UNL     1       2.242   9.088  22.408  0.00  0.00    +0.000 OA
BRANCH  24  28
ATOM     27  C   UNL     1      -0.719   9.521  23.138  0.00  0.00    +0.000 C 
ATOM     28  N   UNL     1      -0.246   8.870  21.922  0.00  0.00    +0.000 NA
ATOM     29  H   UNL     1      -0.915   8.677  21.178  0.00  0.00    +0.000 HD
ENDBRANCH  24  28
ENDBRANCH  18  24
ENDBRANCH   1  21
TORSDOF 3
ENDMDL
MODEL 6
REMARK VINA RESULT:      -7.8      3.797      9.024
REMARK  Name = 
REMARK  4 active torsions:
REMARK  status: ('A' for Active; 'I' for Inactive)
REMARK    1  A    between atoms: C_1  and  N_2
REMARK    2  A    between atoms: N_2  and  S_3
REMARK    3  A    between atoms: S_3  and  C_6
REMARK    4  A    between atoms: C_9  and  C_10
REMARK                            x       y       z     vdW  Elec       q    Type
REMARK                         _______ _______ _______ _____ _____    ______ ____
ROOT
ATOM      1  C   UNL     1      -0.850  10.544  19.600  0.00  0.00    +0.000 C 
ATOM      2  C   UNL     1      -1.877  10.244  18.515  0.00  0.00    +0.000 C 
ATOM      3  C   UNL     1      -1.794  11.143  17.309  0.00  0.00    +0.000 C 
ATOM      4  O   UNL     1      -2.266  10.810  16.222  0.00  0.00    +0.000 OA
ATOM      5  N   UNL     1      -1.283  12.396  17.475  0.00  0.00    +0.000 N 
ATOM      6  C   UNL     1      -0.720  12.888  18.653  0.00  0.00    +0.000 A 
ATOM      7  C   UNL     1      -0.268  14.214  18.674  0.00  0.00    +0.000 A 
ATOM      8  C   UNL     1       0.330  14.656  19.833  0.00  0.00    +0.000 A 
ATOM      9  O   UNL     1       0.856  15.919  20.042  0.00  0.00    +0.000 OA
ATOM     10  C   UNL     1       1.345  15.826  21.352  0.00  0.00    +0.000 A 
ATOM     11  O   UNL     1       1.899  16.738  21.941  0.00  0.00    +0.000 OA
ATOM     12  N   UNL     1       1.118  14.574  21.879  0.00  0.00    +0.000 N 
ATOM     13  C   UNL     1       0.479  13.830  20.928  0.00  0.00    +0.000 A 
ATOM     14  C   UNL     1       0.058  12.520  20.938  0.00  0.00    +0.000 A 
ATOM     15  C   UNL     1      -0.552  12.032  19.761  0.00  0.00    +0.000 A 
ATOM     16  H   UNL     1      -1.332  12.986  16.653  0.00  0.00    +0.000 HD
ATOM     17  H   UNL     1       1.399  14.303  22.804  0.00  0.00    +0.000 HD
ENDROOT
BRANCH   1  21
ATOM     18  C   UNL     1       2.253   7.721  18.919  0.00  0.00    +0.000 A 
ATOM     19  C   UNL     1       1.848   7.950  20.233  0.00  0.00    +0.000 A 
ATOM     20  C   UNL     1       0.967   8.993  20.493  0.00  0.00    +0.000 A 
ATOM     21  C   UNL     1       0.452   9.761  19.434  0.00  0.00    +0.000 A 
ATOM     22  C   UNL     1       1.030   9.647  18.161  0.00  0.00    +0.000 A 
ATOM     23  C   UNL     1       1.939   8.625  17.902  0.00  0.00    +0.000 A 
BRANCH  18  24
ATOM     24  S   UNL     1       3.022   6.180  18.505  0.00  0.00    +0.000 S 
ATOM     25  O   UNL     1       2.051   5.358  17.818  0.00  0.00    +0.000 OA
ATOM     26  O   UNL     1       3.766   5.704  19.648  0.00  0.00    +0.000 OA
BRANCH  24  28
ATOM     27  C   UNL     1       4.851   5.673  16.567  0.00  0.00    +0.000 C 
ATOM     28  N   UNL     1       4.118   6.680  17.324  0.00  0.00    +0.000 NA
ATOM     29  H   UNL     1       3.821   7.531  16.847  0.00  0.00    +0.000 HD
ENDBRANCH  24  28
ENDBRANCH  18  24
ENDBRANCH   1  21
TORSDOF 3
ENDMDL
MODEL 7
REMARK VINA RESULT:      -7.7      2.542      2.927
REMARK  Name = 
REMARK  4 active torsions:
REMARK  status: ('A' for Active; 'I' for Inactive)
REMARK    1  A    between atoms: C_1  and  N_2
REMARK    2  A    between atoms: N_2  and  S_3
REMARK    3  A    between atoms: S_3  and  C_6
REMARK    4  A    between atoms: C_9  and  C_10
REMARK                            x       y       z     vdW  Elec       q    Type
REMARK                         _______ _______ _______ _____ _____    ______ ____
ROOT
ATOM      1  C   UNL     1       3.695   4.960  17.632  0.00  0.00    +0.000 C 
ATOM      2  C   UNL     1       3.650   3.467  17.933  0.00  0.00    +0.000 C 
ATOM      3  C   UNL     1       4.531   3.032  19.075  0.00  0.00    +0.000 C 
ATOM      4  O   UNL     1       4.332   1.978  19.678  0.00  0.00    +0.000 OA
ATOM      5  N   UNL     1       5.635   3.781  19.357  0.00  0.00    +0.000 N 
ATOM      6  C   UNL     1       5.968   4.990  18.746  0.00  0.00    +0.000 A 
ATOM      7  C   UNL     1       7.159   5.623  19.122  0.00  0.00    +0.000 A 
ATOM      8  C   UNL     1       7.435   6.841  18.541  0.00  0.00    +0.000 A 
ATOM      9  O   UNL     1       8.545   7.627  18.796  0.00  0.00    +0.000 OA
ATOM     10  C   UNL     1       8.322   8.737  17.971  0.00  0.00    +0.000 A 
ATOM     11  O   UNL     1       9.076   9.691  17.888  0.00  0.00    +0.000 OA
ATOM     12  N   UNL     1       7.141   8.606  17.272  0.00  0.00    +0.000 N 
ATOM     13  C   UNL     1       6.577   7.414  17.626  0.00  0.00    +0.000 A 
ATOM     14  C   UNL     1       5.393   6.826  17.242  0.00  0.00    +0.000 A 
ATOM     15  C   UNL     1       5.075   5.580  17.827  0.00  0.00    +0.000 A 
ATOM     16  H   UNL     1       6.237   3.395  20.074  0.00  0.00    +0.000 HD
ATOM     17  H   UNL     1       6.797   9.298  16.631  0.00  0.00    +0.000 HD
ENDROOT
BRANCH   1  21
ATOM     18  C   UNL     1       1.453   7.537  20.162  0.00  0.00    +0.000 A 
ATOM     19  C   UNL     1       1.583   6.200  20.533  0.00  0.00    +0.000 A 
ATOM     20  C   UNL     1       2.154   5.305  19.636  0.00  0.00    +0.000 A 
ATOM     21  C   UNL     1       2.644   5.763  18.401  0.00  0.00    +0.000 A 
ATOM     22  C   UNL     1       2.316   7.057  17.970  0.00  0.00    +0.000 A 
ATOM     23  C   UNL     1       1.713   7.949  18.854  0.00  0.00    +0.000 A 
BRANCH  18  24
ATOM     24  S   UNL     1       1.125   8.754  21.407  0.00  0.00    +0.000 S 
ATOM     25  O   UNL     1       2.291   8.861  22.256  0.00  0.00    +0.000 OA
ATOM     26  O   UNL     1      -0.200   8.538  21.938  0.00  0.00    +0.000 OA
BRANCH  24  28
ATOM     27  C   UNL     1      -0.163  10.845  20.255  0.00  0.00    +0.000 C 
ATOM     28  N   UNL     1       1.105  10.161  20.477  0.00  0.00    +0.000 NA
ATOM     29  H   UNL     1       1.949  10.721  20.592  0.00  0.00    +0.000 HD
ENDBRANCH  24  28
ENDBRANCH  18  24
ENDBRANCH   1  21
TORSDOF 3
ENDMDL
MODEL 8
REMARK VINA RESULT:      -7.7      4.839      8.183
REMARK  Name = 
REMARK  4 active torsions:
REMARK  status: ('A' for Active; 'I' for Inactive)
REMARK    1  A    between atoms: C_1  and  N_2
REMARK    2  A    between atoms: N_2  and  S_3
REMARK    3  A    between atoms: S_3  and  C_6
REMARK    4  A    between atoms: C_9  and  C_10
REMARK                            x       y       z     vdW  Elec       q    Type
REMARK                         _______ _______ _______ _____ _____    ______ ____
ROOT
ATOM      1  C   UNL     1       5.836   5.939  17.196  0.00  0.00    +0.000 C 
ATOM      2  C   UNL     1       6.988   6.457  18.048  0.00  0.00    +0.000 C 
ATOM      3  C   UNL     1       7.385   5.549  19.183  0.00  0.00    +0.000 C 
ATOM      4  O   UNL     1       8.495   5.620  19.709  0.00  0.00    +0.000 OA
ATOM      5  N   UNL     1       6.438   4.714  19.700  0.00  0.00    +0.000 N 
ATOM      6  C   UNL     1       5.148   4.545  19.194  0.00  0.00    +0.000 A 
ATOM      7  C   UNL     1       4.279   3.673  19.860  0.00  0.00    +0.000 A 
ATOM      8  C   UNL     1       3.031   3.485  19.308  0.00  0.00    +0.000 A 
ATOM      9  O   UNL     1       2.043   2.653  19.804  0.00  0.00    +0.000 OA
ATOM     10  C   UNL     1       1.012   2.823  18.870  0.00  0.00    +0.000 A 
ATOM     11  O   UNL     1      -0.066   2.258  18.931  0.00  0.00    +0.000 OA
ATOM     12  N   UNL     1       1.381   3.707  17.880  0.00  0.00    +0.000 N 
ATOM     13  C   UNL     1       2.652   4.129  18.149  0.00  0.00    +0.000 A 
ATOM     14  C   UNL     1       3.484   4.983  17.461  0.00  0.00    +0.000 A 
ATOM     15  C   UNL     1       4.775   5.189  17.996  0.00  0.00    +0.000 A 
ATOM     16  H   UNL     1       6.733   4.192  20.516  0.00  0.00    +0.000 HD
ATOM     17  H   UNL     1       0.785   3.958  17.112  0.00  0.00    +0.000 HD
ENDROOT
BRANCH   1  21
ATOM     18  C   UNL     1       6.479   3.983  13.478  0.00  0.00    +0.000 A 
ATOM     19  C   UNL     1       5.765   3.305  14.464  0.00  0.00    +0.000 A 
ATOM     20  C   UNL     1       5.699   3.848  15.741  0.00  0.00    +0.000 A 
ATOM     21  C   UNL     1       6.296   5.093  16.008  0.00  0.00    +0.000 A 
ATOM     22  C   UNL     1       7.175   5.648  15.067  0.00  0.00    +0.000 A 
ATOM     23  C   UNL     1       7.272   5.087  13.795  0.00  0.00    +0.000 A 
BRANCH  18  24
ATOM     24  S   UNL     1       6.238   3.546  11.778  0.00  0.00    +0.000 S 
ATOM     25  O   UNL     1       7.059   4.417  10.965  0.00  0.00    +0.000 OA
ATOM     26  O   UNL     1       4.827   3.365  11.534  0.00  0.00    +0.000 OA
BRANCH  24  28
ATOM     27  C   UNL     1       6.333   0.943  11.019  0.00  0.00    +0.000 C 
ATOM     28  N   UNL     1       6.987   2.035  11.730  0.00  0.00    +0.000 NA
ATOM     29  H   UNL     1       8.004   2.101  11.698  0.00  0.00    +0.000 HD
ENDBRANCH  24  28
ENDBRANCH  18  24
ENDBRANCH   1  21
TORSDOF 3
ENDMDL
MODEL 9
REMARK VINA RESULT:      -7.3      3.656      8.405
REMARK  Name = 
REMARK  4 active torsions:
REMARK  status: ('A' for Active; 'I' for Inactive)
REMARK    1  A    between atoms: C_1  and  N_2
REMARK    2  A    between atoms: N_2  and  S_3
REMARK    3  A    between atoms: S_3  and  C_6
REMARK    4  A    between atoms: C_9  and  C_10
REMARK                            x       y       z     vdW  Elec       q    Type
REMARK                         _______ _______ _______ _____ _____    ______ ____
ROOT
ATOM      1  C   UNL     1      -0.096  10.344  19.987  0.00  0.00    +0.000 C 
ATOM      2  C   UNL     1      -1.344  10.082  19.153  0.00  0.00    +0.000 C 
ATOM      3  C   UNL     1      -1.380  10.813  17.835  0.00  0.00    +0.000 C 
ATOM      4  O   UNL     1      -2.094  10.435  16.907  0.00  0.00    +0.000 OA
ATOM      5  N   UNL     1      -0.688  11.983  17.730  0.00  0.00    +0.000 N 
ATOM      6  C   UNL     1       0.152  12.515  18.709  0.00  0.00    +0.000 A 
ATOM      7  C   UNL     1       0.768  13.748  18.462  0.00  0.00    +0.000 A 
ATOM      8  C   UNL     1       1.633  14.223  19.424  0.00  0.00    +0.000 A 
ATOM      9  O   UNL     1       2.349  15.405  19.356  0.00  0.00    +0.000 OA
ATOM     10  C   UNL     1       3.066  15.389  20.560  0.00  0.00    +0.000 A 
ATOM     11  O   UNL     1       3.838  16.266  20.907  0.00  0.00    +0.000 OA
ATOM     12  N   UNL     1       2.785  14.256  21.290  0.00  0.00    +0.000 N 
ATOM     13  C   UNL     1       1.882  13.516  20.582  0.00  0.00    +0.000 A 
ATOM     14  C   UNL     1       1.304  12.296  20.851  0.00  0.00    +0.000 A 
ATOM     15  C   UNL     1       0.419  11.776  19.881  0.00  0.00    +0.000 A 
ATOM     16  H   UNL     1      -0.819  12.475  16.855  0.00  0.00    +0.000 HD
ATOM     17  H   UNL     1       3.202  14.053  22.181  0.00  0.00    +0.000 HD
ENDROOT
BRANCH   1  21
ATOM     18  C   UNL     1       2.420   7.078  18.953  0.00  0.00    +0.000 A 
ATOM     19  C   UNL     1       2.087   7.254  20.295  0.00  0.00    +0.000 A 
ATOM     20  C   UNL     1       1.419   8.411  20.677  0.00  0.00    +0.000 A 
ATOM     21  C   UNL     1       1.036   9.355  19.708  0.00  0.00    +0.000 A 
ATOM     22  C   UNL     1       1.560   9.256  18.411  0.00  0.00    +0.000 A 
ATOM     23  C   UNL     1       2.260   8.114  18.031  0.00  0.00    +0.000 A 
BRANCH  18  24
ATOM     24  S   UNL     1       2.883   5.467  18.379  0.00  0.00    +0.000 S 
ATOM     25  O   UNL     1       1.762   4.900  17.664  0.00  0.00    +0.000 OA
ATOM     26  O   UNL     1       3.556   4.764  19.445  0.00  0.00    +0.000 OA
BRANCH  24  28
ATOM     27  C   UNL     1       5.390   6.165  17.610  0.00  0.00    +0.000 C 
ATOM     28  N   UNL     1       4.023   5.868  17.200  0.00  0.00    +0.000 NA
ATOM     29  H   UNL     1       3.871   5.371  16.323  0.00  0.00    +0.000 HD
ENDBRANCH  24  28
ENDBRANCH  18  24
ENDBRANCH   1  21
TORSDOF 3
ENDMDL
