MODEL 1
REMARK VINA RESULT:      -7.2      0.000      0.000
REMARK  Name = 
REMARK  11 active torsions:
REMARK  status: ('A' for Active; 'I' for Inactive)
REMARK    1  A    between atoms: C_1  and  O_2
REMARK    2  A    between atoms: O_2  and  C_3
REMARK    3  A    between atoms: C_6  and  N_7
REMARK    4  A    between atoms: N_7  and  C_8
REMARK    5  A    between atoms: N_7  and  S_12
REMARK    6  A    between atoms: C_8  and  C_9
REMARK    7  A    between atoms: C_9  and  O_11
REMARK    8  A    between atoms: S_12  and  C_15
REMARK    9  A    between atoms: C_20  and  N_21
REMARK   10  A    between atoms: C_24  and  O_25
REMARK   11  A    between atoms: O_25  and  C_26
REMARK                            x       y       z     vdW  Elec       q    Type
REMARK                         _______ _______ _______ _____ _____    ______ ____
ROOT
ATOM      1  N   UNL     1       3.890   4.781  17.542  0.00  0.00    +0.000 N 
ENDROOT
BRANCH   1   5
ATOM      2  C   UNL     1       7.157   5.252  14.838  0.00  0.00    +0.000 A 
ATOM      3  C   UNL     1       5.928   4.754  14.409  0.00  0.00    +0.000 A 
ATOM      4  C   UNL     1       4.865   4.619  15.298  0.00  0.00    +0.000 A 
ATOM      5  C   UNL     1       5.003   4.998  16.637  0.00  0.00    +0.000 A 
ATOM      6  C   UNL     1       6.229   5.545  17.074  0.00  0.00    +0.000 A 
ATOM      7  C   UNL     1       7.305   5.644  16.171  0.00  0.00    +0.000 A 
BRANCH   2   9
ATOM      8  C   UNL     1       7.689   5.101  12.517  0.00  0.00    +0.000 C 
ATOM      9  O   UNL     1       8.108   5.311  13.860  0.00  0.00    +0.000 OA
ENDBRANCH   2   9
BRANCH   6  10
ATOM     10  O   UNL     1       6.315   5.972  18.376  0.00  0.00    +0.000 OA
ATOM     11  C   UNL     1       7.607   5.910  18.977  0.00  0.00    +0.000 C 
ENDBRANCH   6  10
ENDBRANCH   1   5
BRANCH   1  12
ATOM     12  S   UNL     1       3.148   3.241  17.496  0.00  0.00    +0.000 S 
ATOM     13  O   UNL     1       2.019   3.264  16.600  0.00  0.00    +0.000 OA
ATOM     14  O   UNL     1       4.234   2.310  17.283  0.00  0.00    +0.000 OA
BRANCH  12  15
ATOM     15  C   UNL     1       2.497   2.979  19.138  0.00  0.00    +0.000 A 
ATOM     16  C   UNL     1       1.099   3.023  19.298  0.00  0.00    +0.000 A 
ATOM     17  C   UNL     1       0.521   2.899  20.569  0.00  0.00    +0.000 A 
ATOM     18  C   UNL     1       1.322   2.721  21.695  0.00  0.00    +0.000 A 
ATOM     19  C   UNL     1       2.701   2.611  21.547  0.00  0.00    +0.000 A 
ATOM     20  C   UNL     1       3.276   2.706  20.264  0.00  0.00    +0.000 A 
BRANCH  20  21
ATOM     21  N   UNL     1       4.702   2.482  20.208  0.00  0.00    +0.000 N 
ATOM     22  O   UNL     1       5.099   1.330  20.416  0.00  0.00    +0.000 OA
ATOM     23  O   UNL     1       5.413   3.482  20.047  0.00  0.00    +0.000 OA
ENDBRANCH  20  21
ENDBRANCH  12  15
ENDBRANCH   1  12
BRANCH   1  24
ATOM     24  C   UNL     1       2.980   5.939  17.753  0.00  0.00    +0.000 C 
BRANCH  24  25
ATOM     25  C   UNL     1       2.962   6.549  19.134  0.00  0.00    +0.000 C 
ATOM     26  O   UNL     1       2.193   7.454  19.440  0.00  0.00    +0.000 OA
BRANCH  25  27
ATOM     27  O   UNL     1       3.777   5.982  20.049  0.00  0.00    +0.000 OA
ATOM     28  H   UNL     1       4.382   6.597  20.531  0.00  0.00    +0.000 HD
ENDBRANCH  25  27
ENDBRANCH  24  25
ENDBRANCH   1  24
TORSDOF 9
ENDMDL
MODEL 2
REMARK VINA RESULT:      -6.8      1.974      6.018
REMARK  Name = 
REMARK  11 active torsions:
REMARK  status: ('A' for Active; 'I' for Inactive)
REMARK    1  A    between atoms: C_1  and  O_2
REMARK    2  A    between atoms: O_2  and  C_3
REMARK    3  A    between atoms: C_6  and  N_7
REMARK    4  A    between atoms: N_7  and  C_8
REMARK    5  A    between atoms: N_7  and  S_12
REMARK    6  A    between atoms: C_8  and  C_9
REMARK    7  A    between atoms: C_9  and  O_11
REMARK    8  A    between atoms: S_12  and  C_15
REMARK    9  A    between atoms: C_20  and  N_21
REMARK   10  A    between atoms: C_24  and  O_25
REMARK   11  A    between atoms: O_25  and  C_26
REMARK                            x       y       z     vdW  Elec       q    Type
REMARK                         _______ _______ _______ _____ _____    ______ ____
ROOT
ATOM      1  N   UNL     1       3.229   4.533  18.723  0.00  0.00    +0.000 N 
ENDROOT
BRANCH   1   5
ATOM      2  C   UNL     1       1.760   8.511  19.196  0.00  0.00    +0.000 A 
ATOM      3  C   UNL     1       2.270   8.068  17.977  0.00  0.00    +0.000 A 
ATOM      4  C   UNL     1       2.733   6.764  17.831  0.00  0.00    +0.000 A 
ATOM      5  C   UNL     1       2.678   5.863  18.901  0.00  0.00    +0.000 A 
ATOM      6  C   UNL     1       2.122   6.288  20.128  0.00  0.00    +0.000 A 
ATOM      7  C   UNL     1       1.689   7.620  20.269  0.00  0.00    +0.000 A 
BRANCH   2   9
ATOM      8  C   UNL     1       0.719  10.315  20.359  0.00  0.00    +0.000 C 
ATOM      9  O   UNL     1       1.361   9.817  19.192  0.00  0.00    +0.000 OA
ENDBRANCH   2   9
BRANCH   6  10
ATOM     10  O   UNL     1       2.017   5.365  21.139  0.00  0.00    +0.000 OA
ATOM     11  C   UNL     1       1.125   4.276  20.908  0.00  0.00    +0.000 C 
ENDBRANCH   6  10
ENDBRANCH   1   5
BRANCH   1  12
ATOM     12  S   UNL     1       4.914   4.359  18.957  0.00  0.00    +0.000 S 
ATOM     13  O   UNL     1       5.415   5.443  19.765  0.00  0.00    +0.000 OA
ATOM     14  O   UNL     1       5.091   2.987  19.381  0.00  0.00    +0.000 OA
BRANCH  12  15
ATOM     15  C   UNL     1       5.639   4.545  17.337  0.00  0.00    +0.000 A 
ATOM     16  C   UNL     1       4.852   4.188  16.226  0.00  0.00    +0.000 A 
ATOM     17  C   UNL     1       5.381   4.238  14.929  0.00  0.00    +0.000 A 
ATOM     18  C   UNL     1       6.694   4.651  14.717  0.00  0.00    +0.000 A 
ATOM     19  C   UNL     1       7.466   5.070  15.797  0.00  0.00    +0.000 A 
ATOM     20  C   UNL     1       6.920   5.046  17.096  0.00  0.00    +0.000 A 
BRANCH  20  21
ATOM     21  N   UNL     1       7.767   5.591  18.131  0.00  0.00    +0.000 N 
ATOM     22  O   UNL     1       7.897   6.820  18.164  0.00  0.00    +0.000 OA
ATOM     23  O   UNL     1       8.366   4.774  18.842  0.00  0.00    +0.000 OA
ENDBRANCH  20  21
ENDBRANCH  12  15
ENDBRANCH   1  12
BRANCH   1  24
ATOM     24  C   UNL     1       2.633   3.716  17.632  0.00  0.00    +0.000 C 
BRANCH  24  25
ATOM     25  C   UNL     1       2.062   2.374  18.020  0.00  0.00    +0.000 C 
ATOM     26  O   UNL     1       0.857   2.192  18.164  0.00  0.00    +0.000 OA
BRANCH  25  27
ATOM     27  O   UNL     1       2.941   1.353  18.114  0.00  0.00    +0.000 OA
ATOM     28  H   UNL     1       3.595   1.276  17.378  0.00  0.00    +0.000 HD
ENDBRANCH  25  27
ENDBRANCH  24  25
ENDBRANCH   1  24
TORSDOF 9
ENDMDL
MODEL 3
REMARK VINA RESULT:      -6.3      2.201      4.088
REMARK  Name = 
REMARK  11 active torsions:
REMARK  status: ('A' for Active; 'I' for Inactive)
REMARK    1  A    between atoms: C_1  and  O_2
REMARK    2  A    between atoms: O_2  and  C_3
REMARK    3  A    between atoms: C_6  and  N_7
REMARK    4  A    between atoms: N_7  and  C_8
REMARK    5  A    between atoms: N_7  and  S_12
REMARK    6  A    between atoms: C_8  and  C_9
REMARK    7  A    between atoms: C_9  and  O_11
REMARK    8  A    between atoms: S_12  and  C_15
REMARK    9  A    between atoms: C_20  and  N_21
REMARK   10  A    between atoms: C_24  and  O_25
REMARK   11  A    between atoms: O_25  and  C_26
REMARK                            x       y       z     vdW  Elec       q    Type
REMARK                         _______ _______ _______ _____ _____    ______ ____
ROOT
ATOM      1  N   UNL     1       4.517   3.419  18.442  0.00  0.00    +0.000 N 
ENDROOT
BRANCH   1   5
ATOM      2  C   UNL     1       7.291   6.439  17.263  0.00  0.00    +0.000 A 
ATOM      3  C   UNL     1       6.823   6.358  18.573  0.00  0.00    +0.000 A 
ATOM      4  C   UNL     1       5.929   5.359  18.949  0.00  0.00    +0.000 A 
ATOM      5  C   UNL     1       5.496   4.403  18.024  0.00  0.00    +0.000 A 
ATOM      6  C   UNL     1       5.997   4.449  16.704  0.00  0.00    +0.000 A 
ATOM      7  C   UNL     1       6.874   5.486  16.331  0.00  0.00    +0.000 A 
BRANCH   2   9
ATOM      8  C   UNL     1       7.933   8.679  17.773  0.00  0.00    +0.000 C 
ATOM      9  O   UNL     1       8.146   7.479  17.039  0.00  0.00    +0.000 OA
ENDBRANCH   2   9
BRANCH   6  10
ATOM     10  O   UNL     1       5.610   3.460  15.835  0.00  0.00    +0.000 OA
ATOM     11  C   UNL     1       5.845   3.708  14.451  0.00  0.00    +0.000 C 
ENDBRANCH   6  10
ENDBRANCH   1   5
BRANCH   1  12
ATOM     12  S   UNL     1       2.893   3.705  17.988  0.00  0.00    +0.000 S 
ATOM     13  O   UNL     1       2.812   3.934  16.566  0.00  0.00    +0.000 OA
ATOM     14  O   UNL     1       2.141   2.633  18.601  0.00  0.00    +0.000 OA
BRANCH  12  15
ATOM     15  C   UNL     1       2.440   5.237  18.784  0.00  0.00    +0.000 A 
ATOM     16  C   UNL     1       2.615   6.427  18.052  0.00  0.00    +0.000 A 
ATOM     17  C   UNL     1       2.350   7.672  18.639  0.00  0.00    +0.000 A 
ATOM     18  C   UNL     1       1.900   7.751  19.955  0.00  0.00    +0.000 A 
ATOM     19  C   UNL     1       1.659   6.583  20.671  0.00  0.00    +0.000 A 
ATOM     20  C   UNL     1       1.898   5.332  20.067  0.00  0.00    +0.000 A 
BRANCH  20  21
ATOM     21  N   UNL     1       1.526   4.183  20.859  0.00  0.00    +0.000 N 
ATOM     22  O   UNL     1       2.292   3.856  21.772  0.00  0.00    +0.000 OA
ATOM     23  O   UNL     1       0.517   3.565  20.496  0.00  0.00    +0.000 OA
ENDBRANCH  20  21
ENDBRANCH  12  15
ENDBRANCH   1  12
BRANCH   1  24
ATOM     24  C   UNL     1       4.722   2.820  19.789  0.00  0.00    +0.000 C 
BRANCH  24  25
ATOM     25  C   UNL     1       4.978   1.333  19.841  0.00  0.00    +0.000 C 
ATOM     26  O   UNL     1       5.533   0.797  20.794  0.00  0.00    +0.000 OA
BRANCH  25  27
ATOM     27  O   UNL     1       4.480   0.604  18.819  0.00  0.00    +0.000 OA
ATOM     28  H   UNL     1       4.778   0.866  17.914  0.00  0.00    +0.000 HD
ENDBRANCH  25  27
ENDBRANCH  24  25
ENDBRANCH   1  24
TORSDOF 9
ENDMDL
MODEL 4
REMARK VINA RESULT:      -6.3      1.857      3.263
REMARK  Name = 
REMARK  11 active torsions:
REMARK  status: ('A' for Active; 'I' for Inactive)
REMARK    1  A    between atoms: C_1  and  O_2
REMARK    2  A    between atoms: O_2  and  C_3
REMARK    3  A    between atoms: C_6  and  N_7
REMARK    4  A    between atoms: N_7  and  C_8
REMARK    5  A    between atoms: N_7  and  S_12
REMARK    6  A    between atoms: C_8  and  C_9
REMARK    7  A    between atoms: C_9  and  O_11
REMARK    8  A    between atoms: S_12  and  C_15
REMARK    9  A    between atoms: C_20  and  N_21
REMARK   10  A    between atoms: C_24  and  O_25
REMARK   11  A    between atoms: O_25  and  C_26
REMARK                            x       y       z     vdW  Elec       q    Type
REMARK                         _______ _______ _______ _____ _____    ______ ____
ROOT
ATOM      1  N   UNL     1       4.344   3.221  18.070  0.00  0.00    +0.000 N 
ENDROOT
BRANCH   1   5
ATOM      2  C   UNL     1       6.969   5.063  15.255  0.00  0.00    +0.000 A 
ATOM      3  C   UNL     1       6.086   4.055  14.870  0.00  0.00    +0.000 A 
ATOM      4  C   UNL     1       5.224   3.473  15.795  0.00  0.00    +0.000 A 
ATOM      5  C   UNL     1       5.213   3.899  17.127  0.00  0.00    +0.000 A 
ATOM      6  C   UNL     1       6.072   4.949  17.519  0.00  0.00    +0.000 A 
ATOM      7  C   UNL     1       6.962   5.506  16.580  0.00  0.00    +0.000 A 
BRANCH   2   9
ATOM      8  C   UNL     1       7.559   4.986  12.945  0.00  0.00    +0.000 C 
ATOM      9  O   UNL     1       7.763   5.525  14.245  0.00  0.00    +0.000 OA
ENDBRANCH   2   9
BRANCH   6  10
ATOM     10  O   UNL     1       5.992   5.395  18.815  0.00  0.00    +0.000 OA
ATOM     11  C   UNL     1       7.228   5.704  19.454  0.00  0.00    +0.000 C 
ENDBRANCH   6  10
ENDBRANCH   1   5
BRANCH   1  12
ATOM     12  S   UNL     1       2.664   3.493  17.904  0.00  0.00    +0.000 S 
ATOM     13  O   UNL     1       2.330   3.689  16.515  0.00  0.00    +0.000 OA
ATOM     14  O   UNL     1       2.039   2.434  18.666  0.00  0.00    +0.000 OA
BRANCH  12  15
ATOM     15  C   UNL     1       2.350   5.043  18.733  0.00  0.00    +0.000 A 
ATOM     16  C   UNL     1       2.551   6.227  17.998  0.00  0.00    +0.000 A 
ATOM     17  C   UNL     1       2.395   7.480  18.605  0.00  0.00    +0.000 A 
ATOM     18  C   UNL     1       2.029   7.575  19.945  0.00  0.00    +0.000 A 
ATOM     19  C   UNL     1       1.762   6.417  20.669  0.00  0.00    +0.000 A 
ATOM     20  C   UNL     1       1.891   5.159  20.046  0.00  0.00    +0.000 A 
BRANCH  20  21
ATOM     21  N   UNL     1       1.499   4.027  20.854  0.00  0.00    +0.000 N 
ATOM     22  O   UNL     1       2.311   3.629  21.697  0.00  0.00    +0.000 OA
ATOM     23  O   UNL     1       0.420   3.493  20.569  0.00  0.00    +0.000 OA
ENDBRANCH  20  21
ENDBRANCH  12  15
ENDBRANCH   1  12
BRANCH   1  24
ATOM     24  C   UNL     1       4.852   3.105  19.464  0.00  0.00    +0.000 C 
BRANCH  24  25
ATOM     25  C   UNL     1       4.941   1.714  20.042  0.00  0.00    +0.000 C 
ATOM     26  O   UNL     1       5.185   1.512  21.227  0.00  0.00    +0.000 OA
BRANCH  25  27
ATOM     27  O   UNL     1       4.647   0.696  19.203  0.00  0.00    +0.000 OA
ATOM     28  H   UNL     1       3.690   0.569  18.996  0.00  0.00    +0.000 HD
ENDBRANCH  25  27
ENDBRANCH  24  25
ENDBRANCH   1  24
TORSDOF 9
ENDMDL
MODEL 5
REMARK VINA RESULT:      -6.2      2.389      6.112
REMARK  Name = 
REMARK  11 active torsions:
REMARK  status: ('A' for Active; 'I' for Inactive)
REMARK    1  A    between atoms: C_1  and  O_2
REMARK    2  A    between atoms: O_2  and  C_3
REMARK    3  A    between atoms: C_6  and  N_7
REMARK    4  A    between atoms: N_7  and  C_8
REMARK    5  A    between atoms: N_7  and  S_12
REMARK    6  A    between atoms: C_8  and  C_9
REMARK    7  A    between atoms: C_9  and  O_11
REMARK    8  A    between atoms: S_12  and  C_15
REMARK    9  A    between atoms: C_20  and  N_21
REMARK   10  A    between atoms: C_24  and  O_25
REMARK   11  A    between atoms: O_25  and  C_26
REMARK                            x       y       z     vdW  Elec       q    Type
REMARK                         _______ _______ _______ _____ _____    ______ ____
ROOT
ATOM      1  N   UNL     1       4.483   5.330  17.410  0.00  0.00    +0.000 N 
ENDROOT
BRANCH   1   5
ATOM      2  C   UNL     1       2.004   8.403  19.027  0.00  0.00    +0.000 A 
ATOM      3  C   UNL     1       2.430   8.440  17.700  0.00  0.00    +0.000 A 
ATOM      4  C   UNL     1       3.226   7.424  17.180  0.00  0.00    +0.000 A 
ATOM      5  C   UNL     1       3.601   6.334  17.973  0.00  0.00    +0.000 A 
ATOM      6  C   UNL     1       3.140   6.264  19.306  0.00  0.00    +0.000 A 
ATOM      7  C   UNL     1       2.362   7.317  19.827  0.00  0.00    +0.000 A 
BRANCH   2   9
ATOM      8  C   UNL     1       0.845   9.561  20.761  0.00  0.00    +0.000 C 
ATOM      9  O   UNL     1       1.245   9.475  19.399  0.00  0.00    +0.000 OA
ENDBRANCH   2   9
BRANCH   6  10
ATOM     10  O   UNL     1       3.465   5.151  20.041  0.00  0.00    +0.000 OA
ATOM     11  C   UNL     1       2.386   4.498  20.707  0.00  0.00    +0.000 C 
ENDBRANCH   6  10
ENDBRANCH   1   5
BRANCH   1  12
ATOM     12  S   UNL     1       5.689   5.882  16.330  0.00  0.00    +0.000 S 
ATOM     13  O   UNL     1       6.476   4.769  15.859  0.00  0.00    +0.000 OA
ATOM     14  O   UNL     1       4.988   6.732  15.392  0.00  0.00    +0.000 OA
BRANCH  12  15
ATOM     15  C   UNL     1       6.775   6.903  17.311  0.00  0.00    +0.000 A 
ATOM     16  C   UNL     1       6.833   8.275  17.004  0.00  0.00    +0.000 A 
ATOM     17  C   UNL     1       7.717   9.123  17.684  0.00  0.00    +0.000 A 
ATOM     18  C   UNL     1       8.549   8.622  18.683  0.00  0.00    +0.000 A 
ATOM     19  C   UNL     1       8.459   7.282  19.044  0.00  0.00    +0.000 A 
ATOM     20  C   UNL     1       7.547   6.439  18.379  0.00  0.00    +0.000 A 
BRANCH  20  21
ATOM     21  N   UNL     1       7.463   5.092  18.893  0.00  0.00    +0.000 N 
ATOM     22  O   UNL     1       7.987   4.198  18.219  0.00  0.00    +0.000 OA
ATOM     23  O   UNL     1       6.791   4.933  19.920  0.00  0.00    +0.000 OA
ENDBRANCH  20  21
ENDBRANCH  12  15
ENDBRANCH   1  12
BRANCH   1  24
ATOM     24  C   UNL     1       3.860   4.019  17.079  0.00  0.00    +0.000 C 
BRANCH  24  25
ATOM     25  C   UNL     1       4.220   2.852  17.966  0.00  0.00    +0.000 C 
ATOM     26  O   UNL     1       3.767   1.727  17.782  0.00  0.00    +0.000 OA
BRANCH  25  27
ATOM     27  O   UNL     1       5.142   3.090  18.924  0.00  0.00    +0.000 OA
ATOM     28  H   UNL     1       6.030   2.681  18.782  0.00  0.00    +0.000 HD
ENDBRANCH  25  27
ENDBRANCH  24  25
ENDBRANCH   1  24
TORSDOF 9
ENDMDL
MODEL 6
REMARK VINA RESULT:      -6.1      1.443      2.198
REMARK  Name = 
REMARK  11 active torsions:
REMARK  status: ('A' for Active; 'I' for Inactive)
REMARK    1  A    between atoms: C_1  and  O_2
REMARK    2  A    between atoms: O_2  and  C_3
REMARK    3  A    between atoms: C_6  and  N_7
REMARK    4  A    between atoms: N_7  and  C_8
REMARK    5  A    between atoms: N_7  and  S_12
REMARK    6  A    between atoms: C_8  and  C_9
REMARK    7  A    between atoms: C_9  and  O_11
REMARK    8  A    between atoms: S_12  and  C_15
REMARK    9  A    between atoms: C_20  and  N_21
REMARK   10  A    between atoms: C_24  and  O_25
REMARK   11  A    between atoms: O_25  and  C_26
REMARK                            x       y       z     vdW  Elec       q    Type
REMARK                         _______ _______ _______ _____ _____    ______ ____
ROOT
ATOM      1  N   UNL     1       4.519   5.510  17.797  0.00  0.00    +0.000 N 
ENDROOT
BRANCH   1   5
ATOM      2  C   UNL     1       6.573   4.728  14.140  0.00  0.00    +0.000 A 
ATOM      3  C   UNL     1       5.453   3.988  14.513  0.00  0.00    +0.000 A 
ATOM      4  C   UNL     1       4.782   4.263  15.702  0.00  0.00    +0.000 A 
ATOM      5  C   UNL     1       5.208   5.300  16.538  0.00  0.00    +0.000 A 
ATOM      6  C   UNL     1       6.317   6.085  16.149  0.00  0.00    +0.000 A 
ATOM      7  C   UNL     1       7.005   5.772  14.960  0.00  0.00    +0.000 A 
BRANCH   2   9
ATOM      8  C   UNL     1       6.408   3.409  12.159  0.00  0.00    +0.000 C 
ATOM      9  O   UNL     1       7.135   4.333  12.959  0.00  0.00    +0.000 OA
ENDBRANCH   2   9
BRANCH   6  10
ATOM     10  O   UNL     1       6.671   7.139  16.954  0.00  0.00    +0.000 OA
ATOM     11  C   UNL     1       7.728   6.898  17.880  0.00  0.00    +0.000 C 
ENDBRANCH   6  10
ENDBRANCH   1   5
BRANCH   1  12
ATOM     12  S   UNL     1       4.929   4.464  19.085  0.00  0.00    +0.000 S 
ATOM     13  O   UNL     1       5.638   3.314  18.580  0.00  0.00    +0.000 OA
ATOM     14  O   UNL     1       5.536   5.319  20.081  0.00  0.00    +0.000 OA
BRANCH  12  15
ATOM     15  C   UNL     1       3.374   3.869  19.727  0.00  0.00    +0.000 A 
ATOM     16  C   UNL     1       2.874   4.480  20.892  0.00  0.00    +0.000 A 
ATOM     17  C   UNL     1       1.696   4.016  21.494  0.00  0.00    +0.000 A 
ATOM     18  C   UNL     1       0.995   2.947  20.942  0.00  0.00    +0.000 A 
ATOM     19  C   UNL     1       1.439   2.372  19.755  0.00  0.00    +0.000 A 
ATOM     20  C   UNL     1       2.607   2.861  19.137  0.00  0.00    +0.000 A 
BRANCH  20  21
ATOM     21  N   UNL     1       2.928   2.263  17.862  0.00  0.00    +0.000 N 
ATOM     22  O   UNL     1       3.748   1.338  17.865  0.00  0.00    +0.000 OA
ATOM     23  O   UNL     1       2.425   2.790  16.862  0.00  0.00    +0.000 OA
ENDBRANCH  20  21
ENDBRANCH  12  15
ENDBRANCH   1  12
BRANCH   1  24
ATOM     24  C   UNL     1       3.086   5.901  17.703  0.00  0.00    +0.000 C 
BRANCH  24  25
ATOM     25  C   UNL     1       2.727   7.289  18.176  0.00  0.00    +0.000 C 
ATOM     26  O   UNL     1       2.824   8.273  17.451  0.00  0.00    +0.000 OA
BRANCH  25  27
ATOM     27  O   UNL     1       2.202   7.381  19.418  0.00  0.00    +0.000 OA
ATOM     28  H   UNL     1       2.852   7.442  20.159  0.00  0.00    +0.000 HD
ENDBRANCH  25  27
ENDBRANCH  24  25
ENDBRANCH   1  24
TORSDOF 9
ENDMDL
MODEL 7
REMARK VINA RESULT:      -6.1      2.159      6.017
REMARK  Name = 
REMARK  11 active torsions:
REMARK  status: ('A' for Active; 'I' for Inactive)
REMARK    1  A    between atoms: C_1  and  O_2
REMARK    2  A    between atoms: O_2  and  C_3
REMARK    3  A    between atoms: C_6  and  N_7
REMARK    4  A    between atoms: N_7  and  C_8
REMARK    5  A    between atoms: N_7  and  S_12
REMARK    6  A    between atoms: C_8  and  C_9
REMARK    7  A    between atoms: C_9  and  O_11
REMARK    8  A    between atoms: S_12  and  C_15
REMARK    9  A    between atoms: C_20  and  N_21
REMARK   10  A    between atoms: C_24  and  O_25
REMARK   11  A    between atoms: O_25  and  C_26
REMARK                            x       y       z     vdW  Elec       q    Type
REMARK                         _______ _______ _______ _____ _____    ______ ____
ROOT
ATOM      1  N   UNL     1       3.163   4.493  19.022  0.00  0.00    +0.000 N 
ENDROOT
BRANCH   1   5
ATOM      2  C   UNL     1       1.508   8.317  19.940  0.00  0.00    +0.000 A 
ATOM      3  C   UNL     1       1.443   7.263  20.850  0.00  0.00    +0.000 A 
ATOM      4  C   UNL     1       2.000   6.024  20.545  0.00  0.00    +0.000 A 
ATOM      5  C   UNL     1       2.653   5.817  19.325  0.00  0.00    +0.000 A 
ATOM      6  C   UNL     1       2.764   6.890  18.413  0.00  0.00    +0.000 A 
ATOM      7  C   UNL     1       2.166   8.127  18.723  0.00  0.00    +0.000 A 
BRANCH   2   9
ATOM      8  C   UNL     1      -0.048   9.355  21.421  0.00  0.00    +0.000 C 
ATOM      9  O   UNL     1       0.905   9.464  20.371  0.00  0.00    +0.000 OA
ENDBRANCH   2   9
BRANCH   6  10
ATOM     10  O   UNL     1       3.469   6.679  17.255  0.00  0.00    +0.000 OA
ATOM     11  C   UNL     1       4.503   7.617  16.966  0.00  0.00    +0.000 C 
ENDBRANCH   6  10
ENDBRANCH   1   5
BRANCH   1  12
ATOM     12  S   UNL     1       4.850   4.262  19.175  0.00  0.00    +0.000 S 
ATOM     13  O   UNL     1       5.435   5.364  19.898  0.00  0.00    +0.000 OA
ATOM     14  O   UNL     1       4.998   2.907  19.661  0.00  0.00    +0.000 OA
BRANCH  12  15
ATOM     15  C   UNL     1       5.492   4.337  17.512  0.00  0.00    +0.000 A 
ATOM     16  C   UNL     1       4.649   3.910  16.468  0.00  0.00    +0.000 A 
ATOM     17  C   UNL     1       5.112   3.871  15.146  0.00  0.00    +0.000 A 
ATOM     18  C   UNL     1       6.413   4.264  14.841  0.00  0.00    +0.000 A 
ATOM     19  C   UNL     1       7.239   4.750  15.850  0.00  0.00    +0.000 A 
ATOM     20  C   UNL     1       6.760   4.815  17.173  0.00  0.00    +0.000 A 
BRANCH  20  21
ATOM     21  N   UNL     1       7.659   5.424  18.126  0.00  0.00    +0.000 N 
ATOM     22  O   UNL     1       7.745   6.657  18.111  0.00  0.00    +0.000 OA
ATOM     23  O   UNL     1       8.338   4.653  18.816  0.00  0.00    +0.000 OA
ENDBRANCH  20  21
ENDBRANCH  12  15
ENDBRANCH   1  12
BRANCH   1  24
ATOM     24  C   UNL     1       2.506   3.779  17.893  0.00  0.00    +0.000 C 
BRANCH  24  25
ATOM     25  C   UNL     1       1.847   2.459  18.214  0.00  0.00    +0.000 C 
ATOM     26  O   UNL     1       0.632   2.347  18.336  0.00  0.00    +0.000 OA
BRANCH  25  27
ATOM     27  O   UNL     1       2.661   1.382  18.269  0.00  0.00    +0.000 OA
ATOM     28  H   UNL     1       3.028   1.162  19.159  0.00  0.00    +0.000 HD
ENDBRANCH  25  27
ENDBRANCH  24  25
ENDBRANCH   1  24
TORSDOF 9
ENDMDL
MODEL 8
REMARK VINA RESULT:      -5.9      1.760      2.425
REMARK  Name = 
REMARK  11 active torsions:
REMARK  status: ('A' for Active; 'I' for Inactive)
REMARK    1  A    between atoms: C_1  and  O_2
REMARK    2  A    between atoms: O_2  and  C_3
REMARK    3  A    between atoms: C_6  and  N_7
REMARK    4  A    between atoms: N_7  and  C_8
REMARK    5  A    between atoms: N_7  and  S_12
REMARK    6  A    between atoms: C_8  and  C_9
REMARK    7  A    between atoms: C_9  and  O_11
REMARK    8  A    between atoms: S_12  and  C_15
REMARK    9  A    between atoms: C_20  and  N_21
REMARK   10  A    between atoms: C_24  and  O_25
REMARK   11  A    between atoms: O_25  and  C_26
REMARK                            x       y       z     vdW  Elec       q    Type
REMARK                         _______ _______ _______ _____ _____    ______ ____
ROOT
ATOM      1  N   UNL     1       4.404   5.766  17.890  0.00  0.00    +0.000 N 
ENDROOT
BRANCH   1   5
ATOM      2  C   UNL     1       6.912   4.878  14.555  0.00  0.00    +0.000 A 
ATOM      3  C   UNL     1       5.569   4.507  14.569  0.00  0.00    +0.000 A 
ATOM      4  C   UNL     1       4.757   4.816  15.657  0.00  0.00    +0.000 A 
ATOM      5  C   UNL     1       5.268   5.522  16.751  0.00  0.00    +0.000 A 
ATOM      6  C   UNL     1       6.617   5.941  16.729  0.00  0.00    +0.000 A 
ATOM      7  C   UNL     1       7.434   5.592  15.636  0.00  0.00    +0.000 A 
BRANCH   2   9
ATOM      8  C   UNL     1       8.008   5.511  12.532  0.00  0.00    +0.000 C 
ATOM      9  O   UNL     1       7.585   4.493  13.431  0.00  0.00    +0.000 OA
ENDBRANCH   2   9
BRANCH   6  10
ATOM     10  O   UNL     1       7.074   6.691  17.784  0.00  0.00    +0.000 OA
ATOM     11  C   UNL     1       7.655   7.951  17.456  0.00  0.00    +0.000 C 
ENDBRANCH   6  10
ENDBRANCH   1   5
BRANCH   1  12
ATOM     12  S   UNL     1       4.520   4.669  19.197  0.00  0.00    +0.000 S 
ATOM     13  O   UNL     1       5.689   3.838  19.041  0.00  0.00    +0.000 OA
ATOM     14  O   UNL     1       4.353   5.482  20.382  0.00  0.00    +0.000 OA
BRANCH  12  15
ATOM     15  C   UNL     1       3.101   3.597  19.045  0.00  0.00    +0.000 A 
ATOM     16  C   UNL     1       3.099   2.666  17.989  0.00  0.00    +0.000 A 
ATOM     17  C   UNL     1       1.987   1.843  17.765  0.00  0.00    +0.000 A 
ATOM     18  C   UNL     1       0.867   1.928  18.589  0.00  0.00    +0.000 A 
ATOM     19  C   UNL     1       0.878   2.796  19.676  0.00  0.00    +0.000 A 
ATOM     20  C   UNL     1       2.010   3.600  19.916  0.00  0.00    +0.000 A 
BRANCH  20  21
ATOM     21  N   UNL     1       1.959   4.395  21.122  0.00  0.00    +0.000 N 
ATOM     22  O   UNL     1       2.301   3.843  22.174  0.00  0.00    +0.000 OA
ATOM     23  O   UNL     1       1.488   5.534  21.014  0.00  0.00    +0.000 OA
ENDBRANCH  20  21
ENDBRANCH  12  15
ENDBRANCH   1  12
BRANCH   1  24
ATOM     24  C   UNL     1       3.038   6.272  17.582  0.00  0.00    +0.000 C 
BRANCH  24  25
ATOM     25  C   UNL     1       2.666   7.619  18.152  0.00  0.00    +0.000 C 
ATOM     26  O   UNL     1       2.509   8.608  17.444  0.00  0.00    +0.000 OA
BRANCH  25  27
ATOM     27  O   UNL     1       2.424   7.661  19.480  0.00  0.00    +0.000 OA
ATOM     28  H   UNL     1       1.554   8.043  19.750  0.00  0.00    +0.000 HD
ENDBRANCH  25  27
ENDBRANCH  24  25
ENDBRANCH   1  24
TORSDOF 9
ENDMDL
MODEL 9
REMARK VINA RESULT:      -5.9      2.201      5.637
REMARK  Name = 
REMARK  11 active torsions:
REMARK  status: ('A' for Active; 'I' for Inactive)
REMARK    1  A    between atoms: C_1  and  O_2
REMARK    2  A    between atoms: O_2  and  C_3
REMARK    3  A    between atoms: C_6  and  N_7
REMARK    4  A    between atoms: N_7  and  C_8
REMARK    5  A    between atoms: N_7  and  S_12
REMARK    6  A    between atoms: C_8  and  C_9
REMARK    7  A    between atoms: C_9  and  O_11
REMARK    8  A    between atoms: S_12  and  C_15
REMARK    9  A    between atoms: C_20  and  N_21
REMARK   10  A    between atoms: C_24  and  O_25
REMARK   11  A    between atoms: O_25  and  C_26
REMARK                            x       y       z     vdW  Elec       q    Type
REMARK                         _______ _______ _______ _____ _____    ______ ____
ROOT
ATOM      1  N   UNL     1       3.178   4.850  18.866  0.00  0.00    +0.000 N 
ENDROOT
BRANCH   1   5
ATOM      2  C   UNL     1       2.380   8.959  18.041  0.00  0.00    +0.000 A 
ATOM      3  C   UNL     1       3.041   8.151  17.118  0.00  0.00    +0.000 A 
ATOM      4  C   UNL     1       3.282   6.808  17.392  0.00  0.00    +0.000 A 
ATOM      5  C   UNL     1       2.850   6.236  18.593  0.00  0.00    +0.000 A 
ATOM      6  C   UNL     1       2.141   7.034  19.518  0.00  0.00    +0.000 A 
ATOM      7  C   UNL     1       1.934   8.400  19.240  0.00  0.00    +0.000 A 
BRANCH   2   9
ATOM      8  C   UNL     1       1.639  11.167  18.559  0.00  0.00    +0.000 C 
ATOM      9  O   UNL     1       2.231  10.256  17.640  0.00  0.00    +0.000 OA
ENDBRANCH   2   9
BRANCH   6  10
ATOM     10  O   UNL     1       1.668   6.432  20.657  0.00  0.00    +0.000 OA
ATOM     11  C   UNL     1       0.867   7.243  21.514  0.00  0.00    +0.000 C 
ENDBRANCH   6  10
ENDBRANCH   1   5
BRANCH   1  12
ATOM     12  S   UNL     1       4.832   4.478  19.090  0.00  0.00    +0.000 S 
ATOM     13  O   UNL     1       5.476   5.527  19.840  0.00  0.00    +0.000 OA
ATOM     14  O   UNL     1       4.846   3.116  19.575  0.00  0.00    +0.000 OA
BRANCH  12  15
ATOM     15  C   UNL     1       5.549   4.499  17.455  0.00  0.00    +0.000 A 
ATOM     16  C   UNL     1       4.742   4.068  16.385  0.00  0.00    +0.000 A 
ATOM     17  C   UNL     1       5.262   3.988  15.086  0.00  0.00    +0.000 A 
ATOM     18  C   UNL     1       6.584   4.343  14.830  0.00  0.00    +0.000 A 
ATOM     19  C   UNL     1       7.377   4.833  15.864  0.00  0.00    +0.000 A 
ATOM     20  C   UNL     1       6.841   4.940  17.163  0.00  0.00    +0.000 A 
BRANCH  20  21
ATOM     21  N   UNL     1       7.712   5.549  18.141  0.00  0.00    +0.000 N 
ATOM     22  O   UNL     1       8.274   4.794  18.943  0.00  0.00    +0.000 OA
ATOM     23  O   UNL     1       7.750   6.786  18.154  0.00  0.00    +0.000 OA
ENDBRANCH  20  21
ENDBRANCH  12  15
ENDBRANCH   1  12
BRANCH   1  24
ATOM     24  C   UNL     1       2.372   3.830  18.141  0.00  0.00    +0.000 C 
BRANCH  24  25
ATOM     25  C   UNL     1       1.224   3.206  18.897  0.00  0.00    +0.000 C 
ATOM     26  O   UNL     1       0.603   2.241  18.465  0.00  0.00    +0.000 OA
BRANCH  25  27
ATOM     27  O   UNL     1       0.971   3.711  20.125  0.00  0.00    +0.000 OA
ATOM     28  H   UNL     1       0.018   3.788  20.373  0.00  0.00    +0.000 HD
ENDBRANCH  25  27
ENDBRANCH  24  25
ENDBRANCH   1  24
TORSDOF 9
ENDMDL
