MODEL 1
REMARK VINA RESULT:      -6.5      0.000      0.000
REMARK  Name = 
REMARK  5 active torsions:
REMARK  status: ('A' for Active; 'I' for Inactive)
REMARK    1  A    between atoms: C_1  and  C_2
REMARK    2  A    between atoms: C_5  and  C_6
REMARK    3  A    between atoms: N_11  and  C_12
REMARK    4  A    between atoms: C_12  and  C_13
REMARK    5  A    between atoms: C_12  and  C_14
REMARK                            x       y       z     vdW  Elec       q    Type
REMARK                         _______ _______ _______ _____ _____    ______ ____
ROOT
ATOM      1  C   UNL     1       5.935   4.875  16.959  0.00  0.00    +0.000 C 
ATOM      2  O   UNL     1       6.292   4.346  15.900  0.00  0.00    +0.000 OA
ATOM      3  N   UNL     1       4.735   4.479  17.568  0.00  0.00    +0.000 N 
ATOM      4  C   UNL     1       3.944   3.401  16.967  0.00  0.00    +0.000 C 
ATOM      5  C   UNL     1       3.664   2.277  17.995  0.00  0.00    +0.000 C 
ATOM      6  N   UNL     1       3.051   2.726  19.279  0.00  0.00    +0.000 NA
ATOM      7  C   UNL     1       3.922   3.797  19.822  0.00  0.00    +0.000 C 
ATOM      8  C   UNL     1       4.207   4.956  18.852  0.00  0.00    +0.000 C 
ENDROOT
BRANCH   1  13
ATOM      9  C   UNL     1       8.452   9.395  18.069  0.00  0.00    +0.000 C 
ATOM     10  C   UNL     1       7.960   7.991  18.106  0.00  0.00    +0.000 A 
ATOM     11  C   UNL     1       8.435   6.942  18.862  0.00  0.00    +0.000 A 
ATOM     12  C   UNL     1       7.673   5.755  18.665  0.00  0.00    +0.000 A 
ATOM     13  C   UNL     1       6.762   5.874  17.630  0.00  0.00    +0.000 A 
ATOM     14  S   UNL     1       6.640   7.515  17.129  0.00  0.00    +0.000 S 
ENDBRANCH   1  13
BRANCH   6  15
ATOM     15  C   UNL     1       1.638   3.186  19.115  0.00  0.00    +0.000 C 
ATOM     16  C   UNL     1       0.712   2.053  18.663  0.00  0.00    +0.000 C 
BRANCH  15  17
ATOM     17  C   UNL     1       1.090   3.738  20.450  0.00  0.00    +0.000 C 
ATOM     18  N   UNL     1       0.931   2.830  21.460  0.00  0.00    +0.000 N 
ATOM     19  O   UNL     1       0.827   4.926  20.627  0.00  0.00    +0.000 OA
ATOM     20  H   UNL     1       1.441   1.955  21.409  0.00  0.00    +0.000 HD
ATOM     21  H   UNL     1       0.692   3.192  22.373  0.00  0.00    +0.000 HD
ENDBRANCH  15  17
ENDBRANCH   6  15
TORSDOF 3
ENDMDL
MODEL 2
REMARK VINA RESULT:      -6.0      3.262      6.475
REMARK  Name = 
REMARK  5 active torsions:
REMARK  status: ('A' for Active; 'I' for Inactive)
REMARK    1  A    between atoms: C_1  and  C_2
REMARK    2  A    between atoms: C_5  and  C_6
REMARK    3  A    between atoms: N_11  and  C_12
REMARK    4  A    between atoms: C_12  and  C_13
REMARK    5  A    between atoms: C_12  and  C_14
REMARK                            x       y       z     vdW  Elec       q    Type
REMARK                         _______ _______ _______ _____ _____    ______ ____
ROOT
ATOM      1  C   UNL     1       5.332   5.417  18.933  0.00  0.00    +0.000 C 
ATOM      2  O   UNL     1       6.278   5.835  19.610  0.00  0.00    +0.000 OA
ATOM      3  N   UNL     1       5.503   5.183  17.560  0.00  0.00    +0.000 N 
ATOM      4  C   UNL     1       6.823   5.389  16.955  0.00  0.00    +0.000 C 
ATOM      5  C   UNL     1       7.293   4.119  16.205  0.00  0.00    +0.000 C 
ATOM      6  N   UNL     1       6.333   3.579  15.200  0.00  0.00    +0.000 NA
ATOM      7  C   UNL     1       5.039   3.386  15.900  0.00  0.00    +0.000 C 
ATOM      8  C   UNL     1       4.508   4.626  16.637  0.00  0.00    +0.000 C 
ENDROOT
BRANCH   1  13
ATOM      9  C   UNL     1       1.180   2.731  20.818  0.00  0.00    +0.000 C 
ATOM     10  C   UNL     1       2.093   3.822  20.379  0.00  0.00    +0.000 A 
ATOM     11  C   UNL     1       1.799   5.155  20.197  0.00  0.00    +0.000 A 
ATOM     12  C   UNL     1       2.948   5.907  19.819  0.00  0.00    +0.000 A 
ATOM     13  C   UNL     1       4.040   5.104  19.538  0.00  0.00    +0.000 A 
ATOM     14  S   UNL     1       3.734   3.487  20.036  0.00  0.00    +0.000 S 
ENDBRANCH   1  13
BRANCH   6  15
ATOM     15  C   UNL     1       6.191   4.462  14.002  0.00  0.00    +0.000 C 
ATOM     16  C   UNL     1       7.507   5.156  13.639  0.00  0.00    +0.000 C 
BRANCH  15  17
ATOM     17  C   UNL     1       5.737   3.642  12.774  0.00  0.00    +0.000 C 
ATOM     18  N   UNL     1       6.696   2.876  12.171  0.00  0.00    +0.000 N 
ATOM     19  O   UNL     1       4.580   3.642  12.358  0.00  0.00    +0.000 OA
ATOM     20  H   UNL     1       7.527   2.637  12.699  0.00  0.00    +0.000 HD
ATOM     21  H   UNL     1       6.390   2.240  11.446  0.00  0.00    +0.000 HD
ENDBRANCH  15  17
ENDBRANCH   6  15
TORSDOF 3
ENDMDL
MODEL 3
REMARK VINA RESULT:      -5.7      4.366      5.930
REMARK  Name = 
REMARK  5 active torsions:
REMARK  status: ('A' for Active; 'I' for Inactive)
REMARK    1  A    between atoms: C_1  and  C_2
REMARK    2  A    between atoms: C_5  and  C_6
REMARK    3  A    between atoms: N_11  and  C_12
REMARK    4  A    between atoms: C_12  and  C_13
REMARK    5  A    between atoms: C_12  and  C_14
REMARK                            x       y       z     vdW  Elec       q    Type
REMARK                         _______ _______ _______ _____ _____    ______ ____
ROOT
ATOM      1  C   UNL     1       1.833   8.694  18.985  0.00  0.00    +0.000 C 
ATOM      2  O   UNL     1       2.025   9.573  18.139  0.00  0.00    +0.000 OA
ATOM      3  N   UNL     1       2.289   7.387  18.752  0.00  0.00    +0.000 N 
ATOM      4  C   UNL     1       3.036   7.095  17.525  0.00  0.00    +0.000 C 
ATOM      5  C   UNL     1       4.400   6.436  17.848  0.00  0.00    +0.000 C 
ATOM      6  N   UNL     1       4.333   5.229  18.723  0.00  0.00    +0.000 NA
ATOM      7  C   UNL     1       3.580   5.620  19.940  0.00  0.00    +0.000 C 
ATOM      8  C   UNL     1       2.204   6.252  19.678  0.00  0.00    +0.000 C 
ENDROOT
BRANCH   1  13
ATOM      9  C   UNL     1      -1.113  11.032  22.707  0.00  0.00    +0.000 C 
ATOM     10  C   UNL     1      -0.173  10.126  21.994  0.00  0.00    +0.000 A 
ATOM     11  C   UNL     1       0.714   9.221  22.536  0.00  0.00    +0.000 A 
ATOM     12  C   UNL     1       1.414   8.493  21.532  0.00  0.00    +0.000 A 
ATOM     13  C   UNL     1       1.186   8.989  20.261  0.00  0.00    +0.000 A 
ATOM     14  S   UNL     1      -0.106  10.123  20.286  0.00  0.00    +0.000 S 
ENDBRANCH   1  13
BRANCH   6  15
ATOM     15  C   UNL     1       3.713   4.053  18.039  0.00  0.00    +0.000 C 
ATOM     16  C   UNL     1       4.430   3.704  16.731  0.00  0.00    +0.000 C 
BRANCH  15  17
ATOM     17  C   UNL     1       3.765   2.806  18.951  0.00  0.00    +0.000 C 
ATOM     18  N   UNL     1       5.004   2.427  19.385  0.00  0.00    +0.000 N 
ATOM     19  O   UNL     1       2.760   2.189  19.300  0.00  0.00    +0.000 OA
ATOM     20  H   UNL     1       5.755   3.107  19.363  0.00  0.00    +0.000 HD
ATOM     21  H   UNL     1       5.045   1.692  20.079  0.00  0.00    +0.000 HD
ENDBRANCH  15  17
ENDBRANCH   6  15
TORSDOF 3
ENDMDL
MODEL 4
REMARK VINA RESULT:      -5.6      2.615      3.886
REMARK  Name = 
REMARK  5 active torsions:
REMARK  status: ('A' for Active; 'I' for Inactive)
REMARK    1  A    between atoms: C_1  and  C_2
REMARK    2  A    between atoms: C_5  and  C_6
REMARK    3  A    between atoms: N_11  and  C_12
REMARK    4  A    between atoms: C_12  and  C_13
REMARK    5  A    between atoms: C_12  and  C_14
REMARK                            x       y       z     vdW  Elec       q    Type
REMARK                         _______ _______ _______ _____ _____    ______ ____
ROOT
ATOM      1  C   UNL     1       6.744   4.733  16.917  0.00  0.00    +0.000 C 
ATOM      2  O   UNL     1       7.723   5.195  17.513  0.00  0.00    +0.000 OA
ATOM      3  N   UNL     1       5.615   4.320  17.642  0.00  0.00    +0.000 N 
ATOM      4  C   UNL     1       5.593   4.492  19.098  0.00  0.00    +0.000 C 
ATOM      5  C   UNL     1       4.341   5.287  19.544  0.00  0.00    +0.000 C 
ATOM      6  N   UNL     1       3.038   4.750  19.059  0.00  0.00    +0.000 NA
ATOM      7  C   UNL     1       3.144   4.627  17.584  0.00  0.00    +0.000 C 
ATOM      8  C   UNL     1       4.353   3.819  17.085  0.00  0.00    +0.000 C 
ENDROOT
BRANCH   1  13
ATOM      9  C   UNL     1       5.809   3.023  11.998  0.00  0.00    +0.000 C 
ATOM     10  C   UNL     1       6.286   3.810  13.167  0.00  0.00    +0.000 A 
ATOM     11  C   UNL     1       7.225   4.817  13.189  0.00  0.00    +0.000 A 
ATOM     12  C   UNL     1       7.382   5.372  14.491  0.00  0.00    +0.000 A 
ATOM     13  C   UNL     1       6.704   4.654  15.460  0.00  0.00    +0.000 A 
ATOM     14  S   UNL     1       5.649   3.511  14.725  0.00  0.00    +0.000 S 
ENDBRANCH   1  13
BRANCH   6  15
ATOM     15  C   UNL     1       2.673   3.449  19.700  0.00  0.00    +0.000 C 
ATOM     16  C   UNL     1       2.670   3.543  21.229  0.00  0.00    +0.000 C 
BRANCH  15  17
ATOM     17  C   UNL     1       1.263   3.002  19.254  0.00  0.00    +0.000 C 
ATOM     18  N   UNL     1       0.236   3.299  20.106  0.00  0.00    +0.000 N 
ATOM     19  O   UNL     1       1.048   2.430  18.187  0.00  0.00    +0.000 OA
ATOM     20  H   UNL     1       0.374   4.030  20.794  0.00  0.00    +0.000 HD
ATOM     21  H   UNL     1      -0.703   3.125  19.775  0.00  0.00    +0.000 HD
ENDBRANCH  15  17
ENDBRANCH   6  15
TORSDOF 3
ENDMDL
MODEL 5
REMARK VINA RESULT:      -5.6      2.402      3.710
REMARK  Name = 
REMARK  5 active torsions:
REMARK  status: ('A' for Active; 'I' for Inactive)
REMARK    1  A    between atoms: C_1  and  C_2
REMARK    2  A    between atoms: C_5  and  C_6
REMARK    3  A    between atoms: N_11  and  C_12
REMARK    4  A    between atoms: C_12  and  C_13
REMARK    5  A    between atoms: C_12  and  C_14
REMARK                            x       y       z     vdW  Elec       q    Type
REMARK                         _______ _______ _______ _____ _____    ______ ____
ROOT
ATOM      1  C   UNL     1       6.589   4.756  16.972  0.00  0.00    +0.000 C 
ATOM      2  O   UNL     1       7.500   5.422  17.476  0.00  0.00    +0.000 OA
ATOM      3  N   UNL     1       5.507   4.340  17.763  0.00  0.00    +0.000 N 
ATOM      4  C   UNL     1       5.445   4.749  19.169  0.00  0.00    +0.000 C 
ATOM      5  C   UNL     1       4.103   5.455  19.484  0.00  0.00    +0.000 C 
ATOM      6  N   UNL     1       2.878   4.695  19.104  0.00  0.00    +0.000 NA
ATOM      7  C   UNL     1       3.018   4.341  17.670  0.00  0.00    +0.000 C 
ATOM      8  C   UNL     1       4.320   3.609  17.306  0.00  0.00    +0.000 C 
ENDROOT
BRANCH   1  13
ATOM      9  C   UNL     1       7.444   4.982  11.755  0.00  0.00    +0.000 C 
ATOM     10  C   UNL     1       6.962   4.581  13.105  0.00  0.00    +0.000 A 
ATOM     11  C   UNL     1       5.962   3.689  13.421  0.00  0.00    +0.000 A 
ATOM     12  C   UNL     1       5.820   3.524  14.828  0.00  0.00    +0.000 A 
ATOM     13  C   UNL     1       6.578   4.430  15.549  0.00  0.00    +0.000 A 
ATOM     14  S   UNL     1       7.675   5.249  14.508  0.00  0.00    +0.000 S 
ENDBRANCH   1  13
BRANCH   6  15
ATOM     15  C   UNL     1       2.659   3.486  19.957  0.00  0.00    +0.000 C 
ATOM     16  C   UNL     1       2.272   3.857  21.391  0.00  0.00    +0.000 C 
BRANCH  15  17
ATOM     17  C   UNL     1       1.525   2.611  19.375  0.00  0.00    +0.000 C 
ATOM     18  N   UNL     1       1.904   1.420  18.823  0.00  0.00    +0.000 N 
ATOM     19  O   UNL     1       0.340   2.936  19.417  0.00  0.00    +0.000 OA
ATOM     20  H   UNL     1       2.803   1.031  19.080  0.00  0.00    +0.000 HD
ATOM     21  H   UNL     1       1.167   0.783  18.551  0.00  0.00    +0.000 HD
ENDBRANCH  15  17
ENDBRANCH   6  15
TORSDOF 3
ENDMDL
MODEL 6
REMARK VINA RESULT:      -5.6      5.369      6.942
REMARK  Name = 
REMARK  5 active torsions:
REMARK  status: ('A' for Active; 'I' for Inactive)
REMARK    1  A    between atoms: C_1  and  C_2
REMARK    2  A    between atoms: C_5  and  C_6
REMARK    3  A    between atoms: N_11  and  C_12
REMARK    4  A    between atoms: C_12  and  C_13
REMARK    5  A    between atoms: C_12  and  C_14
REMARK                            x       y       z     vdW  Elec       q    Type
REMARK                         _______ _______ _______ _____ _____    ______ ____
ROOT
ATOM      1  C   UNL     1       2.446   7.215  18.895  0.00  0.00    +0.000 C 
ATOM      2  O   UNL     1       2.819   7.485  17.748  0.00  0.00    +0.000 OA
ATOM      3  N   UNL     1       1.821   8.198  19.677  0.00  0.00    +0.000 N 
ATOM      4  C   UNL     1       1.569   9.522  19.100  0.00  0.00    +0.000 C 
ATOM      5  C   UNL     1       0.074   9.906  19.222  0.00  0.00    +0.000 C 
ATOM      6  N   UNL     1      -0.498   9.814  20.596  0.00  0.00    +0.000 NA
ATOM      7  C   UNL     1      -0.215   8.444  21.090  0.00  0.00    +0.000 C 
ATOM      8  C   UNL     1       1.261   8.021  21.022  0.00  0.00    +0.000 C 
ENDROOT
BRANCH   1  13
ATOM      9  C   UNL     1       4.348   2.394  19.965  0.00  0.00    +0.000 C 
ATOM     10  C   UNL     1       3.485   3.605  19.902  0.00  0.00    +0.000 A 
ATOM     11  C   UNL     1       2.167   3.731  20.283  0.00  0.00    +0.000 A 
ATOM     12  C   UNL     1       1.691   5.063  20.121  0.00  0.00    +0.000 A 
ATOM     13  C   UNL     1       2.590   5.871  19.448  0.00  0.00    +0.000 A 
ATOM     14  S   UNL     1       4.110   5.079  19.303  0.00  0.00    +0.000 S 
ENDBRANCH   1  13
BRANCH   6  15
ATOM     15  C   UNL     1       0.040  10.860  21.519  0.00  0.00    +0.000 C 
ATOM     16  C   UNL     1      -0.293  12.276  21.039  0.00  0.00    +0.000 C 
BRANCH  15  17
ATOM     17  C   UNL     1      -0.555  10.691  22.935  0.00  0.00    +0.000 C 
ATOM     18  N   UNL     1      -1.755  11.305  23.164  0.00  0.00    +0.000 N 
ATOM     19  O   UNL     1      -0.010  10.027  23.816  0.00  0.00    +0.000 OA
ATOM     20  H   UNL     1      -2.328  11.560  22.369  0.00  0.00    +0.000 HD
ATOM     21  H   UNL     1      -2.216  11.104  24.042  0.00  0.00    +0.000 HD
ENDBRANCH  15  17
ENDBRANCH   6  15
TORSDOF 3
ENDMDL
MODEL 7
REMARK VINA RESULT:      -5.5      5.392      6.820
REMARK  Name = 
REMARK  5 active torsions:
REMARK  status: ('A' for Active; 'I' for Inactive)
REMARK    1  A    between atoms: C_1  and  C_2
REMARK    2  A    between atoms: C_5  and  C_6
REMARK    3  A    between atoms: N_11  and  C_12
REMARK    4  A    between atoms: C_12  and  C_13
REMARK    5  A    between atoms: C_12  and  C_14
REMARK                            x       y       z     vdW  Elec       q    Type
REMARK                         _______ _______ _______ _____ _____    ______ ____
ROOT
ATOM      1  C   UNL     1       2.529   7.640  18.222  0.00  0.00    +0.000 C 
ATOM      2  O   UNL     1       2.731   8.078  17.084  0.00  0.00    +0.000 OA
ATOM      3  N   UNL     1       1.931   8.459  19.192  0.00  0.00    +0.000 N 
ATOM      4  C   UNL     1       1.503   9.812  18.824  0.00  0.00    +0.000 C 
ATOM      5  C   UNL     1       0.010  10.035  19.166  0.00  0.00    +0.000 C 
ATOM      6  N   UNL     1      -0.375   9.727  20.574  0.00  0.00    +0.000 NA
ATOM      7  C   UNL     1       0.078   8.341  20.851  0.00  0.00    +0.000 C 
ATOM      8  C   UNL     1       1.563   8.072  20.558  0.00  0.00    +0.000 C 
ENDROOT
BRANCH   1  13
ATOM      9  C   UNL     1       2.119   2.421  18.999  0.00  0.00    +0.000 C 
ATOM     10  C   UNL     1       2.618   3.823  18.966  0.00  0.00    +0.000 A 
ATOM     11  C   UNL     1       3.713   4.352  19.613  0.00  0.00    +0.000 A 
ATOM     12  C   UNL     1       3.904   5.728  19.299  0.00  0.00    +0.000 A 
ATOM     13  C   UNL     1       2.850   6.260  18.577  0.00  0.00    +0.000 A 
ATOM     14  S   UNL     1       1.805   5.006  18.037  0.00  0.00    +0.000 S 
ENDBRANCH   1  13
BRANCH   6  15
ATOM     15  C   UNL     1       0.190  10.703  21.555  0.00  0.00    +0.000 C 
ATOM     16  C   UNL     1      -0.133  12.151  21.177  0.00  0.00    +0.000 C 
BRANCH  15  17
ATOM     17  C   UNL     1      -0.384  10.446  22.967  0.00  0.00    +0.000 C 
ATOM     18  N   UNL     1      -1.604  11.001  23.233  0.00  0.00    +0.000 N 
ATOM     19  O   UNL     1       0.195   9.765  23.811  0.00  0.00    +0.000 OA
ATOM     20  H   UNL     1      -2.195  11.269  22.455  0.00  0.00    +0.000 HD
ATOM     21  H   UNL     1      -2.049  10.742  24.104  0.00  0.00    +0.000 HD
ENDBRANCH  15  17
ENDBRANCH   6  15
TORSDOF 3
ENDMDL
MODEL 8
REMARK VINA RESULT:      -5.5      3.303      6.811
REMARK  Name = 
REMARK  5 active torsions:
REMARK  status: ('A' for Active; 'I' for Inactive)
REMARK    1  A    between atoms: C_1  and  C_2
REMARK    2  A    between atoms: C_5  and  C_6
REMARK    3  A    between atoms: N_11  and  C_12
REMARK    4  A    between atoms: C_12  and  C_13
REMARK    5  A    between atoms: C_12  and  C_14
REMARK                            x       y       z     vdW  Elec       q    Type
REMARK                         _______ _______ _______ _____ _____    ______ ____
ROOT
ATOM      1  C   UNL     1       4.354   5.695  17.929  0.00  0.00    +0.000 C 
ATOM      2  O   UNL     1       4.879   6.577  18.618  0.00  0.00    +0.000 OA
ATOM      3  N   UNL     1       4.886   5.382  16.669  0.00  0.00    +0.000 N 
ATOM      4  C   UNL     1       6.093   6.073  16.207  0.00  0.00    +0.000 C 
ATOM      5  C   UNL     1       7.194   5.060  15.805  0.00  0.00    +0.000 C 
ATOM      6  N   UNL     1       6.774   4.020  14.822  0.00  0.00    +0.000 NA
ATOM      7  C   UNL     1       5.565   3.364  15.377  0.00  0.00    +0.000 C 
ATOM      8  C   UNL     1       4.426   4.322  15.764  0.00  0.00    +0.000 C 
ENDROOT
BRANCH   1  13
ATOM      9  C   UNL     1       1.241   2.730  21.014  0.00  0.00    +0.000 C 
ATOM     10  C   UNL     1       1.794   3.501  19.868  0.00  0.00    +0.000 A 
ATOM     11  C   UNL     1       1.351   3.522  18.564  0.00  0.00    +0.000 A 
ATOM     12  C   UNL     1       2.105   4.424  17.759  0.00  0.00    +0.000 A 
ATOM     13  C   UNL     1       3.216   4.921  18.418  0.00  0.00    +0.000 A 
ATOM     14  S   UNL     1       3.146   4.523  20.089  0.00  0.00    +0.000 S 
ENDBRANCH   1  13
BRANCH   6  15
ATOM     15  C   UNL     1       6.527   4.579  13.457  0.00  0.00    +0.000 C 
ATOM     16  C   UNL     1       7.810   5.117  12.815  0.00  0.00    +0.000 C 
BRANCH  15  17
ATOM     17  C   UNL     1       5.952   3.492  12.522  0.00  0.00    +0.000 C 
ATOM     18  N   UNL     1       6.832   2.540  12.090  0.00  0.00    +0.000 N 
ATOM     19  O   UNL     1       4.768   3.452  12.190  0.00  0.00    +0.000 OA
ATOM     20  H   UNL     1       7.689   2.399  12.611  0.00  0.00    +0.000 HD
ATOM     21  H   UNL     1       6.448   1.755  11.580  0.00  0.00    +0.000 HD
ENDBRANCH  15  17
ENDBRANCH   6  15
TORSDOF 3
ENDMDL
MODEL 9
REMARK VINA RESULT:      -5.5      2.901      4.405
REMARK  Name = 
REMARK  5 active torsions:
REMARK  status: ('A' for Active; 'I' for Inactive)
REMARK    1  A    between atoms: C_1  and  C_2
REMARK    2  A    between atoms: C_5  and  C_6
REMARK    3  A    between atoms: N_11  and  C_12
REMARK    4  A    between atoms: C_12  and  C_13
REMARK    5  A    between atoms: C_12  and  C_14
REMARK                            x       y       z     vdW  Elec       q    Type
REMARK                         _______ _______ _______ _____ _____    ______ ____
ROOT
ATOM      1  C   UNL     1       6.807   5.340  15.971  0.00  0.00    +0.000 C 
ATOM      2  O   UNL     1       7.501   6.295  16.338  0.00  0.00    +0.000 OA
ATOM      3  N   UNL     1       5.969   4.691  16.890  0.00  0.00    +0.000 N 
ATOM      4  C   UNL     1       5.888   5.190  18.266  0.00  0.00    +0.000 C 
ATOM      5  C   UNL     1       4.421   5.482  18.666  0.00  0.00    +0.000 C 
ATOM      6  N   UNL     1       3.467   4.354  18.459  0.00  0.00    +0.000 NA
ATOM      7  C   UNL     1       3.603   3.928  17.044  0.00  0.00    +0.000 C 
ATOM      8  C   UNL     1       5.037   3.595  16.601  0.00  0.00    +0.000 C 
ENDROOT
BRANCH   1  13
ATOM      9  C   UNL     1       5.629   2.674  11.555  0.00  0.00    +0.000 C 
ATOM     10  C   UNL     1       6.249   3.606  12.535  0.00  0.00    +0.000 A 
ATOM     11  C   UNL     1       7.406   4.340  12.395  0.00  0.00    +0.000 A 
ATOM     12  C   UNL     1       7.656   5.163  13.531  0.00  0.00    +0.000 A 
ATOM     13  C   UNL     1       6.793   4.896  14.580  0.00  0.00    +0.000 A 
ATOM     14  S   UNL     1       5.513   3.876  14.054  0.00  0.00    +0.000 S 
ENDBRANCH   1  13
BRANCH   6  15
ATOM     15  C   UNL     1       3.697   3.220  19.406  0.00  0.00    +0.000 C 
ATOM     16  C   UNL     1       3.143   3.516  20.803  0.00  0.00    +0.000 C 
BRANCH  15  17
ATOM     17  C   UNL     1       3.011   1.935  18.890  0.00  0.00    +0.000 C 
ATOM     18  N   UNL     1       3.841   0.914  18.521  0.00  0.00    +0.000 N 
ATOM     19  O   UNL     1       1.790   1.806  18.828  0.00  0.00    +0.000 OA
ATOM     20  H   UNL     1       4.792   0.910  18.872  0.00  0.00    +0.000 HD
ATOM     21  H   UNL     1       3.410   0.026  18.299  0.00  0.00    +0.000 HD
ENDBRANCH  15  17
ENDBRANCH   6  15
TORSDOF 3
ENDMDL
