MODEL 1
REMARK VINA RESULT:      -7.4      0.000      0.000
REMARK  Name = 
REMARK  4 active torsions:
REMARK  status: ('A' for Active; 'I' for Inactive)
REMARK    1  A    between atoms: C_5  and  N_6
REMARK    2  A    between atoms: N_9  and  C_10
REMARK    3  A    between atoms: C_10  and  C_11
REMARK    4  A    between atoms: C_11  and  C_12
REMARK                            x       y       z     vdW  Elec       q    Type
REMARK                         _______ _______ _______ _____ _____    ______ ____
ROOT
ATOM      1  N   UNL     1       5.186   5.681  18.628  0.00  0.00    +0.000 N 
ATOM      2  C   UNL     1       6.436   5.355  19.330  0.00  0.00    +0.000 C 
ATOM      3  C   UNL     1       7.623   5.300  18.346  0.00  0.00    +0.000 C 
ATOM      4  N   UNL     1       7.790   6.520  17.520  0.00  0.00    +0.000 NA
ATOM      5  C   UNL     1       6.509   6.724  16.789  0.00  0.00    +0.000 C 
ATOM      6  C   UNL     1       5.241   6.809  17.680  0.00  0.00    +0.000 C 
ENDROOT
BRANCH   1  11
ATOM      7 CL   UNL     1       0.455   2.113  18.685  0.00  0.00    +0.000 Cl
ATOM      8  C   UNL     1       1.825   3.151  18.675  0.00  0.00    +0.000 A 
ATOM      9  C   UNL     1       1.827   4.294  17.885  0.00  0.00    +0.000 A 
ATOM     10  C   UNL     1       2.950   5.129  17.877  0.00  0.00    +0.000 A 
ATOM     11  C   UNL     1       4.088   4.845  18.649  0.00  0.00    +0.000 A 
ATOM     12  C   UNL     1       4.049   3.686  19.440  0.00  0.00    +0.000 A 
ATOM     13  C   UNL     1       2.933   2.844  19.455  0.00  0.00    +0.000 A 
ENDBRANCH   1  11
BRANCH   4  14
ATOM     14  C   UNL     1       8.119   7.720  18.320  0.00  0.00    +0.000 C 
BRANCH  14  15
ATOM     15  C   UNL     1       7.965   9.049  17.560  0.00  0.00    +0.000 C 
BRANCH  15  16
ATOM     16  C   UNL     1       8.648  10.179  18.291  0.00  0.00    +0.000 A 
ATOM     17  C   UNL     1       9.235   9.968  19.548  0.00  0.00    +0.000 A 
ATOM     18  C   UNL     1       9.838  11.022  20.234  0.00  0.00    +0.000 A 
ATOM     19  C   UNL     1       9.858  12.298  19.672  0.00  0.00    +0.000 A 
ATOM     20  C   UNL     1       9.278  12.519  18.425  0.00  0.00    +0.000 A 
ATOM     21  C   UNL     1       8.676  11.465  17.737  0.00  0.00    +0.000 A 
ENDBRANCH  15  16
ENDBRANCH  14  15
ENDBRANCH   4  14
TORSDOF 4
ENDMDL
MODEL 2
REMARK VINA RESULT:      -7.3      0.554      1.093
REMARK  Name = 
REMARK  4 active torsions:
REMARK  status: ('A' for Active; 'I' for Inactive)
REMARK    1  A    between atoms: C_5  and  N_6
REMARK    2  A    between atoms: N_9  and  C_10
REMARK    3  A    between atoms: C_10  and  C_11
REMARK    4  A    between atoms: C_11  and  C_12
REMARK                            x       y       z     vdW  Elec       q    Type
REMARK                         _______ _______ _______ _____ _____    ______ ____
ROOT
ATOM      1  N   UNL     1       5.216   5.668  18.675  0.00  0.00    +0.000 N 
ATOM      2  C   UNL     1       6.493   5.308  19.310  0.00  0.00    +0.000 C 
ATOM      3  C   UNL     1       7.646   5.333  18.285  0.00  0.00    +0.000 C 
ATOM      4  N   UNL     1       7.774   6.609  17.540  0.00  0.00    +0.000 NA
ATOM      5  C   UNL     1       6.467   6.850  16.868  0.00  0.00    +0.000 C 
ATOM      6  C   UNL     1       5.230   6.859  17.806  0.00  0.00    +0.000 C 
ENDROOT
BRANCH   1  11
ATOM      7 CL   UNL     1       0.515   2.062  18.657  0.00  0.00    +0.000 Cl
ATOM      8  C   UNL     1       1.878   3.108  18.669  0.00  0.00    +0.000 A 
ATOM      9  C   UNL     1       1.721   4.459  18.386  0.00  0.00    +0.000 A 
ATOM     10  C   UNL     1       2.839   5.302  18.391  0.00  0.00    +0.000 A 
ATOM     11  C   UNL     1       4.127   4.821  18.674  0.00  0.00    +0.000 A 
ATOM     12  C   UNL     1       4.248   3.453  18.962  0.00  0.00    +0.000 A 
ATOM     13  C   UNL     1       3.138   2.600  18.959  0.00  0.00    +0.000 A 
ENDBRANCH   1  11
BRANCH   4  14
ATOM     14  C   UNL     1       8.121   7.755  18.410  0.00  0.00    +0.000 C 
BRANCH  14  15
ATOM     15  C   UNL     1       8.127   9.116  17.691  0.00  0.00    +0.000 C 
BRANCH  15  16
ATOM     16  C   UNL     1       9.004  10.110  18.413  0.00  0.00    +0.000 A 
ATOM     17  C   UNL     1       9.828  10.991  17.696  0.00  0.00    +0.000 A 
ATOM     18  C   UNL     1      10.660  11.887  18.368  0.00  0.00    +0.000 A 
ATOM     19  C   UNL     1      10.679  11.910  19.761  0.00  0.00    +0.000 A 
ATOM     20  C   UNL     1       9.865  11.039  20.483  0.00  0.00    +0.000 A 
ATOM     21  C   UNL     1       9.031  10.143  19.813  0.00  0.00    +0.000 A 
ENDBRANCH  15  16
ENDBRANCH  14  15
ENDBRANCH   4  14
TORSDOF 4
ENDMDL
MODEL 3
REMARK VINA RESULT:      -7.0      0.856      1.463
REMARK  Name = 
REMARK  4 active torsions:
REMARK  status: ('A' for Active; 'I' for Inactive)
REMARK    1  A    between atoms: C_5  and  N_6
REMARK    2  A    between atoms: N_9  and  C_10
REMARK    3  A    between atoms: C_10  and  C_11
REMARK    4  A    between atoms: C_11  and  C_12
REMARK                            x       y       z     vdW  Elec       q    Type
REMARK                         _______ _______ _______ _____ _____    ______ ____
ROOT
ATOM      1  N   UNL     1       4.848   5.926  18.099  0.00  0.00    +0.000 N 
ATOM      2  C   UNL     1       6.004   5.990  19.006  0.00  0.00    +0.000 C 
ATOM      3  C   UNL     1       7.324   5.786  18.234  0.00  0.00    +0.000 C 
ATOM      4  N   UNL     1       7.510   6.707  17.086  0.00  0.00    +0.000 NA
ATOM      5  C   UNL     1       6.338   6.516  16.186  0.00  0.00    +0.000 C 
ATOM      6  C   UNL     1       4.950   6.709  16.853  0.00  0.00    +0.000 C 
ENDROOT
BRANCH   1  11
ATOM      7 CL   UNL     1       0.476   1.992  18.822  0.00  0.00    +0.000 Cl
ATOM      8  C   UNL     1       1.749   3.128  18.614  0.00  0.00    +0.000 A 
ATOM      9  C   UNL     1       2.041   4.040  19.621  0.00  0.00    +0.000 A 
ATOM     10  C   UNL     1       3.074   4.966  19.439  0.00  0.00    +0.000 A 
ATOM     11  C   UNL     1       3.833   5.006  18.259  0.00  0.00    +0.000 A 
ATOM     12  C   UNL     1       3.515   4.067  17.265  0.00  0.00    +0.000 A 
ATOM     13  C   UNL     1       2.484   3.137  17.435  0.00  0.00    +0.000 A 
ENDBRANCH   1  11
BRANCH   4  14
ATOM     14  C   UNL     1       7.615   8.126  17.493  0.00  0.00    +0.000 C 
BRANCH  14  15
ATOM     15  C   UNL     1       8.641   8.389  18.609  0.00  0.00    +0.000 C 
BRANCH  15  16
ATOM     16  C   UNL     1       8.913   9.866  18.763  0.00  0.00    +0.000 A 
ATOM     17  C   UNL     1       8.627  10.760  17.720  0.00  0.00    +0.000 A 
ATOM     18  C   UNL     1       8.909  12.119  17.857  0.00  0.00    +0.000 A 
ATOM     19  C   UNL     1       9.480  12.598  19.034  0.00  0.00    +0.000 A 
ATOM     20  C   UNL     1       9.768  11.719  20.076  0.00  0.00    +0.000 A 
ATOM     21  C   UNL     1       9.486  10.360  19.942  0.00  0.00    +0.000 A 
ENDBRANCH  15  16
ENDBRANCH  14  15
ENDBRANCH   4  14
TORSDOF 4
ENDMDL
MODEL 4
REMARK VINA RESULT:      -7.0      4.083      6.957
REMARK  Name = 
REMARK  4 active torsions:
REMARK  status: ('A' for Active; 'I' for Inactive)
REMARK    1  A    between atoms: C_5  and  N_6
REMARK    2  A    between atoms: N_9  and  C_10
REMARK    3  A    between atoms: C_10  and  C_11
REMARK    4  A    between atoms: C_11  and  C_12
REMARK                            x       y       z     vdW  Elec       q    Type
REMARK                         _______ _______ _______ _____ _____    ______ ____
ROOT
ATOM      1  N   UNL     1       5.201   4.056  17.109  0.00  0.00    +0.000 N 
ATOM      2  C   UNL     1       4.715   4.265  15.736  0.00  0.00    +0.000 C 
ATOM      3  C   UNL     1       5.209   5.615  15.176  0.00  0.00    +0.000 C 
ATOM      4  N   UNL     1       6.678   5.806  15.244  0.00  0.00    +0.000 NA
ATOM      5  C   UNL     1       7.066   5.657  16.675  0.00  0.00    +0.000 C 
ATOM      6  C   UNL     1       6.632   4.326  17.345  0.00  0.00    +0.000 C 
ENDROOT
BRANCH   1  11
ATOM      7 CL   UNL     1       1.529   3.197  21.679  0.00  0.00    +0.000 Cl
ATOM      8  C   UNL     1       2.589   3.449  20.350  0.00  0.00    +0.000 A 
ATOM      9  C   UNL     1       2.967   2.379  19.548  0.00  0.00    +0.000 A 
ATOM     10  C   UNL     1       3.837   2.592  18.473  0.00  0.00    +0.000 A 
ATOM     11  C   UNL     1       4.345   3.866  18.174  0.00  0.00    +0.000 A 
ATOM     12  C   UNL     1       3.937   4.925  19.000  0.00  0.00    +0.000 A 
ATOM     13  C   UNL     1       3.070   4.724  20.079  0.00  0.00    +0.000 A 
ENDBRANCH   1  11
BRANCH   4  14
ATOM     14  C   UNL     1       7.427   4.842  14.409  0.00  0.00    +0.000 C 
BRANCH  14  15
ATOM     15  C   UNL     1       7.262   5.056  12.894  0.00  0.00    +0.000 C 
BRANCH  15  16
ATOM     16  C   UNL     1       6.739   3.809  12.221  0.00  0.00    +0.000 A 
ATOM     17  C   UNL     1       5.359   3.582  12.107  0.00  0.00    +0.000 A 
ATOM     18  C   UNL     1       4.882   2.414  11.511  0.00  0.00    +0.000 A 
ATOM     19  C   UNL     1       5.777   1.463  11.026  0.00  0.00    +0.000 A 
ATOM     20  C   UNL     1       7.150   1.678  11.135  0.00  0.00    +0.000 A 
ATOM     21  C   UNL     1       7.629   2.846  11.728  0.00  0.00    +0.000 A 
ENDBRANCH  15  16
ENDBRANCH  14  15
ENDBRANCH   4  14
TORSDOF 4
ENDMDL
MODEL 5
REMARK VINA RESULT:      -7.0      0.892      1.412
REMARK  Name = 
REMARK  4 active torsions:
REMARK  status: ('A' for Active; 'I' for Inactive)
REMARK    1  A    between atoms: C_5  and  N_6
REMARK    2  A    between atoms: N_9  and  C_10
REMARK    3  A    between atoms: C_10  and  C_11
REMARK    4  A    between atoms: C_11  and  C_12
REMARK                            x       y       z     vdW  Elec       q    Type
REMARK                         _______ _______ _______ _____ _____    ______ ____
ROOT
ATOM      1  N   UNL     1       4.726   5.971  18.130  0.00  0.00    +0.000 N 
ATOM      2  C   UNL     1       5.931   5.964  18.973  0.00  0.00    +0.000 C 
ATOM      3  C   UNL     1       7.205   5.820  18.115  0.00  0.00    +0.000 C 
ATOM      4  N   UNL     1       7.330   6.826  17.032  0.00  0.00    +0.000 NA
ATOM      5  C   UNL     1       6.109   6.705  16.187  0.00  0.00    +0.000 C 
ATOM      6  C   UNL     1       4.761   6.846  16.944  0.00  0.00    +0.000 C 
ENDROOT
BRANCH   1  11
ATOM      7 CL   UNL     1       0.411   1.954  18.730  0.00  0.00    +0.000 Cl
ATOM      8  C   UNL     1       1.658   3.124  18.553  0.00  0.00    +0.000 A 
ATOM      9  C   UNL     1       2.583   3.005  17.523  0.00  0.00    +0.000 A 
ATOM     10  C   UNL     1       3.599   3.958  17.392  0.00  0.00    +0.000 A 
ATOM     11  C   UNL     1       3.717   5.041  18.276  0.00  0.00    +0.000 A 
ATOM     12  C   UNL     1       2.762   5.134  19.301  0.00  0.00    +0.000 A 
ATOM     13  C   UNL     1       1.743   4.187  19.443  0.00  0.00    +0.000 A 
ENDBRANCH   1  11
BRANCH   4  14
ATOM     14  C   UNL     1       7.465   8.209  17.539  0.00  0.00    +0.000 C 
BRANCH  14  15
ATOM     15  C   UNL     1       8.630   8.411  18.524  0.00  0.00    +0.000 C 
BRANCH  15  16
ATOM     16  C   UNL     1       8.909   9.878  18.747  0.00  0.00    +0.000 A 
ATOM     17  C   UNL     1       8.691  10.812  17.723  0.00  0.00    +0.000 A 
ATOM     18  C   UNL     1       8.979  12.162  17.924  0.00  0.00    +0.000 A 
ATOM     19  C   UNL     1       9.489  12.591  19.147  0.00  0.00    +0.000 A 
ATOM     20  C   UNL     1       9.710  11.672  20.171  0.00  0.00    +0.000 A 
ATOM     21  C   UNL     1       9.421  10.322  19.973  0.00  0.00    +0.000 A 
ENDBRANCH  15  16
ENDBRANCH  14  15
ENDBRANCH   4  14
TORSDOF 4
ENDMDL
MODEL 6
REMARK VINA RESULT:      -7.0      4.393      6.626
REMARK  Name = 
REMARK  4 active torsions:
REMARK  status: ('A' for Active; 'I' for Inactive)
REMARK    1  A    between atoms: C_5  and  N_6
REMARK    2  A    between atoms: N_9  and  C_10
REMARK    3  A    between atoms: C_10  and  C_11
REMARK    4  A    between atoms: C_11  and  C_12
REMARK                            x       y       z     vdW  Elec       q    Type
REMARK                         _______ _______ _______ _____ _____    ______ ____
ROOT
ATOM      1  N   UNL     1       3.221   6.667  17.977  0.00  0.00    +0.000 N 
ATOM      2  C   UNL     1       4.662   6.863  17.753  0.00  0.00    +0.000 C 
ATOM      3  C   UNL     1       5.478   5.708  18.369  0.00  0.00    +0.000 C 
ATOM      4  N   UNL     1       5.060   4.357  17.923  0.00  0.00    +0.000 NA
ATOM      5  C   UNL     1       3.616   4.220  18.261  0.00  0.00    +0.000 C 
ATOM      6  C   UNL     1       2.690   5.323  17.683  0.00  0.00    +0.000 C 
ENDROOT
BRANCH   1  11
ATOM      7 CL   UNL     1      -0.096  10.595  20.924  0.00  0.00    +0.000 Cl
ATOM      8  C   UNL     1       0.861   9.453  20.066  0.00  0.00    +0.000 A 
ATOM      9  C   UNL     1       1.302   8.298  20.700  0.00  0.00    +0.000 A 
ATOM     10  C   UNL     1       2.087   7.378  19.996  0.00  0.00    +0.000 A 
ATOM     11  C   UNL     1       2.447   7.587  18.655  0.00  0.00    +0.000 A 
ATOM     12  C   UNL     1       1.979   8.760  18.044  0.00  0.00    +0.000 A 
ATOM     13  C   UNL     1       1.195   9.688  18.738  0.00  0.00    +0.000 A 
ENDBRANCH   1  11
BRANCH   4  14
ATOM     14  C   UNL     1       5.268   4.134  16.475  0.00  0.00    +0.000 C 
BRANCH  14  15
ATOM     15  C   UNL     1       6.660   4.550  15.965  0.00  0.00    +0.000 C 
BRANCH  15  16
ATOM     16  C   UNL     1       6.761   4.394  14.467  0.00  0.00    +0.000 A 
ATOM     17  C   UNL     1       7.640   5.194  13.722  0.00  0.00    +0.000 A 
ATOM     18  C   UNL     1       7.707   5.067  12.334  0.00  0.00    +0.000 A 
ATOM     19  C   UNL     1       6.896   4.143  11.678  0.00  0.00    +0.000 A 
ATOM     20  C   UNL     1       6.019   3.344  12.409  0.00  0.00    +0.000 A 
ATOM     21  C   UNL     1       5.951   3.468  13.797  0.00  0.00    +0.000 A 
ENDBRANCH  15  16
ENDBRANCH  14  15
ENDBRANCH   4  14
TORSDOF 4
ENDMDL
MODEL 7
REMARK VINA RESULT:      -6.9      4.070      6.909
REMARK  Name = 
REMARK  4 active torsions:
REMARK  status: ('A' for Active; 'I' for Inactive)
REMARK    1  A    between atoms: C_5  and  N_6
REMARK    2  A    between atoms: N_9  and  C_10
REMARK    3  A    between atoms: C_10  and  C_11
REMARK    4  A    between atoms: C_11  and  C_12
REMARK                            x       y       z     vdW  Elec       q    Type
REMARK                         _______ _______ _______ _____ _____    ______ ____
ROOT
ATOM      1  N   UNL     1       5.229   4.043  17.055  0.00  0.00    +0.000 N 
ATOM      2  C   UNL     1       4.763   4.276  15.679  0.00  0.00    +0.000 C 
ATOM      3  C   UNL     1       5.256   5.640  15.153  0.00  0.00    +0.000 C 
ATOM      4  N   UNL     1       6.723   5.838  15.248  0.00  0.00    +0.000 NA
ATOM      5  C   UNL     1       7.090   5.663  16.681  0.00  0.00    +0.000 C 
ATOM      6  C   UNL     1       6.653   4.316  17.319  0.00  0.00    +0.000 C 
ENDROOT
BRANCH   1  11
ATOM      7 CL   UNL     1       1.485   3.076  21.545  0.00  0.00    +0.000 Cl
ATOM      8  C   UNL     1       2.566   3.360  20.240  0.00  0.00    +0.000 A 
ATOM      9  C   UNL     1       2.769   2.379  19.277  0.00  0.00    +0.000 A 
ATOM     10  C   UNL     1       3.657   2.617  18.222  0.00  0.00    +0.000 A 
ATOM     11  C   UNL     1       4.358   3.827  18.103  0.00  0.00    +0.000 A 
ATOM     12  C   UNL     1       4.123   4.799  19.089  0.00  0.00    +0.000 A 
ATOM     13  C   UNL     1       3.239   4.572  20.149  0.00  0.00    +0.000 A 
ENDBRANCH   1  11
BRANCH   4  14
ATOM     14  C   UNL     1       7.491   4.895  14.406  0.00  0.00    +0.000 C 
BRANCH  14  15
ATOM     15  C   UNL     1       7.284   5.085  12.893  0.00  0.00    +0.000 C 
BRANCH  15  16
ATOM     16  C   UNL     1       6.777   3.817  12.247  0.00  0.00    +0.000 A 
ATOM     17  C   UNL     1       7.670   2.901  11.672  0.00  0.00    +0.000 A 
ATOM     18  C   UNL     1       7.195   1.746  11.050  0.00  0.00    +0.000 A 
ATOM     19  C   UNL     1       5.825   1.497  10.995  0.00  0.00    +0.000 A 
ATOM     20  C   UNL     1       4.929   2.402  11.563  0.00  0.00    +0.000 A 
ATOM     21  C   UNL     1       5.403   3.556  12.187  0.00  0.00    +0.000 A 
ENDBRANCH  15  16
ENDBRANCH  14  15
ENDBRANCH   4  14
TORSDOF 4
ENDMDL
MODEL 8
REMARK VINA RESULT:      -6.9      4.093      6.916
REMARK  Name = 
REMARK  4 active torsions:
REMARK  status: ('A' for Active; 'I' for Inactive)
REMARK    1  A    between atoms: C_5  and  N_6
REMARK    2  A    between atoms: N_9  and  C_10
REMARK    3  A    between atoms: C_10  and  C_11
REMARK    4  A    between atoms: C_11  and  C_12
REMARK                            x       y       z     vdW  Elec       q    Type
REMARK                         _______ _______ _______ _____ _____    ______ ____
ROOT
ATOM      1  N   UNL     1       5.236   4.036  17.130  0.00  0.00    +0.000 N 
ATOM      2  C   UNL     1       4.736   4.172  15.753  0.00  0.00    +0.000 C 
ATOM      3  C   UNL     1       5.134   5.537  15.154  0.00  0.00    +0.000 C 
ATOM      4  N   UNL     1       6.587   5.832  15.215  0.00  0.00    +0.000 NA
ATOM      5  C   UNL     1       6.984   5.749  16.648  0.00  0.00    +0.000 C 
ATOM      6  C   UNL     1       6.644   4.410  17.356  0.00  0.00    +0.000 C 
ENDROOT
BRANCH   1  11
ATOM      7 CL   UNL     1       1.628   3.131  21.743  0.00  0.00    +0.000 Cl
ATOM      8  C   UNL     1       2.679   3.390  20.408  0.00  0.00    +0.000 A 
ATOM      9  C   UNL     1       3.323   4.612  20.255  0.00  0.00    +0.000 A 
ATOM     10  C   UNL     1       4.171   4.816  19.161  0.00  0.00    +0.000 A 
ATOM     11  C   UNL     1       4.395   3.816  18.202  0.00  0.00    +0.000 A 
ATOM     12  C   UNL     1       3.735   2.591  18.391  0.00  0.00    +0.000 A 
ATOM     13  C   UNL     1       2.884   2.376  19.480  0.00  0.00    +0.000 A 
ENDBRANCH   1  11
BRANCH   4  14
ATOM     14  C   UNL     1       7.401   4.899  14.405  0.00  0.00    +0.000 C 
BRANCH  14  15
ATOM     15  C   UNL     1       7.233   5.070  12.885  0.00  0.00    +0.000 C 
BRANCH  15  16
ATOM     16  C   UNL     1       6.758   3.789  12.241  0.00  0.00    +0.000 A 
ATOM     17  C   UNL     1       7.676   2.875  11.703  0.00  0.00    +0.000 A 
ATOM     18  C   UNL     1       7.230   1.708  11.082  0.00  0.00    +0.000 A 
ATOM     19  C   UNL     1       5.865   1.445  10.991  0.00  0.00    +0.000 A 
ATOM     20  C   UNL     1       4.944   2.346  11.522  0.00  0.00    +0.000 A 
ATOM     21  C   UNL     1       5.389   3.513  12.145  0.00  0.00    +0.000 A 
ENDBRANCH  15  16
ENDBRANCH  14  15
ENDBRANCH   4  14
TORSDOF 4
ENDMDL
MODEL 9
REMARK VINA RESULT:      -6.8      0.703      1.296
REMARK  Name = 
REMARK  4 active torsions:
REMARK  status: ('A' for Active; 'I' for Inactive)
REMARK    1  A    between atoms: C_5  and  N_6
REMARK    2  A    between atoms: N_9  and  C_10
REMARK    3  A    between atoms: C_10  and  C_11
REMARK    4  A    between atoms: C_11  and  C_12
REMARK                            x       y       z     vdW  Elec       q    Type
REMARK                         _______ _______ _______ _____ _____    ______ ____
ROOT
ATOM      1  N   UNL     1       4.832   5.731  18.000  0.00  0.00    +0.000 N 
ATOM      2  C   UNL     1       5.890   5.931  19.002  0.00  0.00    +0.000 C 
ATOM      3  C   UNL     1       7.281   5.645  18.400  0.00  0.00    +0.000 C 
ATOM      4  N   UNL     1       7.582   6.408  17.164  0.00  0.00    +0.000 NA
ATOM      5  C   UNL     1       6.508   6.083  16.185  0.00  0.00    +0.000 C 
ATOM      6  C   UNL     1       5.059   6.343  16.677  0.00  0.00    +0.000 C 
ENDROOT
BRANCH   1  11
ATOM      7 CL   UNL     1       0.453   1.817  18.783  0.00  0.00    +0.000 Cl
ATOM      8  C   UNL     1       1.722   2.951  18.549  0.00  0.00    +0.000 A 
ATOM      9  C   UNL     1       3.044   2.566  18.738  0.00  0.00    +0.000 A 
ATOM     10  C   UNL     1       4.071   3.499  18.553  0.00  0.00    +0.000 A 
ATOM     11  C   UNL     1       3.806   4.826  18.178  0.00  0.00    +0.000 A 
ATOM     12  C   UNL     1       2.460   5.179  17.989  0.00  0.00    +0.000 A 
ATOM     13  C   UNL     1       1.426   4.255  18.174  0.00  0.00    +0.000 A 
ENDBRANCH   1  11
BRANCH   4  14
ATOM     14  C   UNL     1       7.645   7.869  17.387  0.00  0.00    +0.000 C 
BRANCH  14  15
ATOM     15  C   UNL     1       8.450   8.286  18.631  0.00  0.00    +0.000 C 
BRANCH  15  16
ATOM     16  C   UNL     1       8.745   9.766  18.620  0.00  0.00    +0.000 A 
ATOM     17  C   UNL     1       9.610  10.331  19.570  0.00  0.00    +0.000 A 
ATOM     18  C   UNL     1       9.855  11.705  19.574  0.00  0.00    +0.000 A 
ATOM     19  C   UNL     1       9.238  12.526  18.632  0.00  0.00    +0.000 A 
ATOM     20  C   UNL     1       8.378  11.975  17.684  0.00  0.00    +0.000 A 
ATOM     21  C   UNL     1       8.132  10.602  17.678  0.00  0.00    +0.000 A 
ENDBRANCH  15  16
ENDBRANCH  14  15
ENDBRANCH   4  14
TORSDOF 4
ENDMDL
