MODEL 1
REMARK VINA RESULT:      -7.8      0.000      0.000
REMARK  Name = 
REMARK  7 active torsions:
REMARK  status: ('A' for Active; 'I' for Inactive)
REMARK    1  A    between atoms: C_1  and  O_2
REMARK    2  A    between atoms: O_2  and  C_3
REMARK    3  A    between atoms: C_6  and  N_7
REMARK    4  A    between atoms: C_11  and  S_12
REMARK    5  A    between atoms: S_12  and  C_13
REMARK    6  A    between atoms: C_13  and  C_14
REMARK    7  A    between atoms: N_19  and  C_20
REMARK                            x       y       z     vdW  Elec       q    Type
REMARK                         _______ _______ _______ _____ _____    ______ ____
ROOT
ATOM      1  N   UNL     1       2.015   7.728  18.985  0.00  0.00    +0.000 N 
ATOM      2  C   UNL     1       2.131   8.714  17.997  0.00  0.00    +0.000 A 
ATOM      3  C   UNL     1       1.809   9.995  18.225  0.00  0.00    +0.000 A 
ATOM      4  N   UNL     1       1.387  10.369  19.488  0.00  0.00    +0.000 N 
ATOM      5  C   UNL     1       1.041  11.574  20.051  0.00  0.00    +0.000 A 
ATOM      6  N   UNL     1       0.746  11.407  21.321  0.00  0.00    +0.000 NA
ATOM      7  N   UNL     1       0.866  10.057  21.607  0.00  0.00    +0.000 NA
ATOM      8  C   UNL     1       1.243   9.456  20.497  0.00  0.00    +0.000 A 
ATOM      9  C   UNL     1       1.516   8.036  20.292  0.00  0.00    +0.000 A 
ATOM     10  O   UNL     1       1.370   7.192  21.179  0.00  0.00    +0.000 OA
ENDROOT
BRANCH   1  14
ATOM     11  C   UNL     1       3.550   3.854  18.181  0.00  0.00    +0.000 A 
ATOM     12  C   UNL     1       2.285   4.215  17.710  0.00  0.00    +0.000 A 
ATOM     13  C   UNL     1       1.753   5.482  17.984  0.00  0.00    +0.000 A 
ATOM     14  C   UNL     1       2.498   6.409  18.717  0.00  0.00    +0.000 A 
ATOM     15  C   UNL     1       3.765   6.039  19.191  0.00  0.00    +0.000 A 
ATOM     16  C   UNL     1       4.278   4.763  18.945  0.00  0.00    +0.000 A 
BRANCH  11  18
ATOM     17  C   UNL     1       3.950   1.657  18.956  0.00  0.00    +0.000 C 
ATOM     18  O   UNL     1       3.960   2.585  17.874  0.00  0.00    +0.000 OA
ENDBRANCH  11  18
ENDBRANCH   1  14
BRANCH   5  19
ATOM     19  S   UNL     1       0.948  13.057  19.162  0.00  0.00    +0.000 S 
BRANCH  19  20
ATOM     20  C   UNL     1       2.694  13.320  18.709  0.00  0.00    +0.000 C 
BRANCH  20  21
ATOM     21  C   UNL     1       3.444  14.178  19.728  0.00  0.00    +0.000 C 
ATOM     22  O   UNL     1       3.122  14.202  20.920  0.00  0.00    +0.000 OA
ATOM     23  N   UNL     1       4.538  14.896  19.263  0.00  0.00    +0.000 N 
ATOM     24  C   UNL     1       5.408  15.595  20.223  0.00  0.00    +0.000 C 
ATOM     25  C   UNL     1       6.861  15.121  20.065  0.00  0.00    +0.000 C 
ATOM     26  N   UNL     1       7.312  15.263  18.667  0.00  0.00    +0.000 N 
ATOM     27  C   UNL     1       6.441  14.664  17.642  0.00  0.00    +0.000 C 
ATOM     28  C   UNL     1       4.961  15.064  17.863  0.00  0.00    +0.000 C 
BRANCH  26  29
ATOM     29  C   UNL     1       8.345  16.122  18.325  0.00  0.00    +0.000 A 
ATOM     30  C   UNL     1       8.232  17.503  18.567  0.00  0.00    +0.000 A 
ATOM     31  C   UNL     1       9.234  18.407  18.189  0.00  0.00    +0.000 A 
ATOM     32  C   UNL     1      10.388  17.951  17.561  0.00  0.00    +0.000 A 
ATOM     33  C   UNL     1      10.539  16.591  17.317  0.00  0.00    +0.000 A 
ATOM     34  C   UNL     1       9.533  15.700  17.696  0.00  0.00    +0.000 A 
ATOM     35  F   UNL     1       9.757  14.394  17.473  0.00  0.00    +0.000 F 
ENDBRANCH  26  29
ENDBRANCH  20  21
ENDBRANCH  19  20
ENDBRANCH   5  19
TORSDOF 6
ENDMDL
MODEL 2
REMARK VINA RESULT:      -7.5      1.397      1.834
REMARK  Name = 
REMARK  7 active torsions:
REMARK  status: ('A' for Active; 'I' for Inactive)
REMARK    1  A    between atoms: C_1  and  O_2
REMARK    2  A    between atoms: O_2  and  C_3
REMARK    3  A    between atoms: C_6  and  N_7
REMARK    4  A    between atoms: C_11  and  S_12
REMARK    5  A    between atoms: S_12  and  C_13
REMARK    6  A    between atoms: C_13  and  C_14
REMARK    7  A    between atoms: N_19  and  C_20
REMARK                            x       y       z     vdW  Elec       q    Type
REMARK                         _______ _______ _______ _____ _____    ______ ____
ROOT
ATOM      1  N   UNL     1       2.063   8.086  18.681  0.00  0.00    +0.000 N 
ATOM      2  C   UNL     1       1.829   9.192  17.854  0.00  0.00    +0.000 A 
ATOM      3  C   UNL     1       1.298  10.331  18.319  0.00  0.00    +0.000 A 
ATOM      4  N   UNL     1       1.007  10.439  19.666  0.00  0.00    +0.000 N 
ATOM      5  C   UNL     1       0.519  11.456  20.450  0.00  0.00    +0.000 A 
ATOM      6  N   UNL     1       0.460  11.067  21.705  0.00  0.00    +0.000 NA
ATOM      7  N   UNL     1       0.888   9.751  21.757  0.00  0.00    +0.000 NA
ATOM      8  C   UNL     1       1.203   9.394  20.529  0.00  0.00    +0.000 A 
ATOM      9  C   UNL     1       1.718   8.107  20.071  0.00  0.00    +0.000 A 
ATOM     10  O   UNL     1       1.879   7.145  20.825  0.00  0.00    +0.000 OA
ENDROOT
BRANCH   1  14
ATOM     11  C   UNL     1       4.058   4.653  17.182  0.00  0.00    +0.000 A 
ATOM     12  C   UNL     1       4.700   5.894  17.170  0.00  0.00    +0.000 A 
ATOM     13  C   UNL     1       4.049   7.043  17.641  0.00  0.00    +0.000 A 
ATOM     14  C   UNL     1       2.752   6.950  18.151  0.00  0.00    +0.000 A 
ATOM     15  C   UNL     1       2.110   5.703  18.155  0.00  0.00    +0.000 A 
ATOM     16  C   UNL     1       2.750   4.567  17.654  0.00  0.00    +0.000 A 
BRANCH  11  18
ATOM     17  C   UNL     1       5.732   3.941  15.673  0.00  0.00    +0.000 C 
ATOM     18  O   UNL     1       4.778   3.605  16.677  0.00  0.00    +0.000 OA
ENDBRANCH  11  18
ENDBRANCH   1  14
BRANCH   5  19
ATOM     19  S   UNL     1      -0.001  12.985  19.825  0.00  0.00    +0.000 S 
BRANCH  19  20
ATOM     20  C   UNL     1       1.542  13.622  19.092  0.00  0.00    +0.000 C 
BRANCH  20  21
ATOM     21  C   UNL     1       2.428  14.336  20.113  0.00  0.00    +0.000 C 
ATOM     22  O   UNL     1       2.159  14.338  21.318  0.00  0.00    +0.000 OA
ATOM     23  N   UNL     1       3.578  14.947  19.631  0.00  0.00    +0.000 N 
ATOM     24  C   UNL     1       4.561  15.492  20.580  0.00  0.00    +0.000 C 
ATOM     25  C   UNL     1       5.942  14.863  20.335  0.00  0.00    +0.000 C 
ATOM     26  N   UNL     1       6.350  15.022  18.926  0.00  0.00    +0.000 N 
ATOM     27  C   UNL     1       5.373  14.578  17.916  0.00  0.00    +0.000 C 
ATOM     28  C   UNL     1       3.961  15.135  18.222  0.00  0.00    +0.000 C 
BRANCH  26  29
ATOM     29  C   UNL     1       7.462  15.773  18.575  0.00  0.00    +0.000 A 
ATOM     30  C   UNL     1       8.625  15.141  18.101  0.00  0.00    +0.000 A 
ATOM     31  C   UNL     1       9.784  15.863  17.784  0.00  0.00    +0.000 A 
ATOM     32  C   UNL     1       9.809  17.247  17.927  0.00  0.00    +0.000 A 
ATOM     33  C   UNL     1       8.672  17.904  18.382  0.00  0.00    +0.000 A 
ATOM     34  C   UNL     1       7.524  17.175  18.697  0.00  0.00    +0.000 A 
ATOM     35  F   UNL     1       6.444  17.872  19.090  0.00  0.00    +0.000 F 
ENDBRANCH  26  29
ENDBRANCH  20  21
ENDBRANCH  19  20
ENDBRANCH   5  19
TORSDOF 6
ENDMDL
MODEL 3
REMARK VINA RESULT:      -7.5      1.839      2.471
REMARK  Name = 
REMARK  7 active torsions:
REMARK  status: ('A' for Active; 'I' for Inactive)
REMARK    1  A    between atoms: C_1  and  O_2
REMARK    2  A    between atoms: O_2  and  C_3
REMARK    3  A    between atoms: C_6  and  N_7
REMARK    4  A    between atoms: C_11  and  S_12
REMARK    5  A    between atoms: S_12  and  C_13
REMARK    6  A    between atoms: C_13  and  C_14
REMARK    7  A    between atoms: N_19  and  C_20
REMARK                            x       y       z     vdW  Elec       q    Type
REMARK                         _______ _______ _______ _____ _____    ______ ____
ROOT
ATOM      1  N   UNL     1       1.980   7.828  18.599  0.00  0.00    +0.000 N 
ATOM      2  C   UNL     1       1.507   8.810  17.719  0.00  0.00    +0.000 A 
ATOM      3  C   UNL     1       0.811   9.873  18.142  0.00  0.00    +0.000 A 
ATOM      4  N   UNL     1       0.584  10.034  19.497  0.00  0.00    +0.000 N 
ATOM      5  C   UNL     1      -0.030  11.011  20.243  0.00  0.00    +0.000 A 
ATOM      6  N   UNL     1       0.052  10.716  21.522  0.00  0.00    +0.000 NA
ATOM      7  N   UNL     1       0.708   9.502  21.632  0.00  0.00    +0.000 NA
ATOM      8  C   UNL     1       1.010   9.109  20.411  0.00  0.00    +0.000 A 
ATOM      9  C   UNL     1       1.718   7.898  20.005  0.00  0.00    +0.000 A 
ATOM     10  O   UNL     1       2.089   7.040  20.809  0.00  0.00    +0.000 OA
ENDROOT
BRANCH   1  14
ATOM     11  C   UNL     1       4.532   4.816  17.042  0.00  0.00    +0.000 A 
ATOM     12  C   UNL     1       3.273   4.474  17.542  0.00  0.00    +0.000 A 
ATOM     13  C   UNL     1       2.426   5.452  18.080  0.00  0.00    +0.000 A 
ATOM     14  C   UNL     1       2.827   6.790  18.099  0.00  0.00    +0.000 A 
ATOM     15  C   UNL     1       4.094   7.126  17.601  0.00  0.00    +0.000 A 
ATOM     16  C   UNL     1       4.949   6.144  17.096  0.00  0.00    +0.000 A 
BRANCH  11  18
ATOM     17  C   UNL     1       5.952   4.022  15.327  0.00  0.00    +0.000 C 
ATOM     18  O   UNL     1       5.284   3.779  16.562  0.00  0.00    +0.000 OA
ENDBRANCH  11  18
ENDBRANCH   1  14
BRANCH   5  19
ATOM     19  S   UNL     1      -0.847  12.373  19.555  0.00  0.00    +0.000 S 
BRANCH  19  20
ATOM     20  C   UNL     1       0.052  13.762  20.321  0.00  0.00    +0.000 C 
BRANCH  20  21
ATOM     21  C   UNL     1       0.585  14.758  19.291  0.00  0.00    +0.000 C 
ATOM     22  O   UNL     1      -0.167  15.511  18.665  0.00  0.00    +0.000 OA
ATOM     23  N   UNL     1       1.962  14.813  19.122  0.00  0.00    +0.000 N 
ATOM     24  C   UNL     1       2.548  15.871  18.284  0.00  0.00    +0.000 C 
ATOM     25  C   UNL     1       3.575  16.681  19.091  0.00  0.00    +0.000 C 
ATOM     26  N   UNL     1       4.588  15.794  19.694  0.00  0.00    +0.000 N 
ATOM     27  C   UNL     1       4.071  14.658  20.475  0.00  0.00    +0.000 C 
ATOM     28  C   UNL     1       2.965  13.902  19.697  0.00  0.00    +0.000 C 
BRANCH  26  29
ATOM     29  C   UNL     1       5.926  15.875  19.335  0.00  0.00    +0.000 A 
ATOM     30  C   UNL     1       6.820  16.652  20.093  0.00  0.00    +0.000 A 
ATOM     31  C   UNL     1       8.166  16.797  19.733  0.00  0.00    +0.000 A 
ATOM     32  C   UNL     1       8.660  16.159  18.600  0.00  0.00    +0.000 A 
ATOM     33  C   UNL     1       7.808  15.373  17.834  0.00  0.00    +0.000 A 
ATOM     34  C   UNL     1       6.468  15.237  18.202  0.00  0.00    +0.000 A 
ATOM     35  F   UNL     1       5.704  14.429  17.447  0.00  0.00    +0.000 F 
ENDBRANCH  26  29
ENDBRANCH  20  21
ENDBRANCH  19  20
ENDBRANCH   5  19
TORSDOF 6
ENDMDL
MODEL 4
REMARK VINA RESULT:      -7.5      6.478      9.086
REMARK  Name = 
REMARK  7 active torsions:
REMARK  status: ('A' for Active; 'I' for Inactive)
REMARK    1  A    between atoms: C_1  and  O_2
REMARK    2  A    between atoms: O_2  and  C_3
REMARK    3  A    between atoms: C_6  and  N_7
REMARK    4  A    between atoms: C_11  and  S_12
REMARK    5  A    between atoms: S_12  and  C_13
REMARK    6  A    between atoms: C_13  and  C_14
REMARK    7  A    between atoms: N_19  and  C_20
REMARK                            x       y       z     vdW  Elec       q    Type
REMARK                         _______ _______ _______ _____ _____    ______ ____
ROOT
ATOM      1  N   UNL     1       3.275   7.242  18.052  0.00  0.00    +0.000 N 
ATOM      2  C   UNL     1       2.701   8.384  17.479  0.00  0.00    +0.000 A 
ATOM      3  C   UNL     1       1.775   9.114  18.116  0.00  0.00    +0.000 A 
ATOM      4  N   UNL     1       1.400   8.757  19.398  0.00  0.00    +0.000 N 
ATOM      5  C   UNL     1       0.542   9.306  20.320  0.00  0.00    +0.000 A 
ATOM      6  N   UNL     1       0.565   8.600  21.430  0.00  0.00    +0.000 NA
ATOM      7  N   UNL     1       1.433   7.539  21.236  0.00  0.00    +0.000 NA
ATOM      8  C   UNL     1       1.914   7.648  20.014  0.00  0.00    +0.000 A 
ATOM      9  C   UNL     1       2.878   6.777  19.347  0.00  0.00    +0.000 A 
ATOM     10  O   UNL     1       3.336   5.760  19.873  0.00  0.00    +0.000 OA
ENDROOT
BRANCH   1  14
ATOM     11  C   UNL     1       6.419   5.197  16.066  0.00  0.00    +0.000 A 
ATOM     12  C   UNL     1       6.681   6.393  16.740  0.00  0.00    +0.000 A 
ATOM     13  C   UNL     1       5.651   7.093  17.383  0.00  0.00    +0.000 A 
ATOM     14  C   UNL     1       4.350   6.585  17.374  0.00  0.00    +0.000 A 
ATOM     15  C   UNL     1       4.092   5.388  16.691  0.00  0.00    +0.000 A 
ATOM     16  C   UNL     1       5.115   4.710  16.023  0.00  0.00    +0.000 A 
BRANCH  11  18
ATOM     17  C   UNL     1       7.409   4.499  14.037  0.00  0.00    +0.000 C 
ATOM     18  O   UNL     1       7.493   4.611  15.455  0.00  0.00    +0.000 OA
ENDBRANCH  11  18
ENDBRANCH   1  14
BRANCH   5  19
ATOM     19  S   UNL     1      -0.460  10.681  20.000  0.00  0.00    +0.000 S 
BRANCH  19  20
ATOM     20  C   UNL     1      -0.133  11.718  21.463  0.00  0.00    +0.000 C 
BRANCH  20  21
ATOM     21  C   UNL     1      -1.159  11.506  22.576  0.00  0.00    +0.000 C 
ATOM     22  O   UNL     1      -0.950  10.730  23.514  0.00  0.00    +0.000 OA
ATOM     23  N   UNL     1      -2.322  12.261  22.513  0.00  0.00    +0.000 N 
ATOM     24  C   UNL     1      -3.264  12.238  23.644  0.00  0.00    +0.000 C 
ATOM     25  C   UNL     1      -3.504  13.664  24.165  0.00  0.00    +0.000 C 
ATOM     26  N   UNL     1      -3.933  14.558  23.073  0.00  0.00    +0.000 N 
ATOM     27  C   UNL     1      -3.084  14.565  21.870  0.00  0.00    +0.000 C 
ATOM     28  C   UNL     1      -2.764  13.123  21.404  0.00  0.00    +0.000 C 
BRANCH  26  29
ATOM     29  C   UNL     1      -5.187  15.152  23.077  0.00  0.00    +0.000 A 
ATOM     30  C   UNL     1      -5.348  16.469  23.543  0.00  0.00    +0.000 A 
ATOM     31  C   UNL     1      -6.606  17.084  23.607  0.00  0.00    +0.000 A 
ATOM     32  C   UNL     1      -7.743  16.397  23.198  0.00  0.00    +0.000 A 
ATOM     33  C   UNL     1      -7.619  15.098  22.720  0.00  0.00    +0.000 A 
ATOM     34  C   UNL     1      -6.361  14.494  22.662  0.00  0.00    +0.000 A 
ATOM     35  F   UNL     1      -6.301  13.253  22.150  0.00  0.00    +0.000 F 
ENDBRANCH  26  29
ENDBRANCH  20  21
ENDBRANCH  19  20
ENDBRANCH   5  19
TORSDOF 6
ENDMDL
MODEL 5
REMARK VINA RESULT:      -7.5      0.947      1.245
REMARK  Name = 
REMARK  7 active torsions:
REMARK  status: ('A' for Active; 'I' for Inactive)
REMARK    1  A    between atoms: C_1  and  O_2
REMARK    2  A    between atoms: O_2  and  C_3
REMARK    3  A    between atoms: C_6  and  N_7
REMARK    4  A    between atoms: C_11  and  S_12
REMARK    5  A    between atoms: S_12  and  C_13
REMARK    6  A    between atoms: C_13  and  C_14
REMARK    7  A    between atoms: N_19  and  C_20
REMARK                            x       y       z     vdW  Elec       q    Type
REMARK                         _______ _______ _______ _____ _____    ______ ____
ROOT
ATOM      1  N   UNL     1       1.975   8.064  19.043  0.00  0.00    +0.000 N 
ATOM      2  C   UNL     1       2.011   9.010  18.010  0.00  0.00    +0.000 A 
ATOM      3  C   UNL     1       1.672  10.292  18.205  0.00  0.00    +0.000 A 
ATOM      4  N   UNL     1       1.313  10.709  19.473  0.00  0.00    +0.000 N 
ATOM      5  C   UNL     1       0.971  11.928  20.006  0.00  0.00    +0.000 A 
ATOM      6  N   UNL     1       0.751  11.808  21.297  0.00  0.00    +0.000 NA
ATOM      7  N   UNL     1       0.921  10.474  21.630  0.00  0.00    +0.000 NA
ATOM      8  C   UNL     1       1.248   9.836  20.525  0.00  0.00    +0.000 A 
ATOM      9  C   UNL     1       1.544   8.415  20.362  0.00  0.00    +0.000 A 
ATOM     10  O   UNL     1       1.468   7.606  21.290  0.00  0.00    +0.000 OA
ENDROOT
BRANCH   1  14
ATOM     11  C   UNL     1       3.494   4.186  18.227  0.00  0.00    +0.000 A 
ATOM     12  C   UNL     1       2.310   4.333  18.955  0.00  0.00    +0.000 A 
ATOM     13  C   UNL     1       1.805   5.606  19.252  0.00  0.00    +0.000 A 
ATOM     14  C   UNL     1       2.474   6.745  18.800  0.00  0.00    +0.000 A 
ATOM     15  C   UNL     1       3.665   6.592  18.075  0.00  0.00    +0.000 A 
ATOM     16  C   UNL     1       4.183   5.322  17.809  0.00  0.00    +0.000 A 
BRANCH  11  18
ATOM     17  C   UNL     1       3.977   2.076  19.176  0.00  0.00    +0.000 C 
ATOM     18  O   UNL     1       3.906   2.899  18.014  0.00  0.00    +0.000 OA
ENDBRANCH  11  18
ENDBRANCH   1  14
BRANCH   5  19
ATOM     19  S   UNL     1       0.791  13.371  19.066  0.00  0.00    +0.000 S 
BRANCH  19  20
ATOM     20  C   UNL     1       2.507  13.669  18.526  0.00  0.00    +0.000 C 
BRANCH  20  21
ATOM     21  C   UNL     1       3.313  14.474  19.546  0.00  0.00    +0.000 C 
ATOM     22  O   UNL     1       2.910  14.651  20.700  0.00  0.00    +0.000 OA
ATOM     23  N   UNL     1       4.546  14.960  19.132  0.00  0.00    +0.000 N 
ATOM     24  C   UNL     1       5.447  15.583  20.115  0.00  0.00    +0.000 C 
ATOM     25  C   UNL     1       6.805  14.864  20.122  0.00  0.00    +0.000 C 
ATOM     26  N   UNL     1       7.380  14.811  18.765  0.00  0.00    +0.000 N 
ATOM     27  C   UNL     1       6.499  14.280  17.710  0.00  0.00    +0.000 C 
ATOM     28  C   UNL     1       5.098  14.937  17.768  0.00  0.00    +0.000 C 
BRANCH  26  29
ATOM     29  C   UNL     1       8.568  15.455  18.457  0.00  0.00    +0.000 A 
ATOM     30  C   UNL     1       9.776  14.736  18.412  0.00  0.00    +0.000 A 
ATOM     31  C   UNL     1      11.003  15.362  18.154  0.00  0.00    +0.000 A 
ATOM     32  C   UNL     1      11.055  16.733  17.925  0.00  0.00    +0.000 A 
ATOM     33  C   UNL     1       9.879  17.473  17.949  0.00  0.00    +0.000 A 
ATOM     34  C   UNL     1       8.662  16.839  18.210  0.00  0.00    +0.000 A 
ATOM     35  F   UNL     1       7.556  17.600  18.177  0.00  0.00    +0.000 F 
ENDBRANCH  26  29
ENDBRANCH  20  21
ENDBRANCH  19  20
ENDBRANCH   5  19
TORSDOF 6
ENDMDL
MODEL 6
REMARK VINA RESULT:      -7.4      2.243      2.941
REMARK  Name = 
REMARK  7 active torsions:
REMARK  status: ('A' for Active; 'I' for Inactive)
REMARK    1  A    between atoms: C_1  and  O_2
REMARK    2  A    between atoms: O_2  and  C_3
REMARK    3  A    between atoms: C_6  and  N_7
REMARK    4  A    between atoms: C_11  and  S_12
REMARK    5  A    between atoms: S_12  and  C_13
REMARK    6  A    between atoms: C_13  and  C_14
REMARK    7  A    between atoms: N_19  and  C_20
REMARK                            x       y       z     vdW  Elec       q    Type
REMARK                         _______ _______ _______ _____ _____    ______ ____
ROOT
ATOM      1  N   UNL     1       2.528   7.391  18.479  0.00  0.00    +0.000 N 
ATOM      2  C   UNL     1       2.134   8.568  17.832  0.00  0.00    +0.000 A 
ATOM      3  C   UNL     1       1.444   9.531  18.458  0.00  0.00    +0.000 A 
ATOM      4  N   UNL     1       1.144   9.381  19.800  0.00  0.00    +0.000 N 
ATOM      5  C   UNL     1       0.515  10.180  20.723  0.00  0.00    +0.000 A 
ATOM      6  N   UNL     1       0.515   9.592  21.899  0.00  0.00    +0.000 NA
ATOM      7  N   UNL     1       1.130   8.361  21.753  0.00  0.00    +0.000 NA
ATOM      8  C   UNL     1       1.491   8.252  20.491  0.00  0.00    +0.000 A 
ATOM      9  C   UNL     1       2.187   7.141  19.848  0.00  0.00    +0.000 A 
ATOM     10  O   UNL     1       2.487   6.105  20.445  0.00  0.00    +0.000 OA
ENDROOT
BRANCH   1  14
ATOM     11  C   UNL     1       5.056   4.717  16.364  0.00  0.00    +0.000 A 
ATOM     12  C   UNL     1       3.942   4.228  17.052  0.00  0.00    +0.000 A 
ATOM     13  C   UNL     1       3.108   5.093  17.773  0.00  0.00    +0.000 A 
ATOM     14  C   UNL     1       3.374   6.464  17.792  0.00  0.00    +0.000 A 
ATOM     15  C   UNL     1       4.496   6.948  17.105  0.00  0.00    +0.000 A 
ATOM     16  C   UNL     1       5.344   6.079  16.415  0.00  0.00    +0.000 A 
BRANCH  11  18
ATOM     17  C   UNL     1       6.613   4.273  14.643  0.00  0.00    +0.000 C 
ATOM     18  O   UNL     1       5.812   3.781  15.713  0.00  0.00    +0.000 OA
ENDBRANCH  11  18
ENDBRANCH   1  14
BRANCH   5  19
ATOM     19  S   UNL     1      -0.224  11.698  20.335  0.00  0.00    +0.000 S 
BRANCH  19  20
ATOM     20  C   UNL     1       1.149  12.858  20.640  0.00  0.00    +0.000 C 
BRANCH  20  21
ATOM     21  C   UNL     1       1.829  13.318  19.350  0.00  0.00    +0.000 C 
ATOM     22  O   UNL     1       1.329  13.105  18.240  0.00  0.00    +0.000 OA
ATOM     23  N   UNL     1       3.012  14.031  19.481  0.00  0.00    +0.000 N 
ATOM     24  C   UNL     1       3.618  14.656  18.294  0.00  0.00    +0.000 C 
ATOM     25  C   UNL     1       3.801  16.165  18.522  0.00  0.00    +0.000 C 
ATOM     26  N   UNL     1       4.561  16.421  19.761  0.00  0.00    +0.000 N 
ATOM     27  C   UNL     1       4.062  15.753  20.976  0.00  0.00    +0.000 C 
ATOM     28  C   UNL     1       3.785  14.251  20.714  0.00  0.00    +0.000 C 
BRANCH  26  29
ATOM     29  C   UNL     1       5.803  17.036  19.733  0.00  0.00    +0.000 A 
ATOM     30  C   UNL     1       6.779  16.626  18.807  0.00  0.00    +0.000 A 
ATOM     31  C   UNL     1       8.062  17.190  18.782  0.00  0.00    +0.000 A 
ATOM     32  C   UNL     1       8.404  18.192  19.684  0.00  0.00    +0.000 A 
ATOM     33  C   UNL     1       7.460  18.630  20.606  0.00  0.00    +0.000 A 
ATOM     34  C   UNL     1       6.186  18.059  20.623  0.00  0.00    +0.000 A 
ATOM     35  F   UNL     1       5.305  18.555  21.508  0.00  0.00    +0.000 F 
ENDBRANCH  26  29
ENDBRANCH  20  21
ENDBRANCH  19  20
ENDBRANCH   5  19
TORSDOF 6
ENDMDL
MODEL 7
REMARK VINA RESULT:      -7.2      1.926      2.413
REMARK  Name = 
REMARK  7 active torsions:
REMARK  status: ('A' for Active; 'I' for Inactive)
REMARK    1  A    between atoms: C_1  and  O_2
REMARK    2  A    between atoms: O_2  and  C_3
REMARK    3  A    between atoms: C_6  and  N_7
REMARK    4  A    between atoms: C_11  and  S_12
REMARK    5  A    between atoms: S_12  and  C_13
REMARK    6  A    between atoms: C_13  and  C_14
REMARK    7  A    between atoms: N_19  and  C_20
REMARK                            x       y       z     vdW  Elec       q    Type
REMARK                         _______ _______ _______ _____ _____    ______ ____
ROOT
ATOM      1  N   UNL     1       1.496   8.708  19.540  0.00  0.00    +0.000 N 
ATOM      2  C   UNL     1       1.198   9.567  18.474  0.00  0.00    +0.000 A 
ATOM      3  C   UNL     1       0.664  10.781  18.664  0.00  0.00    +0.000 A 
ATOM      4  N   UNL     1       0.435  11.222  19.955  0.00  0.00    +0.000 N 
ATOM      5  C   UNL     1      -0.038  12.400  20.482  0.00  0.00    +0.000 A 
ATOM      6  N   UNL     1      -0.029  12.339  21.795  0.00  0.00    +0.000 NA
ATOM      7  N   UNL     1       0.431  11.083  22.155  0.00  0.00    +0.000 NA
ATOM      8  C   UNL     1       0.695  10.431  21.041  0.00  0.00    +0.000 A 
ATOM      9  C   UNL     1       1.218   9.075  20.896  0.00  0.00    +0.000 A 
ATOM     10  O   UNL     1       1.436   8.336  21.858  0.00  0.00    +0.000 OA
ENDROOT
BRANCH   1  14
ATOM     11  C   UNL     1       3.546   5.053  18.868  0.00  0.00    +0.000 A 
ATOM     12  C   UNL     1       3.741   6.132  18.002  0.00  0.00    +0.000 A 
ATOM     13  C   UNL     1       3.057   7.339  18.195  0.00  0.00    +0.000 A 
ATOM     14  C   UNL     1       2.185   7.482  19.277  0.00  0.00    +0.000 A 
ATOM     15  C   UNL     1       1.989   6.394  20.140  0.00  0.00    +0.000 A 
ATOM     16  C   UNL     1       2.648   5.181  19.925  0.00  0.00    +0.000 A 
BRANCH  11  18
ATOM     17  C   UNL     1       4.214   3.512  17.206  0.00  0.00    +0.000 C 
ATOM     18  O   UNL     1       4.248   3.917  18.571  0.00  0.00    +0.000 OA
ENDBRANCH  11  18
ENDBRANCH   1  14
BRANCH   5  19
ATOM     19  S   UNL     1      -0.622  13.715  19.520  0.00  0.00    +0.000 S 
BRANCH  19  20
ATOM     20  C   UNL     1       0.367  15.104  20.165  0.00  0.00    +0.000 C 
BRANCH  20  21
ATOM     21  C   UNL     1       1.211  15.779  19.082  0.00  0.00    +0.000 C 
ATOM     22  O   UNL     1       0.740  16.644  18.336  0.00  0.00    +0.000 OA
ATOM     23  N   UNL     1       2.547  15.410  19.003  0.00  0.00    +0.000 N 
ATOM     24  C   UNL     1       3.452  16.149  18.109  0.00  0.00    +0.000 C 
ATOM     25  C   UNL     1       4.643  16.709  18.902  0.00  0.00    +0.000 C 
ATOM     26  N   UNL     1       5.323  15.639  19.656  0.00  0.00    +0.000 N 
ATOM     27  C   UNL     1       4.462  14.798  20.506  0.00  0.00    +0.000 C 
ATOM     28  C   UNL     1       3.211  14.316  19.731  0.00  0.00    +0.000 C 
BRANCH  26  29
ATOM     29  C   UNL     1       6.636  15.284  19.383  0.00  0.00    +0.000 A 
ATOM     30  C   UNL     1       7.683  15.755  20.195  0.00  0.00    +0.000 A 
ATOM     31  C   UNL     1       9.025  15.458  19.922  0.00  0.00    +0.000 A 
ATOM     32  C   UNL     1       9.358  14.672  18.824  0.00  0.00    +0.000 A 
ATOM     33  C   UNL     1       8.348  14.179  18.007  0.00  0.00    +0.000 A 
ATOM     34  C   UNL     1       7.014  14.483  18.288  0.00  0.00    +0.000 A 
ATOM     35  F   UNL     1       6.081  13.942  17.487  0.00  0.00    +0.000 F 
ENDBRANCH  26  29
ENDBRANCH  20  21
ENDBRANCH  19  20
ENDBRANCH   5  19
TORSDOF 6
ENDMDL
MODEL 8
REMARK VINA RESULT:      -7.2      5.555      7.711
REMARK  Name = 
REMARK  7 active torsions:
REMARK  status: ('A' for Active; 'I' for Inactive)
REMARK    1  A    between atoms: C_1  and  O_2
REMARK    2  A    between atoms: O_2  and  C_3
REMARK    3  A    between atoms: C_6  and  N_7
REMARK    4  A    between atoms: C_11  and  S_12
REMARK    5  A    between atoms: S_12  and  C_13
REMARK    6  A    between atoms: C_13  and  C_14
REMARK    7  A    between atoms: N_19  and  C_20
REMARK                            x       y       z     vdW  Elec       q    Type
REMARK                         _______ _______ _______ _____ _____    ______ ____
ROOT
ATOM      1  N   UNL     1       2.620   7.306  18.377  0.00  0.00    +0.000 N 
ATOM      2  C   UNL     1       2.195   8.460  17.707  0.00  0.00    +0.000 A 
ATOM      3  C   UNL     1       1.473   9.412  18.312  0.00  0.00    +0.000 A 
ATOM      4  N   UNL     1       1.169   9.277  19.654  0.00  0.00    +0.000 N 
ATOM      5  C   UNL     1       0.511  10.073  20.560  0.00  0.00    +0.000 A 
ATOM      6  N   UNL     1       0.521   9.506  21.746  0.00  0.00    +0.000 NA
ATOM      7  N   UNL     1       1.173   8.290  21.626  0.00  0.00    +0.000 NA
ATOM      8  C   UNL     1       1.545   8.170  20.368  0.00  0.00    +0.000 A 
ATOM      9  C   UNL     1       2.278   7.070  19.748  0.00  0.00    +0.000 A 
ATOM     10  O   UNL     1       2.605   6.054  20.365  0.00  0.00    +0.000 OA
ENDROOT
BRANCH   1  14
ATOM     11  C   UNL     1       5.247   4.676  16.329  0.00  0.00    +0.000 A 
ATOM     12  C   UNL     1       4.087   4.177  16.929  0.00  0.00    +0.000 A 
ATOM     13  C   UNL     1       3.219   5.027  17.628  0.00  0.00    +0.000 A 
ATOM     14  C   UNL     1       3.497   6.393  17.711  0.00  0.00    +0.000 A 
ATOM     15  C   UNL     1       4.665   6.887  17.112  0.00  0.00    +0.000 A 
ATOM     16  C   UNL     1       5.545   6.031  16.445  0.00  0.00    +0.000 A 
BRANCH  11  18
ATOM     17  C   UNL     1       6.455   4.106  14.379  0.00  0.00    +0.000 C 
ATOM     18  O   UNL     1       6.032   3.753  15.693  0.00  0.00    +0.000 OA
ENDBRANCH  11  18
ENDBRANCH   1  14
BRANCH   5  19
ATOM     19  S   UNL     1      -0.270  11.560  20.141  0.00  0.00    +0.000 S 
BRANCH  19  20
ATOM     20  C   UNL     1       1.115  12.741  20.252  0.00  0.00    +0.000 C 
BRANCH  20  21
ATOM     21  C   UNL     1       0.678  14.186  20.006  0.00  0.00    +0.000 C 
ATOM     22  O   UNL     1       0.940  14.774  18.951  0.00  0.00    +0.000 OA
ATOM     23  N   UNL     1      -0.071  14.796  21.003  0.00  0.00    +0.000 N 
ATOM     24  C   UNL     1      -0.675  16.115  20.752  0.00  0.00    +0.000 C 
ATOM     25  C   UNL     1      -2.194  16.055  20.974  0.00  0.00    +0.000 C 
ATOM     26  N   UNL     1      -2.510  15.520  22.312  0.00  0.00    +0.000 N 
ATOM     27  C   UNL     1      -1.867  14.243  22.667  0.00  0.00    +0.000 C 
ATOM     28  C   UNL     1      -0.351  14.273  22.350  0.00  0.00    +0.000 C 
BRANCH  26  29
ATOM     29  C   UNL     1      -3.157  16.292  23.265  0.00  0.00    +0.000 A 
ATOM     30  C   UNL     1      -2.518  17.411  23.828  0.00  0.00    +0.000 A 
ATOM     31  C   UNL     1      -3.122  18.185  24.828  0.00  0.00    +0.000 A 
ATOM     32  C   UNL     1      -4.393  17.863  25.292  0.00  0.00    +0.000 A 
ATOM     33  C   UNL     1      -5.059  16.770  24.749  0.00  0.00    +0.000 A 
ATOM     34  C   UNL     1      -4.447  16.005  23.754  0.00  0.00    +0.000 A 
ATOM     35  F   UNL     1      -5.159  14.989  23.239  0.00  0.00    +0.000 F 
ENDBRANCH  26  29
ENDBRANCH  20  21
ENDBRANCH  19  20
ENDBRANCH   5  19
TORSDOF 6
ENDMDL
MODEL 9
REMARK VINA RESULT:      -7.2      1.345      1.822
REMARK  Name = 
REMARK  7 active torsions:
REMARK  status: ('A' for Active; 'I' for Inactive)
REMARK    1  A    between atoms: C_1  and  O_2
REMARK    2  A    between atoms: O_2  and  C_3
REMARK    3  A    between atoms: C_6  and  N_7
REMARK    4  A    between atoms: C_11  and  S_12
REMARK    5  A    between atoms: S_12  and  C_13
REMARK    6  A    between atoms: C_13  and  C_14
REMARK    7  A    between atoms: N_19  and  C_20
REMARK                            x       y       z     vdW  Elec       q    Type
REMARK                         _______ _______ _______ _____ _____    ______ ____
ROOT
ATOM      1  N   UNL     1       2.061   7.777  18.944  0.00  0.00    +0.000 N 
ATOM      2  C   UNL     1       2.147   8.671  17.869  0.00  0.00    +0.000 A 
ATOM      3  C   UNL     1       1.725   9.939  17.961  0.00  0.00    +0.000 A 
ATOM      4  N   UNL     1       1.225  10.398  19.166  0.00  0.00    +0.000 N 
ATOM      5  C   UNL     1       0.770  11.621  19.597  0.00  0.00    +0.000 A 
ATOM      6  N   UNL     1       0.435  11.552  20.867  0.00  0.00    +0.000 NA
ATOM      7  N   UNL     1       0.640  10.249  21.286  0.00  0.00    +0.000 NA
ATOM      8  C   UNL     1       1.104   9.576  20.254  0.00  0.00    +0.000 A 
ATOM      9  C   UNL     1       1.488   8.167  20.197  0.00  0.00    +0.000 A 
ATOM     10  O   UNL     1       1.365   7.402  21.156  0.00  0.00    +0.000 OA
ENDROOT
BRANCH   1  14
ATOM     11  C   UNL     1       3.706   3.881  18.589  0.00  0.00    +0.000 A 
ATOM     12  C   UNL     1       4.428   4.886  19.236  0.00  0.00    +0.000 A 
ATOM     13  C   UNL     1       3.910   6.184  19.344  0.00  0.00    +0.000 A 
ATOM     14  C   UNL     1       2.649   6.478  18.821  0.00  0.00    +0.000 A 
ATOM     15  C   UNL     1       1.931   5.466  18.168  0.00  0.00    +0.000 A 
ATOM     16  C   UNL     1       2.465   4.182  18.033  0.00  0.00    +0.000 A 
BRANCH  11  18
ATOM     17  C   UNL     1       3.453   1.551  18.279  0.00  0.00    +0.000 C 
ATOM     18  O   UNL     1       4.316   2.658  18.522  0.00  0.00    +0.000 OA
ENDBRANCH  11  18
ENDBRANCH   1  14
BRANCH   5  19
ATOM     19  S   UNL     1       0.608  13.003  18.567  0.00  0.00    +0.000 S 
BRANCH  19  20
ATOM     20  C   UNL     1       1.107  14.352  19.686  0.00  0.00    +0.000 C 
BRANCH  20  21
ATOM     21  C   UNL     1       1.755  15.522  18.945  0.00  0.00    +0.000 C 
ATOM     22  O   UNL     1       1.087  16.465  18.509  0.00  0.00    +0.000 OA
ATOM     23  N   UNL     1       3.138  15.503  18.825  0.00  0.00    +0.000 N 
ATOM     24  C   UNL     1       3.835  16.682  18.286  0.00  0.00    +0.000 C 
ATOM     25  C   UNL     1       4.886  17.183  19.290  0.00  0.00    +0.000 C 
ATOM     26  N   UNL     1       5.804  16.096  19.677  0.00  0.00    +0.000 N 
ATOM     27  C   UNL     1       5.172  14.849  20.143  0.00  0.00    +0.000 C 
ATOM     28  C   UNL     1       4.046  14.400  19.179  0.00  0.00    +0.000 C 
BRANCH  26  29
ATOM     29  C   UNL     1       7.157  16.152  19.378  0.00  0.00    +0.000 A 
ATOM     30  C   UNL     1       8.060  16.748  20.276  0.00  0.00    +0.000 A 
ATOM     31  C   UNL     1       9.426  16.867  19.986  0.00  0.00    +0.000 A 
ATOM     32  C   UNL     1       9.931  16.382  18.784  0.00  0.00    +0.000 A 
ATOM     33  C   UNL     1       9.069  15.776  17.878  0.00  0.00    +0.000 A 
ATOM     34  C   UNL     1       7.710  15.665  18.177  0.00  0.00    +0.000 A 
ATOM     35  F   UNL     1       6.936  15.030  17.281  0.00  0.00    +0.000 F 
ENDBRANCH  26  29
ENDBRANCH  20  21
ENDBRANCH  19  20
ENDBRANCH   5  19
TORSDOF 6
ENDMDL
