MODEL 1
REMARK VINA RESULT:      -7.4      0.000      0.000
REMARK  Name = 
REMARK  7 active torsions:
REMARK  status: ('A' for Active; 'I' for Inactive)
REMARK    1  A    between atoms: C_1  and  C_2
REMARK    2  A    between atoms: C_4  and  C_5
REMARK    3  A    between atoms: C_5  and  N_6
REMARK    4  A    between atoms: C_12  and  C_13
REMARK    5  A    between atoms: C_15  and  C_16
REMARK    6  A    between atoms: C_16  and  C_17
REMARK    7  A    between atoms: N_28  and  C_29
REMARK                            x       y       z     vdW  Elec       q    Type
REMARK                         _______ _______ _______ _____ _____    ______ ____
ROOT
ATOM      1  N   UNL     1       1.243   9.667  19.487  0.00  0.00    +0.000 N 
ATOM      2  C   UNL     1       1.346   8.635  20.385  0.00  0.00    +0.000 C 
ATOM      3  O   UNL     1       1.098   8.777  21.578  0.00  0.00    +0.000 OA
ATOM      4  N   UNL     1       1.775   7.432  19.836  0.00  0.00    +0.000 N 
ATOM      5  C   UNL     1       2.229   7.292  18.456  0.00  0.00    +0.000 C 
ATOM      6  C   UNL     1       1.710   6.002  17.839  0.00  0.00    +0.000 C 
ATOM      7  C   UNL     1       2.071   4.779  18.692  0.00  0.00    +0.000 C 
ATOM      8  C   UNL     1       1.593   4.994  20.139  0.00  0.00    +0.000 C 
ATOM      9  C   UNL     1       2.106   6.311  20.724  0.00  0.00    +0.000 C 
ATOM     10  H   UNL     1       0.956   9.450  18.552  0.00  0.00    +0.000 HD
ENDROOT
BRANCH   7  11
ATOM     11  C   UNL     1       3.529   4.462  18.640  0.00  0.00    +0.000 A 
ATOM     12  N   UNL     1       4.410   4.764  17.716  0.00  0.00    +0.000 NA
ATOM     13  C   UNL     1       5.553   4.170  18.199  0.00  0.00    +0.000 A 
ATOM     14  N   UNL     1       5.408   3.563  19.384  0.00  0.00    +0.000 NA
ATOM     15  O   UNL     1       4.060   3.755  19.678  0.00  0.00    +0.000 OA
BRANCH  13  16
ATOM     16  C   UNL     1       6.864   4.318  17.521  0.00  0.00    +0.000 C 
BRANCH  16  17
ATOM     17  C   UNL     1       7.360   5.716  17.800  0.00  0.00    +0.000 A 
ATOM     18  C   UNL     1       7.129   6.753  16.880  0.00  0.00    +0.000 A 
ATOM     19  C   UNL     1       7.585   8.047  17.137  0.00  0.00    +0.000 A 
ATOM     20  C   UNL     1       8.268   8.326  18.319  0.00  0.00    +0.000 A 
ATOM     21  C   UNL     1       8.491   7.312  19.248  0.00  0.00    +0.000 A 
ATOM     22  C   UNL     1       8.046   6.013  18.988  0.00  0.00    +0.000 A 
ENDBRANCH  16  17
ENDBRANCH  13  16
ENDBRANCH   7  11
BRANCH   1  23
ATOM     23  C   UNL     1       0.808  10.982  19.891  0.00  0.00    +0.000 C 
BRANCH  23  27
ATOM     24  C   UNL     1      -3.593  11.098  17.307  0.00  0.00    +0.000 C 
ATOM     25  C   UNL     1      -2.505  11.243  18.303  0.00  0.00    +0.000 A 
ATOM     26  C   UNL     1      -1.214  10.766  18.286  0.00  0.00    +0.000 A 
ATOM     27  C   UNL     1      -0.621  11.212  19.492  0.00  0.00    +0.000 A 
ATOM     28  N   UNL     1      -1.488  11.921  20.229  0.00  0.00    +0.000 NA
ATOM     29  N   UNL     1      -2.627  11.925  19.486  0.00  0.00    +0.000 N 
ATOM     30  C   UNL     1      -3.808  12.611  19.959  0.00  0.00    +0.000 C 
ENDBRANCH  23  27
ENDBRANCH   1  23
TORSDOF 5
ENDMDL
MODEL 2
REMARK VINA RESULT:      -7.3      3.435      8.627
REMARK  Name = 
REMARK  7 active torsions:
REMARK  status: ('A' for Active; 'I' for Inactive)
REMARK    1  A    between atoms: C_1  and  C_2
REMARK    2  A    between atoms: C_4  and  C_5
REMARK    3  A    between atoms: C_5  and  N_6
REMARK    4  A    between atoms: C_12  and  C_13
REMARK    5  A    between atoms: C_15  and  C_16
REMARK    6  A    between atoms: C_16  and  C_17
REMARK    7  A    between atoms: N_28  and  C_29
REMARK                            x       y       z     vdW  Elec       q    Type
REMARK                         _______ _______ _______ _____ _____    ______ ____
ROOT
ATOM      1  N   UNL     1       2.201   7.829  19.361  0.00  0.00    +0.000 N 
ATOM      2  C   UNL     1       1.716   8.808  18.530  0.00  0.00    +0.000 C 
ATOM      3  O   UNL     1       1.909   8.794  17.319  0.00  0.00    +0.000 OA
ATOM      4  N   UNL     1       1.014   9.818  19.177  0.00  0.00    +0.000 N 
ATOM      5  C   UNL     1       0.918   9.931  20.629  0.00  0.00    +0.000 C 
ATOM      6  C   UNL     1      -0.487  10.334  21.053  0.00  0.00    +0.000 C 
ATOM      7  C   UNL     1      -0.950  11.613  20.342  0.00  0.00    +0.000 C 
ATOM      8  C   UNL     1      -0.801  11.446  18.820  0.00  0.00    +0.000 C 
ATOM      9  C   UNL     1       0.612  11.012  18.424  0.00  0.00    +0.000 C 
ATOM     10  H   UNL     1       1.656   7.581  20.164  0.00  0.00    +0.000 HD
ENDROOT
BRANCH   7  11
ATOM     11  C   UNL     1      -0.229  12.826  20.831  0.00  0.00    +0.000 A 
ATOM     12  N   UNL     1       0.225  13.851  20.149  0.00  0.00    +0.000 NA
ATOM     13  C   UNL     1       0.827  14.607  21.128  0.00  0.00    +0.000 A 
ATOM     14  N   UNL     1       0.720  14.106  22.366  0.00  0.00    +0.000 NA
ATOM     15  O   UNL     1       0.019  12.917  22.169  0.00  0.00    +0.000 OA
BRANCH  13  16
ATOM     16  C   UNL     1       1.418  15.938  20.844  0.00  0.00    +0.000 C 
BRANCH  16  17
ATOM     17  C   UNL     1       2.500  15.737  19.810  0.00  0.00    +0.000 A 
ATOM     18  C   UNL     1       3.719  15.132  20.160  0.00  0.00    +0.000 A 
ATOM     19  C   UNL     1       4.720  14.945  19.205  0.00  0.00    +0.000 A 
ATOM     20  C   UNL     1       4.515  15.349  17.887  0.00  0.00    +0.000 A 
ATOM     21  C   UNL     1       3.306  15.937  17.523  0.00  0.00    +0.000 A 
ATOM     22  C   UNL     1       2.306  16.136  18.478  0.00  0.00    +0.000 A 
ENDBRANCH  16  17
ENDBRANCH  13  16
ENDBRANCH   7  11
BRANCH   1  23
ATOM     23  C   UNL     1       2.949   6.706  18.851  0.00  0.00    +0.000 C 
BRANCH  23  27
ATOM     24  C   UNL     1       1.405   2.757  21.694  0.00  0.00    +0.000 C 
ATOM     25  C   UNL     1       1.708   3.713  20.603  0.00  0.00    +0.000 A 
ATOM     26  C   UNL     1       2.296   4.957  20.647  0.00  0.00    +0.000 A 
ATOM     27  C   UNL     1       2.338   5.412  19.307  0.00  0.00    +0.000 A 
ATOM     28  N   UNL     1       1.803   4.513  18.469  0.00  0.00    +0.000 NA
ATOM     29  N   UNL     1       1.425   3.489  19.280  0.00  0.00    +0.000 N 
ATOM     30  C   UNL     1       0.800   2.308  18.727  0.00  0.00    +0.000 C 
ENDBRANCH  23  27
ENDBRANCH   1  23
TORSDOF 5
ENDMDL
MODEL 3
REMARK VINA RESULT:      -7.3      1.977      2.747
REMARK  Name = 
REMARK  7 active torsions:
REMARK  status: ('A' for Active; 'I' for Inactive)
REMARK    1  A    between atoms: C_1  and  C_2
REMARK    2  A    between atoms: C_4  and  C_5
REMARK    3  A    between atoms: C_5  and  N_6
REMARK    4  A    between atoms: C_12  and  C_13
REMARK    5  A    between atoms: C_15  and  C_16
REMARK    6  A    between atoms: C_16  and  C_17
REMARK    7  A    between atoms: N_28  and  C_29
REMARK                            x       y       z     vdW  Elec       q    Type
REMARK                         _______ _______ _______ _____ _____    ______ ____
ROOT
ATOM      1  N   UNL     1       1.118   9.372  19.564  0.00  0.00    +0.000 N 
ATOM      2  C   UNL     1       1.571   8.332  20.337  0.00  0.00    +0.000 C 
ATOM      3  O   UNL     1       1.524   8.358  21.562  0.00  0.00    +0.000 OA
ATOM      4  N   UNL     1       2.105   7.270  19.618  0.00  0.00    +0.000 N 
ATOM      5  C   UNL     1       2.317   7.297  18.174  0.00  0.00    +0.000 C 
ATOM      6  C   UNL     1       1.938   5.966  17.542  0.00  0.00    +0.000 C 
ATOM      7  C   UNL     1       2.667   4.792  18.210  0.00  0.00    +0.000 C 
ATOM      8  C   UNL     1       2.432   4.830  19.730  0.00  0.00    +0.000 C 
ATOM      9  C   UNL     1       2.792   6.188  20.335  0.00  0.00    +0.000 C 
ATOM     10  H   UNL     1       0.709   9.154  18.676  0.00  0.00    +0.000 HD
ENDROOT
BRANCH   7  11
ATOM     11  C   UNL     1       4.124   4.771  17.884  0.00  0.00    +0.000 A 
ATOM     12  N   UNL     1       4.762   5.362  16.902  0.00  0.00    +0.000 NA
ATOM     13  C   UNL     1       6.055   4.936  17.097  0.00  0.00    +0.000 A 
ATOM     14  N   UNL     1       6.229   4.152  18.169  0.00  0.00    +0.000 NA
ATOM     15  O   UNL     1       4.942   4.040  18.694  0.00  0.00    +0.000 OA
BRANCH  13  16
ATOM     16  C   UNL     1       7.180   5.425  16.263  0.00  0.00    +0.000 C 
BRANCH  16  17
ATOM     17  C   UNL     1       6.980   4.878  14.870  0.00  0.00    +0.000 A 
ATOM     18  C   UNL     1       6.021   3.881  14.626  0.00  0.00    +0.000 A 
ATOM     19  C   UNL     1       5.832   3.375  13.339  0.00  0.00    +0.000 A 
ATOM     20  C   UNL     1       6.591   3.865  12.277  0.00  0.00    +0.000 A 
ATOM     21  C   UNL     1       7.536   4.864  12.502  0.00  0.00    +0.000 A 
ATOM     22  C   UNL     1       7.734   5.364  13.791  0.00  0.00    +0.000 A 
ENDBRANCH  16  17
ENDBRANCH  13  16
ENDBRANCH   7  11
BRANCH   1  23
ATOM     23  C   UNL     1       0.531  10.552  20.151  0.00  0.00    +0.000 C 
BRANCH  23  27
ATOM     24  C   UNL     1      -3.410  10.795  16.914  0.00  0.00    +0.000 C 
ATOM     25  C   UNL     1      -2.477  10.927  18.059  0.00  0.00    +0.000 A 
ATOM     26  C   UNL     1      -1.234  10.373  18.263  0.00  0.00    +0.000 A 
ATOM     27  C   UNL     1      -0.802  10.847  19.526  0.00  0.00    +0.000 A 
ATOM     28  N   UNL     1      -1.720  11.646  20.087  0.00  0.00    +0.000 NA
ATOM     29  N   UNL     1      -2.731  11.679  19.178  0.00  0.00    +0.000 N 
ATOM     30  C   UNL     1      -3.920  12.460  19.432  0.00  0.00    +0.000 C 
ENDBRANCH  23  27
ENDBRANCH   1  23
TORSDOF 5
ENDMDL
MODEL 4
REMARK VINA RESULT:      -7.3      0.639      1.430
REMARK  Name = 
REMARK  7 active torsions:
REMARK  status: ('A' for Active; 'I' for Inactive)
REMARK    1  A    between atoms: C_1  and  C_2
REMARK    2  A    between atoms: C_4  and  C_5
REMARK    3  A    between atoms: C_5  and  N_6
REMARK    4  A    between atoms: C_12  and  C_13
REMARK    5  A    between atoms: C_15  and  C_16
REMARK    6  A    between atoms: C_16  and  C_17
REMARK    7  A    between atoms: N_28  and  C_29
REMARK                            x       y       z     vdW  Elec       q    Type
REMARK                         _______ _______ _______ _____ _____    ______ ____
ROOT
ATOM      1  N   UNL     1       1.245   9.582  20.067  0.00  0.00    +0.000 N 
ATOM      2  C   UNL     1       1.308   8.435  20.817  0.00  0.00    +0.000 C 
ATOM      3  O   UNL     1       1.024   8.416  22.010  0.00  0.00    +0.000 OA
ATOM      4  N   UNL     1       1.743   7.313  20.120  0.00  0.00    +0.000 N 
ATOM      5  C   UNL     1       2.240   7.357  18.748  0.00  0.00    +0.000 C 
ATOM      6  C   UNL     1       1.727   6.172  17.944  0.00  0.00    +0.000 C 
ATOM      7  C   UNL     1       2.048   4.838  18.632  0.00  0.00    +0.000 C 
ATOM      8  C   UNL     1       1.526   4.859  20.079  0.00  0.00    +0.000 C 
ATOM      9  C   UNL     1       2.033   6.076  20.855  0.00  0.00    +0.000 C 
ATOM     10  H   UNL     1       0.986   9.500  19.102  0.00  0.00    +0.000 HD
ENDROOT
BRANCH   7  11
ATOM     11  C   UNL     1       3.504   4.510  18.581  0.00  0.00    +0.000 A 
ATOM     12  N   UNL     1       4.393   4.828  17.670  0.00  0.00    +0.000 NA
ATOM     13  C   UNL     1       5.528   4.212  18.145  0.00  0.00    +0.000 A 
ATOM     14  N   UNL     1       5.370   3.576  19.313  0.00  0.00    +0.000 NA
ATOM     15  O   UNL     1       4.022   3.772  19.603  0.00  0.00    +0.000 OA
BRANCH  13  16
ATOM     16  C   UNL     1       6.845   4.366  17.480  0.00  0.00    +0.000 C 
BRANCH  16  17
ATOM     17  C   UNL     1       7.343   5.758  17.785  0.00  0.00    +0.000 A 
ATOM     18  C   UNL     1       8.041   6.022  18.975  0.00  0.00    +0.000 A 
ATOM     19  C   UNL     1       8.505   7.308  19.259  0.00  0.00    +0.000 A 
ATOM     20  C   UNL     1       8.287   8.345  18.355  0.00  0.00    +0.000 A 
ATOM     21  C   UNL     1       7.609   8.096  17.163  0.00  0.00    +0.000 A 
ATOM     22  C   UNL     1       7.134   6.812  16.882  0.00  0.00    +0.000 A 
ENDBRANCH  16  17
ENDBRANCH  13  16
ENDBRANCH   7  11
BRANCH   1  23
ATOM     23  C   UNL     1       0.811  10.835  20.635  0.00  0.00    +0.000 C 
BRANCH  23  27
ATOM     24  C   UNL     1      -3.874  12.767  20.012  0.00  0.00    +0.000 C 
ATOM     25  C   UNL     1      -2.559  12.102  19.854  0.00  0.00    +0.000 A 
ATOM     26  C   UNL     1      -1.501  12.002  20.728  0.00  0.00    +0.000 A 
ATOM     27  C   UNL     1      -0.509  11.251  20.052  0.00  0.00    +0.000 A 
ATOM     28  N   UNL     1      -0.915  10.905  18.822  0.00  0.00    +0.000 NA
ATOM     29  N   UNL     1      -2.163  11.434  18.723  0.00  0.00    +0.000 N 
ATOM     30  C   UNL     1      -2.940  11.261  17.516  0.00  0.00    +0.000 C 
ENDBRANCH  23  27
ENDBRANCH   1  23
TORSDOF 5
ENDMDL
MODEL 5
REMARK VINA RESULT:      -7.2      3.514      8.861
REMARK  Name = 
REMARK  7 active torsions:
REMARK  status: ('A' for Active; 'I' for Inactive)
REMARK    1  A    between atoms: C_1  and  C_2
REMARK    2  A    between atoms: C_4  and  C_5
REMARK    3  A    between atoms: C_5  and  N_6
REMARK    4  A    between atoms: C_12  and  C_13
REMARK    5  A    between atoms: C_15  and  C_16
REMARK    6  A    between atoms: C_16  and  C_17
REMARK    7  A    between atoms: N_28  and  C_29
REMARK                            x       y       z     vdW  Elec       q    Type
REMARK                         _______ _______ _______ _____ _____    ______ ____
ROOT
ATOM      1  N   UNL     1       2.277   7.871  19.315  0.00  0.00    +0.000 N 
ATOM      2  C   UNL     1       1.747   8.827  18.486  0.00  0.00    +0.000 C 
ATOM      3  O   UNL     1       1.950   8.832  17.277  0.00  0.00    +0.000 OA
ATOM      4  N   UNL     1       0.989   9.795  19.134  0.00  0.00    +0.000 N 
ATOM      5  C   UNL     1       0.876   9.895  20.585  0.00  0.00    +0.000 C 
ATOM      6  C   UNL     1      -0.551  10.221  21.001  0.00  0.00    +0.000 C 
ATOM      7  C   UNL     1      -1.075  11.479  20.293  0.00  0.00    +0.000 C 
ATOM      8  C   UNL     1      -0.906  11.329  18.771  0.00  0.00    +0.000 C 
ATOM      9  C   UNL     1       0.531  10.972  18.384  0.00  0.00    +0.000 C 
ATOM     10  H   UNL     1       1.739   7.589  20.113  0.00  0.00    +0.000 HD
ENDROOT
BRANCH   7  11
ATOM     11  C   UNL     1      -0.422  12.725  20.794  0.00  0.00    +0.000 A 
ATOM     12  N   UNL     1      -0.334  13.902  20.222  0.00  0.00    +0.000 NA
ATOM     13  C   UNL     1       0.411  14.613  21.133  0.00  0.00    +0.000 A 
ATOM     14  N   UNL     1       0.739  13.932  22.239  0.00  0.00    +0.000 NA
ATOM     15  O   UNL     1       0.186  12.673  22.013  0.00  0.00    +0.000 OA
BRANCH  13  16
ATOM     16  C   UNL     1       0.701  16.057  20.958  0.00  0.00    +0.000 C 
BRANCH  16  17
ATOM     17  C   UNL     1       1.570  16.197  19.731  0.00  0.00    +0.000 A 
ATOM     18  C   UNL     1       2.719  15.404  19.576  0.00  0.00    +0.000 A 
ATOM     19  C   UNL     1       3.523  15.530  18.441  0.00  0.00    +0.000 A 
ATOM     20  C   UNL     1       3.184  16.440  17.442  0.00  0.00    +0.000 A 
ATOM     21  C   UNL     1       2.039  17.223  17.575  0.00  0.00    +0.000 A 
ATOM     22  C   UNL     1       1.239  17.107  18.714  0.00  0.00    +0.000 A 
ENDBRANCH  16  17
ENDBRANCH  13  16
ENDBRANCH   7  11
BRANCH   1  23
ATOM     23  C   UNL     1       3.087   6.791  18.805  0.00  0.00    +0.000 C 
BRANCH  23  27
ATOM     24  C   UNL     1       0.687   2.285  18.769  0.00  0.00    +0.000 C 
ATOM     25  C   UNL     1       1.434   3.515  19.125  0.00  0.00    +0.000 A 
ATOM     26  C   UNL     1       1.847   4.565  18.337  0.00  0.00    +0.000 A 
ATOM     27  C   UNL     1       2.512   5.463  19.206  0.00  0.00    +0.000 A 
ATOM     28  N   UNL     1       2.524   5.004  20.466  0.00  0.00    +0.000 NA
ATOM     29  N   UNL     1       1.865   3.817  20.391  0.00  0.00    +0.000 N 
ATOM     30  C   UNL     1       1.667   3.013  21.576  0.00  0.00    +0.000 C 
ENDBRANCH  23  27
ENDBRANCH   1  23
TORSDOF 5
ENDMDL
MODEL 6
REMARK VINA RESULT:      -7.2      3.375      8.484
REMARK  Name = 
REMARK  7 active torsions:
REMARK  status: ('A' for Active; 'I' for Inactive)
REMARK    1  A    between atoms: C_1  and  C_2
REMARK    2  A    between atoms: C_4  and  C_5
REMARK    3  A    between atoms: C_5  and  N_6
REMARK    4  A    between atoms: C_12  and  C_13
REMARK    5  A    between atoms: C_15  and  C_16
REMARK    6  A    between atoms: C_16  and  C_17
REMARK    7  A    between atoms: N_28  and  C_29
REMARK                            x       y       z     vdW  Elec       q    Type
REMARK                         _______ _______ _______ _____ _____    ______ ____
ROOT
ATOM      1  N   UNL     1       2.459   7.550  19.749  0.00  0.00    +0.000 N 
ATOM      2  C   UNL     1       1.881   8.410  18.849  0.00  0.00    +0.000 C 
ATOM      3  O   UNL     1       2.047   8.301  17.639  0.00  0.00    +0.000 OA
ATOM      4  N   UNL     1       1.121   9.422  19.425  0.00  0.00    +0.000 N 
ATOM      5  C   UNL     1       1.052   9.661  20.863  0.00  0.00    +0.000 C 
ATOM      6  C   UNL     1      -0.369   9.997  21.292  0.00  0.00    +0.000 C 
ATOM      7  C   UNL     1      -0.943  11.169  20.484  0.00  0.00    +0.000 C 
ATOM      8  C   UNL     1      -0.819  10.874  18.979  0.00  0.00    +0.000 C 
ATOM      9  C   UNL     1       0.613  10.510  18.581  0.00  0.00    +0.000 C 
ATOM     10  H   UNL     1       1.953   7.337  20.587  0.00  0.00    +0.000 HD
ENDROOT
BRANCH   7  11
ATOM     11  C   UNL     1      -0.304  12.470  20.840  0.00  0.00    +0.000 A 
ATOM     12  N   UNL     1      -0.049  13.505  20.074  0.00  0.00    +0.000 NA
ATOM     13  C   UNL     1       0.580  14.363  20.946  0.00  0.00    +0.000 A 
ATOM     14  N   UNL     1       0.678  13.910  22.202  0.00  0.00    +0.000 NA
ATOM     15  O   UNL     1       0.091  12.648  22.133  0.00  0.00    +0.000 OA
BRANCH  13  16
ATOM     16  C   UNL     1       0.986  15.733  20.547  0.00  0.00    +0.000 C 
BRANCH  16  17
ATOM     17  C   UNL     1       2.249  15.609  19.729  0.00  0.00    +0.000 A 
ATOM     18  C   UNL     1       2.209  15.742  18.331  0.00  0.00    +0.000 A 
ATOM     19  C   UNL     1       3.376  15.628  17.572  0.00  0.00    +0.000 A 
ATOM     20  C   UNL     1       4.598  15.392  18.199  0.00  0.00    +0.000 A 
ATOM     21  C   UNL     1       4.654  15.272  19.586  0.00  0.00    +0.000 A 
ATOM     22  C   UNL     1       3.487  15.374  20.347  0.00  0.00    +0.000 A 
ENDBRANCH  16  17
ENDBRANCH  13  16
ENDBRANCH   7  11
BRANCH   1  23
ATOM     23  C   UNL     1       3.277   6.442  19.319  0.00  0.00    +0.000 C 
BRANCH  23  27
ATOM     24  C   UNL     1       0.562   2.147  18.833  0.00  0.00    +0.000 C 
ATOM     25  C   UNL     1       1.377   3.287  19.315  0.00  0.00    +0.000 A 
ATOM     26  C   UNL     1       1.906   4.356  18.628  0.00  0.00    +0.000 A 
ATOM     27  C   UNL     1       2.587   5.137  19.592  0.00  0.00    +0.000 A 
ATOM     28  N   UNL     1       2.498   4.591  20.813  0.00  0.00    +0.000 NA
ATOM     29  N   UNL     1       1.760   3.466  20.619  0.00  0.00    +0.000 N 
ATOM     30  C   UNL     1       1.441   2.597  21.730  0.00  0.00    +0.000 C 
ENDBRANCH  23  27
ENDBRANCH   1  23
TORSDOF 5
ENDMDL
MODEL 7
REMARK VINA RESULT:      -7.2      3.078     10.188
REMARK  Name = 
REMARK  7 active torsions:
REMARK  status: ('A' for Active; 'I' for Inactive)
REMARK    1  A    between atoms: C_1  and  C_2
REMARK    2  A    between atoms: C_4  and  C_5
REMARK    3  A    between atoms: C_5  and  N_6
REMARK    4  A    between atoms: C_12  and  C_13
REMARK    5  A    between atoms: C_15  and  C_16
REMARK    6  A    between atoms: C_16  and  C_17
REMARK    7  A    between atoms: N_28  and  C_29
REMARK                            x       y       z     vdW  Elec       q    Type
REMARK                         _______ _______ _______ _____ _____    ______ ____
ROOT
ATOM      1  N   UNL     1       2.215   7.817  19.231  0.00  0.00    +0.000 N 
ATOM      2  C   UNL     1       1.386   8.324  20.200  0.00  0.00    +0.000 C 
ATOM      3  O   UNL     1       1.410   7.922  21.359  0.00  0.00    +0.000 OA
ATOM      4  N   UNL     1       0.509   9.304  19.753  0.00  0.00    +0.000 N 
ATOM      5  C   UNL     1       0.358   9.673  18.348  0.00  0.00    +0.000 C 
ATOM      6  C   UNL     1       0.223  11.180  18.191  0.00  0.00    +0.000 C 
ATOM      7  C   UNL     1      -0.910  11.742  19.060  0.00  0.00    +0.000 C 
ATOM      8  C   UNL     1      -0.714  11.301  20.521  0.00  0.00    +0.000 C 
ATOM      9  C   UNL     1      -0.551   9.784  20.647  0.00  0.00    +0.000 C 
ATOM     10  H   UNL     1       2.534   8.438  18.512  0.00  0.00    +0.000 HD
ENDROOT
BRANCH   7  11
ATOM     11  C   UNL     1      -2.260  11.358  18.551  0.00  0.00    +0.000 A 
ATOM     12  N   UNL     1      -3.396  12.008  18.642  0.00  0.00    +0.000 NA
ATOM     13  C   UNL     1      -4.276  11.141  18.037  0.00  0.00    +0.000 A 
ATOM     14  N   UNL     1      -3.716  10.024  17.554  0.00  0.00    +0.000 NA
ATOM     15  O   UNL     1      -2.373  10.167  17.897  0.00  0.00    +0.000 OA
BRANCH  13  16
ATOM     16  C   UNL     1      -5.701  11.490  17.818  0.00  0.00    +0.000 C 
BRANCH  16  17
ATOM     17  C   UNL     1      -6.478  10.974  19.006  0.00  0.00    +0.000 A 
ATOM     18  C   UNL     1      -6.757   9.603  19.136  0.00  0.00    +0.000 A 
ATOM     19  C   UNL     1      -7.474   9.124  20.234  0.00  0.00    +0.000 A 
ATOM     20  C   UNL     1      -7.912  10.004  21.221  0.00  0.00    +0.000 A 
ATOM     21  C   UNL     1      -7.631  11.364  21.113  0.00  0.00    +0.000 A 
ATOM     22  C   UNL     1      -6.923  11.848  20.010  0.00  0.00    +0.000 A 
ENDBRANCH  16  17
ENDBRANCH  13  16
ENDBRANCH   7  11
BRANCH   1  23
ATOM     23  C   UNL     1       3.189   6.794  19.527  0.00  0.00    +0.000 C 
BRANCH  23  27
ATOM     24  C   UNL     1       1.387   2.512  21.645  0.00  0.00    +0.000 C 
ATOM     25  C   UNL     1       1.771   3.615  20.732  0.00  0.00    +0.000 A 
ATOM     26  C   UNL     1       2.397   4.812  20.996  0.00  0.00    +0.000 A 
ATOM     27  C   UNL     1       2.515   5.470  19.748  0.00  0.00    +0.000 A 
ATOM     28  N   UNL     1       1.989   4.736  18.758  0.00  0.00    +0.000 NA
ATOM     29  N   UNL     1       1.541   3.613  19.380  0.00  0.00    +0.000 N 
ATOM     30  C   UNL     1       0.904   2.559  18.623  0.00  0.00    +0.000 C 
ENDBRANCH  23  27
ENDBRANCH   1  23
TORSDOF 5
ENDMDL
MODEL 8
REMARK VINA RESULT:      -7.2      2.103      2.856
REMARK  Name = 
REMARK  7 active torsions:
REMARK  status: ('A' for Active; 'I' for Inactive)
REMARK    1  A    between atoms: C_1  and  C_2
REMARK    2  A    between atoms: C_4  and  C_5
REMARK    3  A    between atoms: C_5  and  N_6
REMARK    4  A    between atoms: C_12  and  C_13
REMARK    5  A    between atoms: C_15  and  C_16
REMARK    6  A    between atoms: C_16  and  C_17
REMARK    7  A    between atoms: N_28  and  C_29
REMARK                            x       y       z     vdW  Elec       q    Type
REMARK                         _______ _______ _______ _____ _____    ______ ____
ROOT
ATOM      1  N   UNL     1       0.880   9.133  19.068  0.00  0.00    +0.000 N 
ATOM      2  C   UNL     1       1.532   8.353  19.989  0.00  0.00    +0.000 C 
ATOM      3  O   UNL     1       1.582   8.646  21.179  0.00  0.00    +0.000 OA
ATOM      4  N   UNL     1       2.147   7.226  19.456  0.00  0.00    +0.000 N 
ATOM      5  C   UNL     1       2.235   6.954  18.025  0.00  0.00    +0.000 C 
ATOM      6  C   UNL     1       1.992   5.481  17.733  0.00  0.00    +0.000 C 
ATOM      7  C   UNL     1       2.928   4.579  18.550  0.00  0.00    +0.000 C 
ATOM      8  C   UNL     1       2.813   4.927  20.044  0.00  0.00    +0.000 C 
ATOM      9  C   UNL     1       3.032   6.419  20.305  0.00  0.00    +0.000 C 
ATOM     10  H   UNL     1       0.434   8.677  18.296  0.00  0.00    +0.000 HD
ENDROOT
BRANCH   7  11
ATOM     11  C   UNL     1       4.343   4.655  18.079  0.00  0.00    +0.000 A 
ATOM     12  N   UNL     1       4.844   5.323  17.067  0.00  0.00    +0.000 NA
ATOM     13  C   UNL     1       6.171   4.963  17.110  0.00  0.00    +0.000 A 
ATOM     14  N   UNL     1       6.495   4.146  18.120  0.00  0.00    +0.000 NA
ATOM     15  O   UNL     1       5.277   3.937  18.765  0.00  0.00    +0.000 OA
BRANCH  13  16
ATOM     16  C   UNL     1       7.177   5.552  16.193  0.00  0.00    +0.000 C 
BRANCH  16  17
ATOM     17  C   UNL     1       6.953   4.943  14.829  0.00  0.00    +0.000 A 
ATOM     18  C   UNL     1       7.699   5.378  13.721  0.00  0.00    +0.000 A 
ATOM     19  C   UNL     1       7.495   4.816  12.460  0.00  0.00    +0.000 A 
ATOM     20  C   UNL     1       6.551   3.804  12.290  0.00  0.00    +0.000 A 
ATOM     21  C   UNL     1       5.814   3.352  13.382  0.00  0.00    +0.000 A 
ATOM     22  C   UNL     1       6.009   3.921  14.643  0.00  0.00    +0.000 A 
ENDBRANCH  16  17
ENDBRANCH  13  16
ENDBRANCH   7  11
BRANCH   1  23
ATOM     23  C   UNL     1       0.186  10.339  19.454  0.00  0.00    +0.000 C 
BRANCH  23  27
ATOM     24  C   UNL     1      -3.277  10.158  15.707  0.00  0.00    +0.000 C 
ATOM     25  C   UNL     1      -2.520  10.410  16.956  0.00  0.00    +0.000 A 
ATOM     26  C   UNL     1      -1.289   9.947  17.360  0.00  0.00    +0.000 A 
ATOM     27  C   UNL     1      -1.062  10.514  18.638  0.00  0.00    +0.000 A 
ATOM     28  N   UNL     1      -2.092  11.283  19.019  0.00  0.00    +0.000 NA
ATOM     29  N   UNL     1      -2.967  11.203  17.982  0.00  0.00    +0.000 N 
ATOM     30  C   UNL     1      -4.222  11.920  18.024  0.00  0.00    +0.000 C 
ENDBRANCH  23  27
ENDBRANCH   1  23
TORSDOF 5
ENDMDL
MODEL 9
REMARK VINA RESULT:      -7.2      2.095     10.131
REMARK  Name = 
REMARK  7 active torsions:
REMARK  status: ('A' for Active; 'I' for Inactive)
REMARK    1  A    between atoms: C_1  and  C_2
REMARK    2  A    between atoms: C_4  and  C_5
REMARK    3  A    between atoms: C_5  and  N_6
REMARK    4  A    between atoms: C_12  and  C_13
REMARK    5  A    between atoms: C_15  and  C_16
REMARK    6  A    between atoms: C_16  and  C_17
REMARK    7  A    between atoms: N_28  and  C_29
REMARK                            x       y       z     vdW  Elec       q    Type
REMARK                         _______ _______ _______ _____ _____    ______ ____
ROOT
ATOM      1  N   UNL     1       2.454   6.826  19.294  0.00  0.00    +0.000 N 
ATOM      2  C   UNL     1       1.870   7.567  20.290  0.00  0.00    +0.000 C 
ATOM      3  O   UNL     1       1.838   7.188  21.456  0.00  0.00    +0.000 OA
ATOM      4  N   UNL     1       1.301   8.761  19.862  0.00  0.00    +0.000 N 
ATOM      5  C   UNL     1       1.187   9.144  18.459  0.00  0.00    +0.000 C 
ATOM      6  C   UNL     1       1.499  10.621  18.269  0.00  0.00    +0.000 C 
ATOM      7  C   UNL     1       0.636  11.504  19.180  0.00  0.00    +0.000 C 
ATOM      8  C   UNL     1       0.774  11.039  20.640  0.00  0.00    +0.000 C 
ATOM      9  C   UNL     1       0.484   9.545  20.797  0.00  0.00    +0.000 C 
ATOM     10  H   UNL     1       2.902   7.317  18.544  0.00  0.00    +0.000 HD
ENDROOT
BRANCH   7  11
ATOM     11  C   UNL     1      -0.794  11.536  18.750  0.00  0.00    +0.000 A 
ATOM     12  N   UNL     1      -1.340  11.062  17.655  0.00  0.00    +0.000 NA
ATOM     13  C   UNL     1      -2.657  11.432  17.804  0.00  0.00    +0.000 A 
ATOM     14  N   UNL     1      -2.932  12.067  18.951  0.00  0.00    +0.000 NA
ATOM     15  O   UNL     1      -1.691  12.139  19.581  0.00  0.00    +0.000 OA
BRANCH  13  16
ATOM     16  C   UNL     1      -3.703  11.029  16.832  0.00  0.00    +0.000 C 
BRANCH  16  17
ATOM     17  C   UNL     1      -5.038  11.411  17.424  0.00  0.00    +0.000 A 
ATOM     18  C   UNL     1      -5.632  10.616  18.418  0.00  0.00    +0.000 A 
ATOM     19  C   UNL     1      -6.866  10.967  18.969  0.00  0.00    +0.000 A 
ATOM     20  C   UNL     1      -7.518  12.122  18.541  0.00  0.00    +0.000 A 
ATOM     21  C   UNL     1      -6.935  12.929  17.567  0.00  0.00    +0.000 A 
ATOM     22  C   UNL     1      -5.705  12.573  17.006  0.00  0.00    +0.000 A 
ENDBRANCH  16  17
ENDBRANCH  13  16
ENDBRANCH   7  11
BRANCH   1  23
ATOM     23  C   UNL     1       3.094   5.562  19.567  0.00  0.00    +0.000 C 
BRANCH  23  27
ATOM     24  C   UNL     1       5.675   4.519  15.287  0.00  0.00    +0.000 C 
ATOM     25  C   UNL     1       5.252   4.824  16.675  0.00  0.00    +0.000 A 
ATOM     26  C   UNL     1       4.002   5.083  17.188  0.00  0.00    +0.000 A 
ATOM     27  C   UNL     1       4.191   5.299  18.575  0.00  0.00    +0.000 A 
ATOM     28  N   UNL     1       5.483   5.189  18.915  0.00  0.00    +0.000 NA
ATOM     29  N   UNL     1       6.109   4.901  17.743  0.00  0.00    +0.000 N 
ATOM     30  C   UNL     1       7.541   4.701  17.707  0.00  0.00    +0.000 C 
ENDBRANCH  23  27
ENDBRANCH   1  23
TORSDOF 5
ENDMDL
