MODEL 1
REMARK VINA RESULT:      -9.5      0.000      0.000
REMARK  Name = 
REMARK  3 active torsions:
REMARK  status: ('A' for Active; 'I' for Inactive)
REMARK    1  A    between atoms: O_1  and  N_2
REMARK    2  A    between atoms: C_3  and  C_4
REMARK    3  A    between atoms: C_3  and  C_13
REMARK                            x       y       z     vdW  Elec       q    Type
REMARK                         _______ _______ _______ _____ _____    ______ ____
ROOT
ATOM      1  N   UNL     1       7.599   5.159  18.674  0.00  0.00    +0.000 NA
ATOM      2  C   UNL     1       6.539   4.765  18.019  0.00  0.00    +0.000 C 
ENDROOT
BRANCH   2   3
ATOM      3  C   UNL     1       5.246   4.434  18.615  0.00  0.00    +0.000 A 
ATOM      4  N   UNL     1       4.463   5.280  19.277  0.00  0.00    +0.000 NA
ATOM      5  C   UNL     1       3.322   4.577  19.585  0.00  0.00    +0.000 A 
ATOM      6  C   UNL     1       2.158   4.994  20.245  0.00  0.00    +0.000 A 
ATOM      7  C   UNL     1       1.107   4.078  20.395  0.00  0.00    +0.000 A 
ATOM      8  C   UNL     1       1.219   2.773  19.908  0.00  0.00    +0.000 A 
ATOM      9  C   UNL     1       2.380   2.335  19.263  0.00  0.00    +0.000 A 
ATOM     10  C   UNL     1       3.406   3.273  19.121  0.00  0.00    +0.000 A 
ATOM     11  N   UNL     1       4.642   3.201  18.546  0.00  0.00    +0.000 N 
ATOM     12  H   UNL     1       5.060   2.402  18.089  0.00  0.00    +0.000 HD
ENDBRANCH   2   3
BRANCH   2  13
ATOM     13  C   UNL     1       6.634   4.596  16.573  0.00  0.00    +0.000 A 
ATOM     14  N   UNL     1       5.854   3.792  15.864  0.00  0.00    +0.000 NA
ATOM     15  C   UNL     1       6.223   3.963  14.552  0.00  0.00    +0.000 A 
ATOM     16  C   UNL     1       5.711   3.369  13.390  0.00  0.00    +0.000 A 
ATOM     17  C   UNL     1       6.261   3.728  12.153  0.00  0.00    +0.000 A 
ATOM     18  C   UNL     1       7.301   4.660  12.076  0.00  0.00    +0.000 A 
ATOM     19  C   UNL     1       7.826   5.261  13.226  0.00  0.00    +0.000 A 
ATOM     20  C   UNL     1       7.258   4.882  14.443  0.00  0.00    +0.000 A 
ATOM     21  N   UNL     1       7.507   5.255  15.734  0.00  0.00    +0.000 N 
ATOM     22  H   UNL     1       8.199   5.923  16.057  0.00  0.00    +0.000 HD
ENDBRANCH   2  13
BRANCH   1  23
ATOM     23  O   UNL     1       7.436   5.268  20.062  0.00  0.00    +0.000 OA
ATOM     24  H   UNL     1       8.287   5.673  20.327  0.00  0.00    +0.000 HD
ENDBRANCH   1  23
TORSDOF 3
ENDMDL
MODEL 2
REMARK VINA RESULT:      -9.4      0.783      1.031
REMARK  Name = 
REMARK  3 active torsions:
REMARK  status: ('A' for Active; 'I' for Inactive)
REMARK    1  A    between atoms: O_1  and  N_2
REMARK    2  A    between atoms: C_3  and  C_4
REMARK    3  A    between atoms: C_3  and  C_13
REMARK                            x       y       z     vdW  Elec       q    Type
REMARK                         _______ _______ _______ _____ _____    ______ ____
ROOT
ATOM      1  N   UNL     1       7.459   5.151  18.593  0.00  0.00    +0.000 NA
ATOM      2  C   UNL     1       6.450   4.680  17.908  0.00  0.00    +0.000 C 
ENDROOT
BRANCH   2   3
ATOM      3  C   UNL     1       5.176   4.235  18.470  0.00  0.00    +0.000 A 
ATOM      4  N   UNL     1       5.033   3.471  19.548  0.00  0.00    +0.000 NA
ATOM      5  C   UNL     1       3.678   3.371  19.763  0.00  0.00    +0.000 A 
ATOM      6  C   UNL     1       2.975   2.712  20.782  0.00  0.00    +0.000 A 
ATOM      7  C   UNL     1       1.576   2.802  20.796  0.00  0.00    +0.000 A 
ATOM      8  C   UNL     1       0.894   3.521  19.812  0.00  0.00    +0.000 A 
ATOM      9  C   UNL     1       1.579   4.168  18.778  0.00  0.00    +0.000 A 
ATOM     10  C   UNL     1       2.972   4.069  18.796  0.00  0.00    +0.000 A 
ATOM     11  N   UNL     1       3.938   4.573  17.974  0.00  0.00    +0.000 N 
ATOM     12  H   UNL     1       3.807   5.148  17.153  0.00  0.00    +0.000 HD
ENDBRANCH   2   3
BRANCH   2  13
ATOM     13  C   UNL     1       6.590   4.542  16.462  0.00  0.00    +0.000 A 
ATOM     14  N   UNL     1       5.858   3.725  15.718  0.00  0.00    +0.000 NA
ATOM     15  C   UNL     1       6.257   3.933  14.420  0.00  0.00    +0.000 A 
ATOM     16  C   UNL     1       5.798   3.344  13.233  0.00  0.00    +0.000 A 
ATOM     17  C   UNL     1       6.369   3.745  12.019  0.00  0.00    +0.000 A 
ATOM     18  C   UNL     1       7.378   4.712  11.988  0.00  0.00    +0.000 A 
ATOM     19  C   UNL     1       7.850   5.309  13.163  0.00  0.00    +0.000 A 
ATOM     20  C   UNL     1       7.262   4.889  14.357  0.00  0.00    +0.000 A 
ATOM     21  N   UNL     1       7.463   5.246  15.661  0.00  0.00    +0.000 N 
ATOM     22  H   UNL     1       8.123   5.931  16.015  0.00  0.00    +0.000 HD
ENDBRANCH   2  13
BRANCH   1  23
ATOM     23  O   UNL     1       7.257   5.225  19.978  0.00  0.00    +0.000 OA
ATOM     24  H   UNL     1       8.168   5.378  20.300  0.00  0.00    +0.000 HD
ENDBRANCH   1  23
TORSDOF 3
ENDMDL
MODEL 3
REMARK VINA RESULT:      -9.3      0.650      1.422
REMARK  Name = 
REMARK  3 active torsions:
REMARK  status: ('A' for Active; 'I' for Inactive)
REMARK    1  A    between atoms: O_1  and  N_2
REMARK    2  A    between atoms: C_3  and  C_4
REMARK    3  A    between atoms: C_3  and  C_13
REMARK                            x       y       z     vdW  Elec       q    Type
REMARK                         _______ _______ _______ _____ _____    ______ ____
ROOT
ATOM      1  N   UNL     1       7.671   5.113  18.540  0.00  0.00    +0.000 NA
ATOM      2  C   UNL     1       6.582   4.771  17.902  0.00  0.00    +0.000 C 
ENDROOT
BRANCH   2   3
ATOM      3  C   UNL     1       5.299   4.451  18.522  0.00  0.00    +0.000 A 
ATOM      4  N   UNL     1       4.138   5.032  18.236  0.00  0.00    +0.000 NA
ATOM      5  C   UNL     1       3.190   4.373  18.984  0.00  0.00    +0.000 A 
ATOM      6  C   UNL     1       1.802   4.556  19.042  0.00  0.00    +0.000 A 
ATOM      7  C   UNL     1       1.048   3.709  19.867  0.00  0.00    +0.000 A 
ATOM      8  C   UNL     1       1.666   2.712  20.626  0.00  0.00    +0.000 A 
ATOM      9  C   UNL     1       3.052   2.528  20.594  0.00  0.00    +0.000 A 
ATOM     10  C   UNL     1       3.775   3.380  19.756  0.00  0.00    +0.000 A 
ATOM     11  N   UNL     1       5.107   3.475  19.472  0.00  0.00    +0.000 N 
ATOM     12  H   UNL     1       5.855   2.905  19.842  0.00  0.00    +0.000 HD
ENDBRANCH   2   3
BRANCH   2  13
ATOM     13  C   UNL     1       6.632   4.657  16.448  0.00  0.00    +0.000 A 
ATOM     14  N   UNL     1       7.466   5.339  15.676  0.00  0.00    +0.000 NA
ATOM     15  C   UNL     1       7.236   4.908  14.392  0.00  0.00    +0.000 A 
ATOM     16  C   UNL     1       7.853   5.288  13.192  0.00  0.00    +0.000 A 
ATOM     17  C   UNL     1       7.437   4.679  12.001  0.00  0.00    +0.000 A 
ATOM     18  C   UNL     1       6.428   3.712  12.005  0.00  0.00    +0.000 A 
ATOM     19  C   UNL     1       5.799   3.323  13.194  0.00  0.00    +0.000 A 
ATOM     20  C   UNL     1       6.234   3.947  14.364  0.00  0.00    +0.000 A 
ATOM     21  N   UNL     1       5.861   3.818  15.672  0.00  0.00    +0.000 N 
ATOM     22  H   UNL     1       5.151   3.199  16.050  0.00  0.00    +0.000 HD
ENDBRANCH   2  13
BRANCH   1  23
ATOM     23  O   UNL     1       7.550   5.172  19.935  0.00  0.00    +0.000 OA
ATOM     24  H   UNL     1       7.584   6.137  20.093  0.00  0.00    +0.000 HD
ENDBRANCH   1  23
TORSDOF 3
ENDMDL
MODEL 4
REMARK VINA RESULT:      -9.2      0.242      1.801
REMARK  Name = 
REMARK  3 active torsions:
REMARK  status: ('A' for Active; 'I' for Inactive)
REMARK    1  A    between atoms: O_1  and  N_2
REMARK    2  A    between atoms: C_3  and  C_4
REMARK    3  A    between atoms: C_3  and  C_13
REMARK                            x       y       z     vdW  Elec       q    Type
REMARK                         _______ _______ _______ _____ _____    ______ ____
ROOT
ATOM      1  N   UNL     1       7.446   5.095  18.610  0.00  0.00    +0.000 NA
ATOM      2  C   UNL     1       6.385   4.784  17.913  0.00  0.00    +0.000 C 
ENDROOT
BRANCH   2   3
ATOM      3  C   UNL     1       5.065   4.485  18.463  0.00  0.00    +0.000 A 
ATOM      4  N   UNL     1       4.400   3.346  18.298  0.00  0.00    +0.000 NA
ATOM      5  C   UNL     1       3.253   3.465  19.048  0.00  0.00    +0.000 A 
ATOM      6  C   UNL     1       2.216   2.545  19.259  0.00  0.00    +0.000 A 
ATOM      7  C   UNL     1       1.166   2.904  20.116  0.00  0.00    +0.000 A 
ATOM      8  C   UNL     1       1.146   4.154  20.740  0.00  0.00    +0.000 A 
ATOM      9  C   UNL     1       2.164   5.090  20.526  0.00  0.00    +0.000 A 
ATOM     10  C   UNL     1       3.199   4.701  19.674  0.00  0.00    +0.000 A 
ATOM     11  N   UNL     1       4.335   5.335  19.260  0.00  0.00    +0.000 N 
ATOM     12  H   UNL     1       4.647   6.262  19.516  0.00  0.00    +0.000 HD
ENDBRANCH   2   3
BRANCH   2  13
ATOM     13  C   UNL     1       6.507   4.683  16.462  0.00  0.00    +0.000 A 
ATOM     14  N   UNL     1       7.352   5.400  15.735  0.00  0.00    +0.000 NA
ATOM     15  C   UNL     1       7.197   4.971  14.439  0.00  0.00    +0.000 A 
ATOM     16  C   UNL     1       7.856   5.382  13.271  0.00  0.00    +0.000 A 
ATOM     17  C   UNL     1       7.518   4.769  12.058  0.00  0.00    +0.000 A 
ATOM     18  C   UNL     1       6.544   3.768  12.009  0.00  0.00    +0.000 A 
ATOM     19  C   UNL     1       5.874   3.347  13.164  0.00  0.00    +0.000 A 
ATOM     20  C   UNL     1       6.232   3.976  14.357  0.00  0.00    +0.000 A 
ATOM     21  N   UNL     1       5.802   3.824  15.646  0.00  0.00    +0.000 N 
ATOM     22  H   UNL     1       5.098   3.178  15.986  0.00  0.00    +0.000 HD
ENDBRANCH   2  13
BRANCH   1  23
ATOM     23  O   UNL     1       7.255   5.143  19.997  0.00  0.00    +0.000 OA
ATOM     24  H   UNL     1       7.911   5.820  20.262  0.00  0.00    +0.000 HD
ENDBRANCH   1  23
TORSDOF 3
ENDMDL
MODEL 5
REMARK VINA RESULT:      -8.6      0.695      6.509
REMARK  Name = 
REMARK  3 active torsions:
REMARK  status: ('A' for Active; 'I' for Inactive)
REMARK    1  A    between atoms: O_1  and  N_2
REMARK    2  A    between atoms: C_3  and  C_4
REMARK    3  A    between atoms: C_3  and  C_13
REMARK                            x       y       z     vdW  Elec       q    Type
REMARK                         _______ _______ _______ _____ _____    ______ ____
ROOT
ATOM      1  N   UNL     1       7.176   4.571  18.747  0.00  0.00    +0.000 NA
ATOM      2  C   UNL     1       6.226   4.426  17.861  0.00  0.00    +0.000 C 
ENDROOT
BRANCH   2   3
ATOM      3  C   UNL     1       6.401   4.480  16.411  0.00  0.00    +0.000 A 
ATOM      4  N   UNL     1       7.234   5.288  15.764  0.00  0.00    +0.000 NA
ATOM      5  C   UNL     1       7.137   4.947  14.435  0.00  0.00    +0.000 A 
ATOM      6  C   UNL     1       7.820   5.457  13.322  0.00  0.00    +0.000 A 
ATOM      7  C   UNL     1       7.563   4.896  12.063  0.00  0.00    +0.000 A 
ATOM      8  C   UNL     1       6.638   3.859  11.916  0.00  0.00    +0.000 A 
ATOM      9  C   UNL     1       5.935   3.351  13.013  0.00  0.00    +0.000 A 
ATOM     10  C   UNL     1       6.219   3.923  14.255  0.00  0.00    +0.000 A 
ATOM     11  N   UNL     1       5.745   3.674  15.510  0.00  0.00    +0.000 N 
ATOM     12  H   UNL     1       5.059   2.981  15.781  0.00  0.00    +0.000 HD
ENDBRANCH   2   3
BRANCH   2  13
ATOM     13  C   UNL     1       4.858   4.228  18.329  0.00  0.00    +0.000 A 
ATOM     14  N   UNL     1       4.052   3.272  17.890  0.00  0.00    +0.000 NA
ATOM     15  C   UNL     1       2.890   3.392  18.614  0.00  0.00    +0.000 A 
ATOM     16  C   UNL     1       1.717   2.624  18.563  0.00  0.00    +0.000 A 
ATOM     17  C   UNL     1       0.665   2.949  19.428  0.00  0.00    +0.000 A 
ATOM     18  C   UNL     1       0.778   4.017  20.324  0.00  0.00    +0.000 A 
ATOM     19  C   UNL     1       1.940   4.795  20.385  0.00  0.00    +0.000 A 
ATOM     20  C   UNL     1       2.971   4.447  19.511  0.00  0.00    +0.000 A 
ATOM     21  N   UNL     1       4.217   4.967  19.301  0.00  0.00    +0.000 N 
ATOM     22  H   UNL     1       4.643   5.754  19.780  0.00  0.00    +0.000 HD
ENDBRANCH   2  13
BRANCH   1  23
ATOM     23  O   UNL     1       8.456   4.787  18.218  0.00  0.00    +0.000 OA
ATOM     24  H   UNL     1       8.824   5.433  18.855  0.00  0.00    +0.000 HD
ENDBRANCH   1  23
TORSDOF 3
ENDMDL
MODEL 6
REMARK VINA RESULT:      -8.6      1.268      6.627
REMARK  Name = 
REMARK  3 active torsions:
REMARK  status: ('A' for Active; 'I' for Inactive)
REMARK    1  A    between atoms: O_1  and  N_2
REMARK    2  A    between atoms: C_3  and  C_4
REMARK    3  A    between atoms: C_3  and  C_13
REMARK                            x       y       z     vdW  Elec       q    Type
REMARK                         _______ _______ _______ _____ _____    ______ ____
ROOT
ATOM      1  N   UNL     1       7.020   6.818  17.898  0.00  0.00    +0.000 NA
ATOM      2  C   UNL     1       6.329   5.793  17.471  0.00  0.00    +0.000 C 
ENDROOT
BRANCH   2   3
ATOM      3  C   UNL     1       6.396   5.224  16.127  0.00  0.00    +0.000 A 
ATOM      4  N   UNL     1       5.491   4.413  15.588  0.00  0.00    +0.000 NA
ATOM      5  C   UNL     1       5.905   4.192  14.295  0.00  0.00    +0.000 A 
ATOM      6  C   UNL     1       5.305   3.440  13.274  0.00  0.00    +0.000 A 
ATOM      7  C   UNL     1       5.919   3.413  12.014  0.00  0.00    +0.000 A 
ATOM      8  C   UNL     1       7.109   4.107  11.781  0.00  0.00    +0.000 A 
ATOM      9  C   UNL     1       7.730   4.846  12.793  0.00  0.00    +0.000 A 
ATOM     10  C   UNL     1       7.090   4.863  14.034  0.00  0.00    +0.000 A 
ATOM     11  N   UNL     1       7.394   5.475  15.216  0.00  0.00    +0.000 N 
ATOM     12  H   UNL     1       8.190   6.066  15.413  0.00  0.00    +0.000 HD
ENDBRANCH   2   3
BRANCH   2  13
ATOM     13  C   UNL     1       5.377   5.166  18.382  0.00  0.00    +0.000 A 
ATOM     14  N   UNL     1       4.331   5.786  18.908  0.00  0.00    +0.000 NA
ATOM     15  C   UNL     1       3.664   4.844  19.653  0.00  0.00    +0.000 A 
ATOM     16  C   UNL     1       2.486   4.961  20.404  0.00  0.00    +0.000 A 
ATOM     17  C   UNL     1       2.000   3.829  21.071  0.00  0.00    +0.000 A 
ATOM     18  C   UNL     1       2.674   2.608  20.993  0.00  0.00    +0.000 A 
ATOM     19  C   UNL     1       3.854   2.474  20.251  0.00  0.00    +0.000 A 
ATOM     20  C   UNL     1       4.313   3.618  19.597  0.00  0.00    +0.000 A 
ATOM     21  N   UNL     1       5.398   3.853  18.800  0.00  0.00    +0.000 N 
ATOM     22  H   UNL     1       6.111   3.186  18.522  0.00  0.00    +0.000 HD
ENDBRANCH   2  13
BRANCH   1  23
ATOM     23  O   UNL     1       7.891   7.383  16.956  0.00  0.00    +0.000 OA
ATOM     24  H   UNL     1       8.720   6.895  17.139  0.00  0.00    +0.000 HD
ENDBRANCH   1  23
TORSDOF 3
ENDMDL
MODEL 7
REMARK VINA RESULT:      -8.4      1.046      6.639
REMARK  Name = 
REMARK  3 active torsions:
REMARK  status: ('A' for Active; 'I' for Inactive)
REMARK    1  A    between atoms: O_1  and  N_2
REMARK    2  A    between atoms: C_3  and  C_4
REMARK    3  A    between atoms: C_3  and  C_13
REMARK                            x       y       z     vdW  Elec       q    Type
REMARK                         _______ _______ _______ _____ _____    ______ ____
ROOT
ATOM      1  N   UNL     1       6.856   5.986  18.418  0.00  0.00    +0.000 NA
ATOM      2  C   UNL     1       6.114   5.182  17.701  0.00  0.00    +0.000 C 
ENDROOT
BRANCH   2   3
ATOM      3  C   UNL     1       6.338   4.846  16.297  0.00  0.00    +0.000 A 
ATOM      4  N   UNL     1       5.627   3.973  15.590  0.00  0.00    +0.000 NA
ATOM      5  C   UNL     1       6.123   4.031  14.309  0.00  0.00    +0.000 A 
ATOM      6  C   UNL     1       5.717   3.346  13.155  0.00  0.00    +0.000 A 
ATOM      7  C   UNL     1       6.371   3.624  11.946  0.00  0.00    +0.000 A 
ATOM      8  C   UNL     1       7.412   4.554  11.891  0.00  0.00    +0.000 A 
ATOM      9  C   UNL     1       7.841   5.232  13.037  0.00  0.00    +0.000 A 
ATOM     10  C   UNL     1       7.165   4.941  14.224  0.00  0.00    +0.000 A 
ATOM     11  N   UNL     1       7.303   5.413  15.497  0.00  0.00    +0.000 N 
ATOM     12  H   UNL     1       7.962   6.104  15.828  0.00  0.00    +0.000 HD
ENDBRANCH   2   3
BRANCH   2  13
ATOM     13  C   UNL     1       4.936   4.582  18.319  0.00  0.00    +0.000 A 
ATOM     14  N   UNL     1       4.973   3.804  19.391  0.00  0.00    +0.000 NA
ATOM     15  C   UNL     1       3.666   3.497  19.683  0.00  0.00    +0.000 A 
ATOM     16  C   UNL     1       3.136   2.720  20.724  0.00  0.00    +0.000 A 
ATOM     17  C   UNL     1       1.746   2.570  20.809  0.00  0.00    +0.000 A 
ATOM     18  C   UNL     1       0.902   3.180  19.877  0.00  0.00    +0.000 A 
ATOM     19  C   UNL     1       1.414   3.956  18.829  0.00  0.00    +0.000 A 
ATOM     20  C   UNL     1       2.802   4.087  18.771  0.00  0.00    +0.000 A 
ATOM     21  N   UNL     1       3.630   4.754  17.912  0.00  0.00    +0.000 N 
ATOM     22  H   UNL     1       3.361   5.313  17.110  0.00  0.00    +0.000 HD
ENDBRANCH   2  13
BRANCH   1  23
ATOM     23  O   UNL     1       7.951   6.545  17.745  0.00  0.00    +0.000 OA
ATOM     24  H   UNL     1       8.012   7.425  18.169  0.00  0.00    +0.000 HD
ENDBRANCH   1  23
TORSDOF 3
ENDMDL
MODEL 8
REMARK VINA RESULT:      -8.3      0.581      6.592
REMARK  Name = 
REMARK  3 active torsions:
REMARK  status: ('A' for Active; 'I' for Inactive)
REMARK    1  A    between atoms: O_1  and  N_2
REMARK    2  A    between atoms: C_3  and  C_4
REMARK    3  A    between atoms: C_3  and  C_13
REMARK                            x       y       z     vdW  Elec       q    Type
REMARK                         _______ _______ _______ _____ _____    ______ ____
ROOT
ATOM      1  N   UNL     1       7.084   5.273  18.816  0.00  0.00    +0.000 NA
ATOM      2  C   UNL     1       6.232   4.753  17.972  0.00  0.00    +0.000 C 
ENDROOT
BRANCH   2   3
ATOM      3  C   UNL     1       6.456   4.577  16.538  0.00  0.00    +0.000 A 
ATOM      4  N   UNL     1       5.818   3.709  15.759  0.00  0.00    +0.000 NA
ATOM      5  C   UNL     1       6.277   3.940  14.483  0.00  0.00    +0.000 A 
ATOM      6  C   UNL     1       5.914   3.331  13.273  0.00  0.00    +0.000 A 
ATOM      7  C   UNL     1       6.510   3.788  12.088  0.00  0.00    +0.000 A 
ATOM      8  C   UNL     1       7.453   4.818  12.112  0.00  0.00    +0.000 A 
ATOM      9  C   UNL     1       7.840   5.423  13.313  0.00  0.00    +0.000 A 
ATOM     10  C   UNL     1       7.222   4.954  14.474  0.00  0.00    +0.000 A 
ATOM     11  N   UNL     1       7.341   5.312  15.786  0.00  0.00    +0.000 N 
ATOM     12  H   UNL     1       7.937   6.031  16.173  0.00  0.00    +0.000 HD
ENDBRANCH   2   3
BRANCH   2  13
ATOM     13  C   UNL     1       4.924   4.336  18.467  0.00  0.00    +0.000 A 
ATOM     14  N   UNL     1       4.172   5.060  19.284  0.00  0.00    +0.000 NA
ATOM     15  C   UNL     1       3.010   4.349  19.462  0.00  0.00    +0.000 A 
ATOM     16  C   UNL     1       1.870   4.664  20.216  0.00  0.00    +0.000 A 
ATOM     17  C   UNL     1       0.799   3.761  20.222  0.00  0.00    +0.000 A 
ATOM     18  C   UNL     1       0.862   2.570  19.494  0.00  0.00    +0.000 A 
ATOM     19  C   UNL     1       1.993   2.239  18.738  0.00  0.00    +0.000 A 
ATOM     20  C   UNL     1       3.044   3.157  18.751  0.00  0.00    +0.000 A 
ATOM     21  N   UNL     1       4.268   3.167  18.144  0.00  0.00    +0.000 N 
ATOM     22  H   UNL     1       4.655   2.458  17.530  0.00  0.00    +0.000 HD
ENDBRANCH   2  13
BRANCH   1  23
ATOM     23  O   UNL     1       8.305   5.675  18.259  0.00  0.00    +0.000 OA
ATOM     24  H   UNL     1       8.871   5.739  19.055  0.00  0.00    +0.000 HD
ENDBRANCH   1  23
TORSDOF 3
ENDMDL
MODEL 9
REMARK VINA RESULT:      -8.3      1.332      6.563
REMARK  Name = 
REMARK  3 active torsions:
REMARK  status: ('A' for Active; 'I' for Inactive)
REMARK    1  A    between atoms: O_1  and  N_2
REMARK    2  A    between atoms: C_3  and  C_4
REMARK    3  A    between atoms: C_3  and  C_13
REMARK                            x       y       z     vdW  Elec       q    Type
REMARK                         _______ _______ _______ _____ _____    ______ ____
ROOT
ATOM      1  N   UNL     1       6.960   6.878  17.931  0.00  0.00    +0.000 NA
ATOM      2  C   UNL     1       6.246   5.897  17.444  0.00  0.00    +0.000 C 
ENDROOT
BRANCH   2   3
ATOM      3  C   UNL     1       6.298   5.411  16.067  0.00  0.00    +0.000 A 
ATOM      4  N   UNL     1       7.299   5.609  15.216  0.00  0.00    +0.000 NA
ATOM      5  C   UNL     1       6.970   4.914  14.076  0.00  0.00    +0.000 A 
ATOM      6  C   UNL     1       7.686   4.754  12.881  0.00  0.00    +0.000 A 
ATOM      7  C   UNL     1       7.137   3.946  11.874  0.00  0.00    +0.000 A 
ATOM      8  C   UNL     1       5.900   3.323  12.050  0.00  0.00    +0.000 A 
ATOM      9  C   UNL     1       5.164   3.487  13.229  0.00  0.00    +0.000 A 
ATOM     10  C   UNL     1       5.740   4.289  14.217  0.00  0.00    +0.000 A 
ATOM     11  N   UNL     1       5.324   4.648  15.466  0.00  0.00    +0.000 N 
ATOM     12  H   UNL     1       4.467   4.376  15.928  0.00  0.00    +0.000 HD
ENDBRANCH   2   3
BRANCH   2  13
ATOM     13  C   UNL     1       5.281   5.236  18.316  0.00  0.00    +0.000 A 
ATOM     14  N   UNL     1       5.359   3.965  18.685  0.00  0.00    +0.000 NA
ATOM     15  C   UNL     1       4.306   3.751  19.540  0.00  0.00    +0.000 A 
ATOM     16  C   UNL     1       3.930   2.589  20.230  0.00  0.00    +0.000 A 
ATOM     17  C   UNL     1       2.805   2.637  21.063  0.00  0.00    +0.000 A 
ATOM     18  C   UNL     1       2.069   3.817  21.204  0.00  0.00    +0.000 A 
ATOM     19  C   UNL     1       2.428   4.985  20.520  0.00  0.00    +0.000 A 
ATOM     20  C   UNL     1       3.553   4.906  19.699  0.00  0.00    +0.000 A 
ATOM     21  N   UNL     1       4.181   5.823  18.904  0.00  0.00    +0.000 N 
ATOM     22  H   UNL     1       3.922   6.794  18.764  0.00  0.00    +0.000 HD
ENDBRANCH   2  13
BRANCH   1  23
ATOM     23  O   UNL     1       7.841   7.481  17.024  0.00  0.00    +0.000 OA
ATOM     24  H   UNL     1       7.952   6.771  16.358  0.00  0.00    +0.000 HD
ENDBRANCH   1  23
TORSDOF 3
ENDMDL
