MODEL 1
REMARK VINA RESULT:      -6.8      0.000      0.000
REMARK  Name = 
REMARK  11 active torsions:
REMARK  status: ('A' for Active; 'I' for Inactive)
REMARK    1  A    between atoms: C_1  and  O_2
REMARK    2  A    between atoms: O_2  and  C_3
REMARK    3  A    between atoms: C_4  and  C_5
REMARK    4  A    between atoms: C_5  and  N_6
REMARK    5  A    between atoms: N_6  and  C_7
REMARK    6  A    between atoms: C_7  and  C_8
REMARK    7  A    between atoms: C_8  and  N_9
REMARK    8  A    between atoms: C_10  and  C_12
REMARK    9  A    between atoms: C_15  and  C_16
REMARK   10  A    between atoms: C_19  and  C_20
REMARK   11  A    between atoms: N_22  and  C_23
REMARK                            x       y       z     vdW  Elec       q    Type
REMARK                         _______ _______ _______ _____ _____    ______ ____
ROOT
ATOM      1  C   UNL     1       3.085   2.353  17.905  0.00  0.00    +0.000 C 
ENDROOT
BRANCH   1   2
ATOM      2  N   UNL     1       4.445   2.778  17.537  0.00  0.00    +0.000 NA
ATOM      3  H   UNL     1       4.798   3.381  18.280  0.00  0.00    +0.000 HD
BRANCH   2   4
ATOM      4  C   UNL     1       4.482   3.519  16.287  0.00  0.00    +0.000 C 
BRANCH   4   6
ATOM      5  C   UNL     1       5.882   5.448  17.214  0.00  0.00    +0.000 A 
ATOM      6  C   UNL     1       5.588   4.518  16.214  0.00  0.00    +0.000 A 
ATOM      7  C   UNL     1       6.515   4.833  15.162  0.00  0.00    +0.000 A 
ATOM      8  C   UNL     1       6.705   4.256  13.802  0.00  0.00    +0.000 C 
ATOM      9  N   UNL     1       7.326   5.838  15.502  0.00  0.00    +0.000 NA
ATOM     10  N   UNL     1       6.904   6.211  16.716  0.00  0.00    +0.000 N 
ATOM     11  C   UNL     1       7.541   7.319  17.385  0.00  0.00    +0.000 C 
BRANCH   5  13
ATOM     12  C   UNL     1       5.950   5.103  19.549  0.00  0.00    +0.000 C 
ATOM     13  O   UNL     1       5.382   5.749  18.420  0.00  0.00    +0.000 OA
ENDBRANCH   5  13
ENDBRANCH   4   6
ENDBRANCH   2   4
ENDBRANCH   1   2
BRANCH   1  14
ATOM     14  C   UNL     1       2.498   3.104  19.118  0.00  0.00    +0.000 C 
BRANCH  14  15
ATOM     15  N   UNL     1       2.341   4.538  18.937  0.00  0.00    +0.000 N 
ATOM     16  C   UNL     1       2.265   5.390  20.018  0.00  0.00    +0.000 C 
ATOM     17  O   UNL     1       2.374   5.022  21.182  0.00  0.00    +0.000 OA
ATOM     18  H   UNL     1       1.842   4.832  18.107  0.00  0.00    +0.000 HD
BRANCH  16  19
ATOM     19  C   UNL     1       1.998   6.824  19.718  0.00  0.00    +0.000 A 
ATOM     20  C   UNL     1       2.293   7.282  18.432  0.00  0.00    +0.000 A 
ATOM     21  C   UNL     1       2.058   8.612  18.083  0.00  0.00    +0.000 A 
ATOM     22  C   UNL     1       1.504   9.498  19.014  0.00  0.00    +0.000 A 
ATOM     23  C   UNL     1       1.259  10.934  18.654  0.00  0.00    +0.000 C 
ATOM     24  C   UNL     1       1.175   9.026  20.293  0.00  0.00    +0.000 A 
ATOM     25  C   UNL     1       1.432   7.701  20.657  0.00  0.00    +0.000 A 
ENDBRANCH  16  19
ENDBRANCH  14  15
ENDBRANCH   1  14
TORSDOF 7
ENDMDL
MODEL 2
REMARK VINA RESULT:      -6.6      3.557      6.682
REMARK  Name = 
REMARK  11 active torsions:
REMARK  status: ('A' for Active; 'I' for Inactive)
REMARK    1  A    between atoms: C_1  and  O_2
REMARK    2  A    between atoms: O_2  and  C_3
REMARK    3  A    between atoms: C_4  and  C_5
REMARK    4  A    between atoms: C_5  and  N_6
REMARK    5  A    between atoms: N_6  and  C_7
REMARK    6  A    between atoms: C_7  and  C_8
REMARK    7  A    between atoms: C_8  and  N_9
REMARK    8  A    between atoms: C_10  and  C_12
REMARK    9  A    between atoms: C_15  and  C_16
REMARK   10  A    between atoms: C_19  and  C_20
REMARK   11  A    between atoms: N_22  and  C_23
REMARK                            x       y       z     vdW  Elec       q    Type
REMARK                         _______ _______ _______ _____ _____    ______ ____
ROOT
ATOM      1  C   UNL     1       7.588   5.703  19.542  0.00  0.00    +0.000 C 
ENDROOT
BRANCH   1   2
ATOM      2  N   UNL     1       6.531   4.760  19.143  0.00  0.00    +0.000 NA
ATOM      3  H   UNL     1       6.710   4.476  18.180  0.00  0.00    +0.000 HD
BRANCH   2   4
ATOM      4  C   UNL     1       5.203   5.348  19.210  0.00  0.00    +0.000 C 
BRANCH   4   6
ATOM      5  C   UNL     1       3.037   3.990  19.236  0.00  0.00    +0.000 A 
ATOM      6  C   UNL     1       4.144   4.515  18.567  0.00  0.00    +0.000 A 
ATOM      7  C   UNL     1       4.023   3.997  17.232  0.00  0.00    +0.000 A 
ATOM      8  C   UNL     1       4.895   4.134  16.033  0.00  0.00    +0.000 C 
ATOM      9  N   UNL     1       2.923   3.254  17.088  0.00  0.00    +0.000 NA
ATOM     10  N   UNL     1       2.371   3.235  18.308  0.00  0.00    +0.000 N 
ATOM     11  C   UNL     1       1.164   2.479  18.534  0.00  0.00    +0.000 C 
BRANCH   5  13
ATOM     12  C   UNL     1       1.867   5.192  20.898  0.00  0.00    +0.000 C 
ATOM     13  O   UNL     1       2.567   4.027  20.491  0.00  0.00    +0.000 OA
ENDBRANCH   5  13
ENDBRANCH   4   6
ENDBRANCH   2   4
ENDBRANCH   1   2
BRANCH   1  14
ATOM     14  C   UNL     1       8.002   6.690  18.430  0.00  0.00    +0.000 C 
BRANCH  14  15
ATOM     15  N   UNL     1       8.563   7.946  18.900  0.00  0.00    +0.000 N 
ATOM     16  C   UNL     1       8.338   9.126  18.223  0.00  0.00    +0.000 C 
ATOM     17  O   UNL     1       7.624   9.215  17.231  0.00  0.00    +0.000 OA
ATOM     18  H   UNL     1       9.441   7.885  19.400  0.00  0.00    +0.000 HD
BRANCH  16  19
ATOM     19  C   UNL     1       9.047  10.332  18.734  0.00  0.00    +0.000 A 
ATOM     20  C   UNL     1       9.135  11.439  17.887  0.00  0.00    +0.000 A 
ATOM     21  C   UNL     1       9.777  12.604  18.308  0.00  0.00    +0.000 A 
ATOM     22  C   UNL     1      10.323  12.682  19.594  0.00  0.00    +0.000 A 
ATOM     23  C   UNL     1      11.027  13.924  20.054  0.00  0.00    +0.000 C 
ATOM     24  C   UNL     1      10.200  11.582  20.456  0.00  0.00    +0.000 A 
ATOM     25  C   UNL     1       9.580  10.403  20.031  0.00  0.00    +0.000 A 
ENDBRANCH  16  19
ENDBRANCH  14  15
ENDBRANCH   1  14
TORSDOF 7
ENDMDL
MODEL 3
REMARK VINA RESULT:      -6.4      3.211      6.718
REMARK  Name = 
REMARK  11 active torsions:
REMARK  status: ('A' for Active; 'I' for Inactive)
REMARK    1  A    between atoms: C_1  and  O_2
REMARK    2  A    between atoms: O_2  and  C_3
REMARK    3  A    between atoms: C_4  and  C_5
REMARK    4  A    between atoms: C_5  and  N_6
REMARK    5  A    between atoms: N_6  and  C_7
REMARK    6  A    between atoms: C_7  and  C_8
REMARK    7  A    between atoms: C_8  and  N_9
REMARK    8  A    between atoms: C_10  and  C_12
REMARK    9  A    between atoms: C_15  and  C_16
REMARK   10  A    between atoms: C_19  and  C_20
REMARK   11  A    between atoms: N_22  and  C_23
REMARK                            x       y       z     vdW  Elec       q    Type
REMARK                         _______ _______ _______ _____ _____    ______ ____
ROOT
ATOM      1  C   UNL     1       6.593   5.498  19.270  0.00  0.00    +0.000 C 
ENDROOT
BRANCH   1   2
ATOM      2  N   UNL     1       5.384   5.976  18.582  0.00  0.00    +0.000 NA
ATOM      3  H   UNL     1       4.919   6.649  19.192  0.00  0.00    +0.000 HD
BRANCH   2   4
ATOM      4  C   UNL     1       4.449   4.904  18.282  0.00  0.00    +0.000 C 
BRANCH   4   6
ATOM      5  C   UNL     1       3.084   3.481  19.910  0.00  0.00    +0.000 A 
ATOM      6  C   UNL     1       3.402   4.710  19.329  0.00  0.00    +0.000 A 
ATOM      7  C   UNL     1       2.462   5.626  19.912  0.00  0.00    +0.000 A 
ATOM      8  C   UNL     1       2.226   7.080  19.692  0.00  0.00    +0.000 C 
ATOM      9  N   UNL     1       1.665   5.020  20.797  0.00  0.00    +0.000 NA
ATOM     10  N   UNL     1       2.033   3.734  20.750  0.00  0.00    +0.000 N 
ATOM     11  C   UNL     1       1.344   2.764  21.565  0.00  0.00    +0.000 C 
BRANCH   5  13
ATOM     12  C   UNL     1       4.760   1.889  20.393  0.00  0.00    +0.000 C 
ATOM     13  O   UNL     1       3.521   2.220  19.787  0.00  0.00    +0.000 OA
ENDBRANCH   5  13
ENDBRANCH   4   6
ENDBRANCH   2   4
ENDBRANCH   1   2
BRANCH   1  14
ATOM     14  C   UNL     1       7.913   5.925  18.594  0.00  0.00    +0.000 C 
BRANCH  14  15
ATOM     15  N   UNL     1       8.341   7.284  18.880  0.00  0.00    +0.000 N 
ATOM     16  C   UNL     1       8.015   8.327  18.040  0.00  0.00    +0.000 C 
ATOM     17  O   UNL     1       7.314   8.203  17.043  0.00  0.00    +0.000 OA
ATOM     18  H   UNL     1       9.211   7.382  19.387  0.00  0.00    +0.000 HD
BRANCH  16  19
ATOM     19  C   UNL     1       8.594   9.658  18.375  0.00  0.00    +0.000 A 
ATOM     20  C   UNL     1       8.297  10.726  17.527  0.00  0.00    +0.000 A 
ATOM     21  C   UNL     1       8.799  12.001  17.789  0.00  0.00    +0.000 A 
ATOM     22  C   UNL     1       9.593  12.226  18.920  0.00  0.00    +0.000 A 
ATOM     23  C   UNL     1      10.150  13.589  19.206  0.00  0.00    +0.000 C 
ATOM     24  C   UNL     1       9.860  11.159  19.790  0.00  0.00    +0.000 A 
ATOM     25  C   UNL     1       9.380   9.874  19.518  0.00  0.00    +0.000 A 
ENDBRANCH  16  19
ENDBRANCH  14  15
ENDBRANCH   1  14
TORSDOF 7
ENDMDL
MODEL 4
REMARK VINA RESULT:      -6.3      3.505      4.926
REMARK  Name = 
REMARK  11 active torsions:
REMARK  status: ('A' for Active; 'I' for Inactive)
REMARK    1  A    between atoms: C_1  and  O_2
REMARK    2  A    between atoms: O_2  and  C_3
REMARK    3  A    between atoms: C_4  and  C_5
REMARK    4  A    between atoms: C_5  and  N_6
REMARK    5  A    between atoms: N_6  and  C_7
REMARK    6  A    between atoms: C_7  and  C_8
REMARK    7  A    between atoms: C_8  and  N_9
REMARK    8  A    between atoms: C_10  and  C_12
REMARK    9  A    between atoms: C_15  and  C_16
REMARK   10  A    between atoms: C_19  and  C_20
REMARK   11  A    between atoms: N_22  and  C_23
REMARK                            x       y       z     vdW  Elec       q    Type
REMARK                         _______ _______ _______ _____ _____    ______ ____
ROOT
ATOM      1  C   UNL     1       2.028   8.160  17.860  0.00  0.00    +0.000 C 
ENDROOT
BRANCH   1   2
ATOM      2  N   UNL     1       3.404   7.715  17.593  0.00  0.00    +0.000 NA
ATOM      3  H   UNL     1       3.516   7.622  16.583  0.00  0.00    +0.000 HD
BRANCH   2   4
ATOM      4  C   UNL     1       3.707   6.433  18.208  0.00  0.00    +0.000 C 
BRANCH   4   6
ATOM      5  C   UNL     1       5.628   5.878  16.614  0.00  0.00    +0.000 A 
ATOM      6  C   UNL     1       4.485   5.512  17.327  0.00  0.00    +0.000 A 
ATOM      7  C   UNL     1       4.250   4.150  16.934  0.00  0.00    +0.000 A 
ATOM      8  C   UNL     1       3.170   3.188  17.289  0.00  0.00    +0.000 C 
ATOM      9  N   UNL     1       5.186   3.712  16.088  0.00  0.00    +0.000 NA
ATOM     10  N   UNL     1       5.975   4.773  15.884  0.00  0.00    +0.000 N 
ATOM     11  C   UNL     1       7.090   4.670  14.976  0.00  0.00    +0.000 C 
BRANCH   5  13
ATOM     12  C   UNL     1       7.326   7.282  17.466  0.00  0.00    +0.000 C 
ATOM     13  O   UNL     1       6.353   6.997  16.473  0.00  0.00    +0.000 OA
ENDBRANCH   5  13
ENDBRANCH   4   6
ENDBRANCH   2   4
ENDBRANCH   1   2
BRANCH   1  14
ATOM     14  C   UNL     1       1.888   9.684  18.060  0.00  0.00    +0.000 C 
BRANCH  14  15
ATOM     15  N   UNL     1       0.554  10.215  17.836  0.00  0.00    +0.000 N 
ATOM     16  C   UNL     1      -0.384  10.240  18.847  0.00  0.00    +0.000 C 
ATOM     17  O   UNL     1      -0.155   9.877  19.995  0.00  0.00    +0.000 OA
ATOM     18  H   UNL     1       0.187  10.124  16.897  0.00  0.00    +0.000 HD
BRANCH  16  19
ATOM     19  C   UNL     1      -1.749  10.708  18.478  0.00  0.00    +0.000 A 
ATOM     20  C   UNL     1      -2.384  10.071  17.409  0.00  0.00    +0.000 A 
ATOM     21  C   UNL     1      -3.668  10.454  17.019  0.00  0.00    +0.000 A 
ATOM     22  C   UNL     1      -4.341  11.469  17.708  0.00  0.00    +0.000 A 
ATOM     23  C   UNL     1      -5.716  11.898  17.290  0.00  0.00    +0.000 C 
ATOM     24  C   UNL     1      -3.715  12.081  18.804  0.00  0.00    +0.000 A 
ATOM     25  C   UNL     1      -2.419  11.718  19.184  0.00  0.00    +0.000 A 
ENDBRANCH  16  19
ENDBRANCH  14  15
ENDBRANCH   1  14
TORSDOF 7
ENDMDL
MODEL 5
REMARK VINA RESULT:      -6.2      2.007      6.784
REMARK  Name = 
REMARK  11 active torsions:
REMARK  status: ('A' for Active; 'I' for Inactive)
REMARK    1  A    between atoms: C_1  and  O_2
REMARK    2  A    between atoms: O_2  and  C_3
REMARK    3  A    between atoms: C_4  and  C_5
REMARK    4  A    between atoms: C_5  and  N_6
REMARK    5  A    between atoms: N_6  and  C_7
REMARK    6  A    between atoms: C_7  and  C_8
REMARK    7  A    between atoms: C_8  and  N_9
REMARK    8  A    between atoms: C_10  and  C_12
REMARK    9  A    between atoms: C_15  and  C_16
REMARK   10  A    between atoms: C_19  and  C_20
REMARK   11  A    between atoms: N_22  and  C_23
REMARK                            x       y       z     vdW  Elec       q    Type
REMARK                         _______ _______ _______ _____ _____    ______ ____
ROOT
ATOM      1  C   UNL     1       7.627   6.014  18.866  0.00  0.00    +0.000 C 
ENDROOT
BRANCH   1   2
ATOM      2  N   UNL     1       6.565   4.995  18.883  0.00  0.00    +0.000 NA
ATOM      3  H   UNL     1       6.291   4.810  17.918  0.00  0.00    +0.000 HD
BRANCH   2   4
ATOM      4  C   UNL     1       5.388   5.424  19.620  0.00  0.00    +0.000 C 
BRANCH   4   6
ATOM      5  C   UNL     1       3.819   3.553  18.863  0.00  0.00    +0.000 A 
ATOM      6  C   UNL     1       4.106   4.905  19.060  0.00  0.00    +0.000 A 
ATOM      7  C   UNL     1       2.953   5.585  18.538  0.00  0.00    +0.000 A 
ATOM      8  C   UNL     1       2.635   7.033  18.399  0.00  0.00    +0.000 C 
ATOM      9  N   UNL     1       2.031   4.727  18.095  0.00  0.00    +0.000 NA
ATOM     10  N   UNL     1       2.587   3.522  18.267  0.00  0.00    +0.000 N 
ATOM     11  C   UNL     1       1.872   2.339  17.854  0.00  0.00    +0.000 C 
BRANCH   5  13
ATOM     12  C   UNL     1       4.567   1.928  20.405  0.00  0.00    +0.000 C 
ATOM     13  O   UNL     1       4.464   2.395  19.069  0.00  0.00    +0.000 OA
ENDBRANCH   5  13
ENDBRANCH   4   6
ENDBRANCH   2   4
ENDBRANCH   1   2
BRANCH   1  14
ATOM     14  C   UNL     1       7.693   6.831  17.558  0.00  0.00    +0.000 C 
BRANCH  14  15
ATOM     15  N   UNL     1       7.544   6.054  16.339  0.00  0.00    +0.000 N 
ATOM     16  C   UNL     1       6.312   5.889  15.744  0.00  0.00    +0.000 C 
ATOM     17  O   UNL     1       5.283   6.413  16.155  0.00  0.00    +0.000 OA
ATOM     18  H   UNL     1       8.203   5.297  16.207  0.00  0.00    +0.000 HD
BRANCH  16  19
ATOM     19  C   UNL     1       6.261   4.988  14.558  0.00  0.00    +0.000 A 
ATOM     20  C   UNL     1       5.142   4.164  14.419  0.00  0.00    +0.000 A 
ATOM     21  C   UNL     1       5.027   3.305  13.326  0.00  0.00    +0.000 A 
ATOM     22  C   UNL     1       6.025   3.273  12.346  0.00  0.00    +0.000 A 
ATOM     23  C   UNL     1       5.919   2.343  11.173  0.00  0.00    +0.000 C 
ATOM     24  C   UNL     1       7.130   4.128  12.470  0.00  0.00    +0.000 A 
ATOM     25  C   UNL     1       7.263   4.974  13.575  0.00  0.00    +0.000 A 
ENDBRANCH  16  19
ENDBRANCH  14  15
ENDBRANCH   1  14
TORSDOF 7
ENDMDL
MODEL 6
REMARK VINA RESULT:      -6.2      3.106      6.278
REMARK  Name = 
REMARK  11 active torsions:
REMARK  status: ('A' for Active; 'I' for Inactive)
REMARK    1  A    between atoms: C_1  and  O_2
REMARK    2  A    between atoms: O_2  and  C_3
REMARK    3  A    between atoms: C_4  and  C_5
REMARK    4  A    between atoms: C_5  and  N_6
REMARK    5  A    between atoms: N_6  and  C_7
REMARK    6  A    between atoms: C_7  and  C_8
REMARK    7  A    between atoms: C_8  and  N_9
REMARK    8  A    between atoms: C_10  and  C_12
REMARK    9  A    between atoms: C_15  and  C_16
REMARK   10  A    between atoms: C_19  and  C_20
REMARK   11  A    between atoms: N_22  and  C_23
REMARK                            x       y       z     vdW  Elec       q    Type
REMARK                         _______ _______ _______ _____ _____    ______ ____
ROOT
ATOM      1  C   UNL     1       6.704   5.380  19.193  0.00  0.00    +0.000 C 
ENDROOT
BRANCH   1   2
ATOM      2  N   UNL     1       6.296   4.100  18.594  0.00  0.00    +0.000 NA
ATOM      3  H   UNL     1       7.025   3.812  17.941  0.00  0.00    +0.000 HD
BRANCH   2   4
ATOM      4  C   UNL     1       5.041   4.197  17.867  0.00  0.00    +0.000 C 
BRANCH   4   6
ATOM      5  C   UNL     1       3.202   4.638  19.588  0.00  0.00    +0.000 A 
ATOM      6  C   UNL     1       4.022   5.057  18.539  0.00  0.00    +0.000 A 
ATOM      7  C   UNL     1       3.582   6.397  18.265  0.00  0.00    +0.000 A 
ATOM      8  C   UNL     1       4.005   7.390  17.240  0.00  0.00    +0.000 C 
ATOM      9  N   UNL     1       2.606   6.776  19.096  0.00  0.00    +0.000 NA
ATOM     10  N   UNL     1       2.373   5.696  19.851  0.00  0.00    +0.000 N 
ATOM     11  C   UNL     1       1.334   5.734  20.851  0.00  0.00    +0.000 C 
BRANCH   5  13
ATOM     12  C   UNL     1       2.321   2.448  19.670  0.00  0.00    +0.000 C 
ATOM     13  O   UNL     1       3.040   3.505  20.286  0.00  0.00    +0.000 OA
ENDBRANCH   5  13
ENDBRANCH   4   6
ENDBRANCH   2   4
ENDBRANCH   1   2
BRANCH   1  14
ATOM     14  C   UNL     1       8.110   5.853  18.769  0.00  0.00    +0.000 C 
BRANCH  14  15
ATOM     15  N   UNL     1       8.383   7.262  19.002  0.00  0.00    +0.000 N 
ATOM     16  C   UNL     1       8.120   8.210  18.036  0.00  0.00    +0.000 C 
ATOM     17  O   UNL     1       7.601   7.953  16.956  0.00  0.00    +0.000 OA
ATOM     18  H   UNL     1       9.150   7.471  19.628  0.00  0.00    +0.000 HD
BRANCH  16  19
ATOM     19  C   UNL     1       8.537   9.606  18.343  0.00  0.00    +0.000 A 
ATOM     20  C   UNL     1       9.297   9.817  19.495  0.00  0.00    +0.000 A 
ATOM     21  C   UNL     1       9.728  11.100  19.834  0.00  0.00    +0.000 A 
ATOM     22  C   UNL     1       9.419  12.188  19.011  0.00  0.00    +0.000 A 
ATOM     23  C   UNL     1       9.865  13.574  19.372  0.00  0.00    +0.000 C 
ATOM     24  C   UNL     1       8.686  11.968  17.835  0.00  0.00    +0.000 A 
ATOM     25  C   UNL     1       8.230  10.689  17.503  0.00  0.00    +0.000 A 
ENDBRANCH  16  19
ENDBRANCH  14  15
ENDBRANCH   1  14
TORSDOF 7
ENDMDL
MODEL 7
REMARK VINA RESULT:      -6.2      3.801      6.592
REMARK  Name = 
REMARK  11 active torsions:
REMARK  status: ('A' for Active; 'I' for Inactive)
REMARK    1  A    between atoms: C_1  and  O_2
REMARK    2  A    between atoms: O_2  and  C_3
REMARK    3  A    between atoms: C_4  and  C_5
REMARK    4  A    between atoms: C_5  and  N_6
REMARK    5  A    between atoms: N_6  and  C_7
REMARK    6  A    between atoms: C_7  and  C_8
REMARK    7  A    between atoms: C_8  and  N_9
REMARK    8  A    between atoms: C_10  and  C_12
REMARK    9  A    between atoms: C_15  and  C_16
REMARK   10  A    between atoms: C_19  and  C_20
REMARK   11  A    between atoms: N_22  and  C_23
REMARK                            x       y       z     vdW  Elec       q    Type
REMARK                         _______ _______ _______ _____ _____    ______ ____
ROOT
ATOM      1  C   UNL     1       7.951   6.012  19.407  0.00  0.00    +0.000 C 
ENDROOT
BRANCH   1   2
ATOM      2  N   UNL     1       7.648   4.683  18.854  0.00  0.00    +0.000 NA
ATOM      3  H   UNL     1       8.407   4.053  19.114  0.00  0.00    +0.000 HD
BRANCH   2   4
ATOM      4  C   UNL     1       7.534   4.691  17.405  0.00  0.00    +0.000 C 
BRANCH   4   6
ATOM      5  C   UNL     1       5.045   4.200  17.728  0.00  0.00    +0.000 A 
ATOM      6  C   UNL     1       6.161   4.377  16.908  0.00  0.00    +0.000 A 
ATOM      7  C   UNL     1       5.668   4.110  15.586  0.00  0.00    +0.000 A 
ATOM      8  C   UNL     1       6.349   4.079  14.261  0.00  0.00    +0.000 C 
ATOM      9  N   UNL     1       4.362   3.831  15.592  0.00  0.00    +0.000 NA
ATOM     10  N   UNL     1       4.022   3.855  16.886  0.00  0.00    +0.000 N 
ATOM     11  C   UNL     1       2.666   3.555  17.274  0.00  0.00    +0.000 C 
BRANCH   5  13
ATOM     12  C   UNL     1       4.267   5.442  19.580  0.00  0.00    +0.000 C 
ATOM     13  O   UNL     1       4.807   4.243  19.047  0.00  0.00    +0.000 OA
ENDBRANCH   5  13
ENDBRANCH   4   6
ENDBRANCH   2   4
ENDBRANCH   1   2
BRANCH   1  14
ATOM     14  C   UNL     1       8.072   7.123  18.342  0.00  0.00    +0.000 C 
BRANCH  14  15
ATOM     15  N   UNL     1       8.721   8.342  18.794  0.00  0.00    +0.000 N 
ATOM     16  C   UNL     1       8.412   9.565  18.239  0.00  0.00    +0.000 C 
ATOM     17  O   UNL     1       7.551   9.723  17.381  0.00  0.00    +0.000 OA
ATOM     18  H   UNL     1       9.667   8.242  19.143  0.00  0.00    +0.000 HD
BRANCH  16  19
ATOM     19  C   UNL     1       9.214  10.730  18.705  0.00  0.00    +0.000 A 
ATOM     20  C   UNL     1       9.668  10.717  20.025  0.00  0.00    +0.000 A 
ATOM     21  C   UNL     1      10.433  11.773  20.522  0.00  0.00    +0.000 A 
ATOM     22  C   UNL     1      10.770  12.849  19.694  0.00  0.00    +0.000 A 
ATOM     23  C   UNL     1      11.580  13.997  20.220  0.00  0.00    +0.000 C 
ATOM     24  C   UNL     1      10.342  12.842  18.358  0.00  0.00    +0.000 A 
ATOM     25  C   UNL     1       9.555  11.799  17.862  0.00  0.00    +0.000 A 
ENDBRANCH  16  19
ENDBRANCH  14  15
ENDBRANCH   1  14
TORSDOF 7
ENDMDL
MODEL 8
REMARK VINA RESULT:      -6.0      3.195      4.843
REMARK  Name = 
REMARK  11 active torsions:
REMARK  status: ('A' for Active; 'I' for Inactive)
REMARK    1  A    between atoms: C_1  and  O_2
REMARK    2  A    between atoms: O_2  and  C_3
REMARK    3  A    between atoms: C_4  and  C_5
REMARK    4  A    between atoms: C_5  and  N_6
REMARK    5  A    between atoms: N_6  and  C_7
REMARK    6  A    between atoms: C_7  and  C_8
REMARK    7  A    between atoms: C_8  and  N_9
REMARK    8  A    between atoms: C_10  and  C_12
REMARK    9  A    between atoms: C_15  and  C_16
REMARK   10  A    between atoms: C_19  and  C_20
REMARK   11  A    between atoms: N_22  and  C_23
REMARK                            x       y       z     vdW  Elec       q    Type
REMARK                         _______ _______ _______ _____ _____    ______ ____
ROOT
ATOM      1  C   UNL     1       2.525   7.551  18.052  0.00  0.00    +0.000 C 
ENDROOT
BRANCH   1   2
ATOM      2  N   UNL     1       2.363   7.080  19.437  0.00  0.00    +0.000 NA
ATOM      3  H   UNL     1       2.575   7.859  20.061  0.00  0.00    +0.000 HD
BRANCH   2   4
ATOM      4  C   UNL     1       3.251   5.976  19.761  0.00  0.00    +0.000 C 
BRANCH   4   6
ATOM      5  C   UNL     1       4.886   5.217  17.948  0.00  0.00    +0.000 A 
ATOM      6  C   UNL     1       3.642   5.153  18.579  0.00  0.00    +0.000 A 
ATOM      7  C   UNL     1       2.895   4.218  17.783  0.00  0.00    +0.000 A 
ATOM      8  C   UNL     1       1.490   3.736  17.880  0.00  0.00    +0.000 C 
ATOM      9  N   UNL     1       3.627   3.728  16.779  0.00  0.00    +0.000 NA
ATOM     10  N   UNL     1       4.799   4.367  16.878  0.00  0.00    +0.000 N 
ATOM     11  C   UNL     1       5.837   4.107  15.911  0.00  0.00    +0.000 C 
BRANCH   5  13
ATOM     12  C   UNL     1       6.871   5.518  19.191  0.00  0.00    +0.000 C 
ATOM     13  O   UNL     1       6.019   5.911  18.127  0.00  0.00    +0.000 OA
ENDBRANCH   5  13
ENDBRANCH   4   6
ENDBRANCH   2   4
ENDBRANCH   1   2
BRANCH   1  14
ATOM     14  C   UNL     1       2.358   9.076  17.883  0.00  0.00    +0.000 C 
BRANCH  14  15
ATOM     15  N   UNL     1       0.995   9.525  17.658  0.00  0.00    +0.000 N 
ATOM     16  C   UNL     1       0.337  10.303  18.588  0.00  0.00    +0.000 C 
ATOM     17  O   UNL     1       0.854  10.709  19.622  0.00  0.00    +0.000 OA
ATOM     18  H   UNL     1       0.410   8.918  17.098  0.00  0.00    +0.000 HD
BRANCH  16  19
ATOM     19  C   UNL     1      -1.091  10.617  18.302  0.00  0.00    +0.000 A 
ATOM     20  C   UNL     1      -1.713   9.918  17.266  0.00  0.00    +0.000 A 
ATOM     21  C   UNL     1      -3.052  10.157  16.953  0.00  0.00    +0.000 A 
ATOM     22  C   UNL     1      -3.792  11.087  17.691  0.00  0.00    +0.000 A 
ATOM     23  C   UNL     1      -5.228  11.363  17.356  0.00  0.00    +0.000 C 
ATOM     24  C   UNL     1      -3.175  11.761  18.755  0.00  0.00    +0.000 A 
ATOM     25  C   UNL     1      -1.827  11.544  19.056  0.00  0.00    +0.000 A 
ENDBRANCH  16  19
ENDBRANCH  14  15
ENDBRANCH   1  14
TORSDOF 7
ENDMDL
MODEL 9
REMARK VINA RESULT:      -6.0      2.285      7.091
REMARK  Name = 
REMARK  11 active torsions:
REMARK  status: ('A' for Active; 'I' for Inactive)
REMARK    1  A    between atoms: C_1  and  O_2
REMARK    2  A    between atoms: O_2  and  C_3
REMARK    3  A    between atoms: C_4  and  C_5
REMARK    4  A    between atoms: C_5  and  N_6
REMARK    5  A    between atoms: N_6  and  C_7
REMARK    6  A    between atoms: C_7  and  C_8
REMARK    7  A    between atoms: C_8  and  N_9
REMARK    8  A    between atoms: C_10  and  C_12
REMARK    9  A    between atoms: C_15  and  C_16
REMARK   10  A    between atoms: C_19  and  C_20
REMARK   11  A    between atoms: N_22  and  C_23
REMARK                            x       y       z     vdW  Elec       q    Type
REMARK                         _______ _______ _______ _____ _____    ______ ____
ROOT
ATOM      1  C   UNL     1       6.902   5.444  19.193  0.00  0.00    +0.000 C 
ENDROOT
BRANCH   1   2
ATOM      2  N   UNL     1       5.546   4.923  18.960  0.00  0.00    +0.000 NA
ATOM      3  H   UNL     1       5.390   4.888  17.953  0.00  0.00    +0.000 HD
BRANCH   2   4
ATOM      4  C   UNL     1       4.516   5.760  19.554  0.00  0.00    +0.000 C 
BRANCH   4   6
ATOM      5  C   UNL     1       2.985   3.714  19.453  0.00  0.00    +0.000 A 
ATOM      6  C   UNL     1       3.222   5.051  19.782  0.00  0.00    +0.000 A 
ATOM      7  C   UNL     1       1.956   5.519  20.273  0.00  0.00    +0.000 A 
ATOM      8  C   UNL     1       1.509   6.859  20.744  0.00  0.00    +0.000 C 
ATOM      9  N   UNL     1       1.038   4.548  20.279  0.00  0.00    +0.000 NA
ATOM     10  N   UNL     1       1.668   3.491  19.751  0.00  0.00    +0.000 N 
ATOM     11  C   UNL     1       0.952   2.252  19.568  0.00  0.00    +0.000 C 
BRANCH   5  13
ATOM     12  C   UNL     1       4.452   1.894  19.786  0.00  0.00    +0.000 C 
ATOM     13  O   UNL     1       3.699   2.718  18.910  0.00  0.00    +0.000 OA
ENDBRANCH   5  13
ENDBRANCH   4   6
ENDBRANCH   2   4
ENDBRANCH   1   2
BRANCH   1  14
ATOM     14  C   UNL     1       7.973   4.850  18.253  0.00  0.00    +0.000 C 
BRANCH  14  15
ATOM     15  N   UNL     1       7.472   4.363  16.978  0.00  0.00    +0.000 N 
ATOM     16  C   UNL     1       7.269   5.219  15.916  0.00  0.00    +0.000 C 
ATOM     17  O   UNL     1       7.539   6.413  15.946  0.00  0.00    +0.000 OA
ATOM     18  H   UNL     1       6.863   3.555  17.016  0.00  0.00    +0.000 HD
BRANCH  16  19
ATOM     19  C   UNL     1       6.654   4.629  14.694  0.00  0.00    +0.000 A 
ATOM     20  C   UNL     1       7.391   4.680  13.510  0.00  0.00    +0.000 A 
ATOM     21  C   UNL     1       6.877   4.137  12.332  0.00  0.00    +0.000 A 
ATOM     22  C   UNL     1       5.623   3.516  12.330  0.00  0.00    +0.000 A 
ATOM     23  C   UNL     1       5.053   2.940  11.068  0.00  0.00    +0.000 C 
ATOM     24  C   UNL     1       4.901   3.435  13.530  0.00  0.00    +0.000 A 
ATOM     25  C   UNL     1       5.400   3.999  14.708  0.00  0.00    +0.000 A 
ENDBRANCH  16  19
ENDBRANCH  14  15
ENDBRANCH   1  14
TORSDOF 7
ENDMDL
