MODEL 1
REMARK VINA RESULT:      -7.8      0.000      0.000
REMARK  Name = 
REMARK  7 active torsions:
REMARK  status: ('A' for Active; 'I' for Inactive)
REMARK    1  A    between atoms: C_1  and  N_2
REMARK    2  A    between atoms: C_8  and  O_9
REMARK    3  A    between atoms: O_9  and  C_10
REMARK    4  A    between atoms: C_10  and  C_12
REMARK    5  A    between atoms: C_12  and  C_13
REMARK    6  A    between atoms: C_12  and  C_14
REMARK    7  A    between atoms: C_12  and  C_20
REMARK                            x       y       z     vdW  Elec       q    Type
REMARK                         _______ _______ _______ _____ _____    ______ ____
ROOT
ATOM      1  C   UNL     1       5.609   5.415  15.718  0.00  0.00    +0.000 C 
ATOM      2  C   UNL     1       4.658   6.580  15.338  0.00  0.00    +0.000 C 
ENDROOT
BRANCH   1   3
ATOM      3  C   UNL     1       6.635   5.841  16.817  0.00  0.00    +0.000 A 
ATOM      4  C   UNL     1       6.983   7.205  16.946  0.00  0.00    +0.000 A 
ATOM      5  C   UNL     1       7.827   7.650  17.966  0.00  0.00    +0.000 A 
ATOM      6  C   UNL     1       8.348   6.747  18.881  0.00  0.00    +0.000 A 
ATOM      7  C   UNL     1       8.038   5.393  18.765  0.00  0.00    +0.000 A 
ATOM      8  C   UNL     1       7.192   4.945  17.745  0.00  0.00    +0.000 A 
ENDBRANCH   1   3
BRANCH   1   9
ATOM      9  C   UNL     1       6.326   5.019  14.388  0.00  0.00    +0.000 A 
ATOM     10  C   UNL     1       7.542   5.617  14.015  0.00  0.00    +0.000 A 
ATOM     11  C   UNL     1       8.184   5.261  12.823  0.00  0.00    +0.000 A 
ATOM     12  C   UNL     1       7.629   4.296  11.985  0.00  0.00    +0.000 A 
ATOM     13  C   UNL     1       6.447   3.665  12.349  0.00  0.00    +0.000 A 
ATOM     14  C   UNL     1       5.815   4.004  13.549  0.00  0.00    +0.000 A 
ENDBRANCH   1   9
BRANCH   1  15
ATOM     15  C   UNL     1       4.786   4.211  16.298  0.00  0.00    +0.000 C 
ATOM     16  O   UNL     1       5.102   3.031  16.183  0.00  0.00    +0.000 OA
BRANCH  15  17
ATOM     17  O   UNL     1       3.673   4.619  16.987  0.00  0.00    +0.000 OA
BRANCH  17  25
ATOM     18  C   UNL     1       2.070   3.025  22.172  0.00  0.00    +0.000 C 
ATOM     19  N   UNL     1       2.129   3.451  20.766  0.00  0.00    +0.000 NA
ATOM     20  C   UNL     1       0.752   3.771  20.300  0.00  0.00    +0.000 C 
ATOM     21  C   UNL     1       0.709   3.178  18.897  0.00  0.00    +0.000 C 
ATOM     22  C   UNL     1       1.430   1.855  19.180  0.00  0.00    +0.000 C 
ATOM     23  C   UNL     1       2.672   2.395  19.861  0.00  0.00    +0.000 C 
ATOM     24  C   UNL     1       3.590   2.946  18.736  0.00  0.00    +0.000 C 
ATOM     25  C   UNL     1       2.840   3.575  17.543  0.00  0.00    +0.000 C 
ATOM     26  C   UNL     1       1.483   4.137  17.958  0.00  0.00    +0.000 C 
ENDBRANCH  17  25
ENDBRANCH  15  17
ENDBRANCH   1  15
TORSDOF 5
ENDMDL
MODEL 2
REMARK VINA RESULT:      -7.8      2.039      4.052
REMARK  Name = 
REMARK  7 active torsions:
REMARK  status: ('A' for Active; 'I' for Inactive)
REMARK    1  A    between atoms: C_1  and  N_2
REMARK    2  A    between atoms: C_8  and  O_9
REMARK    3  A    between atoms: O_9  and  C_10
REMARK    4  A    between atoms: C_10  and  C_12
REMARK    5  A    between atoms: C_12  and  C_13
REMARK    6  A    between atoms: C_12  and  C_14
REMARK    7  A    between atoms: C_12  and  C_20
REMARK                            x       y       z     vdW  Elec       q    Type
REMARK                         _______ _______ _______ _____ _____    ______ ____
ROOT
ATOM      1  C   UNL     1       4.821   6.028  17.299  0.00  0.00    +0.000 C 
ATOM      2  C   UNL     1       4.886   6.164  15.755  0.00  0.00    +0.000 C 
ENDROOT
BRANCH   1   3
ATOM      3  C   UNL     1       3.620   6.827  17.899  0.00  0.00    +0.000 A 
ATOM      4  C   UNL     1       3.207   6.561  19.225  0.00  0.00    +0.000 A 
ATOM      5  C   UNL     1       2.198   7.306  19.839  0.00  0.00    +0.000 A 
ATOM      6  C   UNL     1       1.571   8.332  19.146  0.00  0.00    +0.000 A 
ATOM      7  C   UNL     1       1.945   8.603  17.830  0.00  0.00    +0.000 A 
ATOM      8  C   UNL     1       2.957   7.858  17.214  0.00  0.00    +0.000 A 
ENDBRANCH   1   3
BRANCH   1   9
ATOM      9  C   UNL     1       6.189   6.574  17.818  0.00  0.00    +0.000 A 
ATOM     10  C   UNL     1       6.951   5.851  18.750  0.00  0.00    +0.000 A 
ATOM     11  C   UNL     1       8.177   6.341  19.215  0.00  0.00    +0.000 A 
ATOM     12  C   UNL     1       8.670   7.559  18.751  0.00  0.00    +0.000 A 
ATOM     13  C   UNL     1       7.952   8.276  17.802  0.00  0.00    +0.000 A 
ATOM     14  C   UNL     1       6.738   7.778  17.322  0.00  0.00    +0.000 A 
ENDBRANCH   1   9
BRANCH   1  15
ATOM     15  C   UNL     1       4.622   4.524  17.702  0.00  0.00    +0.000 C 
ATOM     16  O   UNL     1       5.040   4.020  18.740  0.00  0.00    +0.000 OA
BRANCH  15  17
ATOM     17  O   UNL     1       3.892   3.824  16.777  0.00  0.00    +0.000 OA
BRANCH  17  25
ATOM     18  C   UNL     1       1.775   2.505  21.853  0.00  0.00    +0.000 C 
ATOM     19  N   UNL     1       1.999   3.001  20.487  0.00  0.00    +0.000 NA
ATOM     20  C   UNL     1       0.855   3.867  20.094  0.00  0.00    +0.000 C 
ATOM     21  C   UNL     1       0.593   3.467  18.647  0.00  0.00    +0.000 C 
ATOM     22  C   UNL     1       0.746   1.948  18.793  0.00  0.00    +0.000 C 
ATOM     23  C   UNL     1       2.098   1.905  19.479  0.00  0.00    +0.000 C 
ATOM     24  C   UNL     1       3.162   2.160  18.378  0.00  0.00    +0.000 C 
ATOM     25  C   UNL     1       2.718   3.136  17.267  0.00  0.00    +0.000 C 
ATOM     26  C   UNL     1       1.681   4.135  17.770  0.00  0.00    +0.000 C 
ENDBRANCH  17  25
ENDBRANCH  15  17
ENDBRANCH   1  15
TORSDOF 5
ENDMDL
MODEL 3
REMARK VINA RESULT:      -7.6      0.986      1.202
REMARK  Name = 
REMARK  7 active torsions:
REMARK  status: ('A' for Active; 'I' for Inactive)
REMARK    1  A    between atoms: C_1  and  N_2
REMARK    2  A    between atoms: C_8  and  O_9
REMARK    3  A    between atoms: O_9  and  C_10
REMARK    4  A    between atoms: C_10  and  C_12
REMARK    5  A    between atoms: C_12  and  C_13
REMARK    6  A    between atoms: C_12  and  C_14
REMARK    7  A    between atoms: C_12  and  C_20
REMARK                            x       y       z     vdW  Elec       q    Type
REMARK                         _______ _______ _______ _____ _____    ______ ____
ROOT
ATOM      1  C   UNL     1       5.422   5.678  16.725  0.00  0.00    +0.000 C 
ATOM      2  C   UNL     1       4.247   6.637  16.404  0.00  0.00    +0.000 C 
ENDROOT
BRANCH   1   3
ATOM      3  C   UNL     1       6.600   6.422  17.432  0.00  0.00    +0.000 A 
ATOM      4  C   UNL     1       6.861   7.772  17.103  0.00  0.00    +0.000 A 
ATOM      5  C   UNL     1       7.844   8.508  17.768  0.00  0.00    +0.000 A 
ATOM      6  C   UNL     1       8.596   7.918  18.774  0.00  0.00    +0.000 A 
ATOM      7  C   UNL     1       8.373   6.581  19.104  0.00  0.00    +0.000 A 
ATOM      8  C   UNL     1       7.387   5.842  18.440  0.00  0.00    +0.000 A 
ENDBRANCH   1   3
BRANCH   1   9
ATOM      9  C   UNL     1       5.862   5.091  15.346  0.00  0.00    +0.000 A 
ATOM     10  C   UNL     1       7.205   5.131  14.937  0.00  0.00    +0.000 A 
ATOM     11  C   UNL     1       7.598   4.604  13.700  0.00  0.00    +0.000 A 
ATOM     12  C   UNL     1       6.659   4.021  12.852  0.00  0.00    +0.000 A 
ATOM     13  C   UNL     1       5.330   3.937  13.250  0.00  0.00    +0.000 A 
ATOM     14  C   UNL     1       4.940   4.444  14.492  0.00  0.00    +0.000 A 
ENDBRANCH   1   9
BRANCH   1  15
ATOM     15  C   UNL     1       4.944   4.542  17.697  0.00  0.00    +0.000 C 
ATOM     16  O   UNL     1       4.952   4.624  18.922  0.00  0.00    +0.000 OA
BRANCH  15  17
ATOM     17  O   UNL     1       4.478   3.440  17.029  0.00  0.00    +0.000 OA
BRANCH  17  25
ATOM     18  C   UNL     1       1.613   2.660  21.843  0.00  0.00    +0.000 C 
ATOM     19  N   UNL     1       2.071   3.068  20.506  0.00  0.00    +0.000 NA
ATOM     20  C   UNL     1       1.145   4.106  19.975  0.00  0.00    +0.000 C 
ATOM     21  C   UNL     1       0.980   3.712  18.512  0.00  0.00    +0.000 C 
ATOM     22  C   UNL     1       0.849   2.195  18.691  0.00  0.00    +0.000 C 
ATOM     23  C   UNL     1       2.088   1.941  19.528  0.00  0.00    +0.000 C 
ATOM     24  C   UNL     1       3.296   1.976  18.553  0.00  0.00    +0.000 C 
ATOM     25  C   UNL     1       3.155   2.979  17.388  0.00  0.00    +0.000 C 
ATOM     26  C   UNL     1       2.258   4.157  17.758  0.00  0.00    +0.000 C 
ENDBRANCH  17  25
ENDBRANCH  15  17
ENDBRANCH   1  15
TORSDOF 5
ENDMDL
MODEL 4
REMARK VINA RESULT:      -7.5      3.819      5.714
REMARK  Name = 
REMARK  7 active torsions:
REMARK  status: ('A' for Active; 'I' for Inactive)
REMARK    1  A    between atoms: C_1  and  N_2
REMARK    2  A    between atoms: C_8  and  O_9
REMARK    3  A    between atoms: O_9  and  C_10
REMARK    4  A    between atoms: C_10  and  C_12
REMARK    5  A    between atoms: C_12  and  C_13
REMARK    6  A    between atoms: C_12  and  C_14
REMARK    7  A    between atoms: C_12  and  C_20
REMARK                            x       y       z     vdW  Elec       q    Type
REMARK                         _______ _______ _______ _____ _____    ______ ____
ROOT
ATOM      1  C   UNL     1       4.223   5.419  18.105  0.00  0.00    +0.000 C 
ATOM      2  C   UNL     1       5.141   5.540  19.349  0.00  0.00    +0.000 C 
ENDROOT
BRANCH   1   3
ATOM      3  C   UNL     1       3.133   4.317  18.295  0.00  0.00    +0.000 A 
ATOM      4  C   UNL     1       3.450   3.150  19.028  0.00  0.00    +0.000 A 
ATOM      5  C   UNL     1       2.488   2.175  19.301  0.00  0.00    +0.000 A 
ATOM      6  C   UNL     1       1.186   2.335  18.848  0.00  0.00    +0.000 A 
ATOM      7  C   UNL     1       0.851   3.467  18.105  0.00  0.00    +0.000 A 
ATOM      8  C   UNL     1       1.813   4.445  17.832  0.00  0.00    +0.000 A 
ENDBRANCH   1   3
BRANCH   1   9
ATOM      9  C   UNL     1       5.182   5.078  16.920  0.00  0.00    +0.000 A 
ATOM     10  C   UNL     1       6.557   5.355  16.998  0.00  0.00    +0.000 A 
ATOM     11  C   UNL     1       7.416   5.049  15.935  0.00  0.00    +0.000 A 
ATOM     12  C   UNL     1       6.919   4.452  14.778  0.00  0.00    +0.000 A 
ATOM     13  C   UNL     1       5.570   4.135  14.691  0.00  0.00    +0.000 A 
ATOM     14  C   UNL     1       4.715   4.422  15.758  0.00  0.00    +0.000 A 
ENDBRANCH   1   9
BRANCH   1  15
ATOM     15  C   UNL     1       3.471   6.773  17.852  0.00  0.00    +0.000 C 
ATOM     16  O   UNL     1       3.736   7.559  16.947  0.00  0.00    +0.000 OA
BRANCH  15  17
ATOM     17  O   UNL     1       2.448   6.979  18.740  0.00  0.00    +0.000 OA
BRANCH  17  25
ATOM     18  C   UNL     1      -1.820  10.689  18.584  0.00  0.00    +0.000 C 
ATOM     19  N   UNL     1      -0.722   9.795  18.981  0.00  0.00    +0.000 NA
ATOM     20  C   UNL     1      -0.662   9.732  20.467  0.00  0.00    +0.000 C 
ATOM     21  C   UNL     1       0.832   9.776  20.760  0.00  0.00    +0.000 C 
ATOM     22  C   UNL     1       1.239  10.853  19.747  0.00  0.00    +0.000 C 
ATOM     23  C   UNL     1       0.612  10.262  18.499  0.00  0.00    +0.000 C 
ATOM     24  C   UNL     1       1.548   9.114  18.034  0.00  0.00    +0.000 C 
ATOM     25  C   UNL     1       2.237   8.341  19.179  0.00  0.00    +0.000 C 
ATOM     26  C   UNL     1       1.412   8.371  20.462  0.00  0.00    +0.000 C 
ENDBRANCH  17  25
ENDBRANCH  15  17
ENDBRANCH   1  15
TORSDOF 5
ENDMDL
MODEL 5
REMARK VINA RESULT:      -7.5      3.833      5.691
REMARK  Name = 
REMARK  7 active torsions:
REMARK  status: ('A' for Active; 'I' for Inactive)
REMARK    1  A    between atoms: C_1  and  N_2
REMARK    2  A    between atoms: C_8  and  O_9
REMARK    3  A    between atoms: O_9  and  C_10
REMARK    4  A    between atoms: C_10  and  C_12
REMARK    5  A    between atoms: C_12  and  C_13
REMARK    6  A    between atoms: C_12  and  C_14
REMARK    7  A    between atoms: C_12  and  C_20
REMARK                            x       y       z     vdW  Elec       q    Type
REMARK                         _______ _______ _______ _____ _____    ______ ____
ROOT
ATOM      1  C   UNL     1       4.399   5.431  18.115  0.00  0.00    +0.000 C 
ATOM      2  C   UNL     1       5.369   5.495  19.324  0.00  0.00    +0.000 C 
ENDROOT
BRANCH   1   3
ATOM      3  C   UNL     1       3.281   4.361  18.327  0.00  0.00    +0.000 A 
ATOM      4  C   UNL     1       3.563   3.210  19.099  0.00  0.00    +0.000 A 
ATOM      5  C   UNL     1       2.575   2.267  19.391  0.00  0.00    +0.000 A 
ATOM      6  C   UNL     1       1.282   2.444  18.919  0.00  0.00    +0.000 A 
ATOM      7  C   UNL     1       0.981   3.559  18.138  0.00  0.00    +0.000 A 
ATOM      8  C   UNL     1       1.969   4.506  17.845  0.00  0.00    +0.000 A 
ENDBRANCH   1   3
BRANCH   1   9
ATOM      9  C   UNL     1       5.296   5.086  16.885  0.00  0.00    +0.000 A 
ATOM     10  C   UNL     1       4.787   4.354  15.799  0.00  0.00    +0.000 A 
ATOM     11  C   UNL     1       5.592   4.044  14.697  0.00  0.00    +0.000 A 
ATOM     12  C   UNL     1       6.920   4.467  14.653  0.00  0.00    +0.000 A 
ATOM     13  C   UNL     1       7.436   5.223  15.698  0.00  0.00    +0.000 A 
ATOM     14  C   UNL     1       6.628   5.549  16.790  0.00  0.00    +0.000 A 
ENDBRANCH   1   9
BRANCH   1  15
ATOM     15  C   UNL     1       3.682   6.815  17.923  0.00  0.00    +0.000 C 
ATOM     16  O   UNL     1       3.588   7.407  16.852  0.00  0.00    +0.000 OA
BRANCH  15  17
ATOM     17  O   UNL     1       3.134   7.289  19.086  0.00  0.00    +0.000 OA
BRANCH  17  25
ATOM     18  C   UNL     1       0.715  11.940  21.209  0.00  0.00    +0.000 C 
ATOM     19  N   UNL     1       1.248  10.880  20.340  0.00  0.00    +0.000 NA
ATOM     20  C   UNL     1       1.162  11.328  18.923  0.00  0.00    +0.000 C 
ATOM     21  C   UNL     1       0.698  10.077  18.187  0.00  0.00    +0.000 C 
ATOM     22  C   UNL     1      -0.355   9.591  19.191  0.00  0.00    +0.000 C 
ATOM     23  C   UNL     1       0.488   9.600  20.451  0.00  0.00    +0.000 C 
ATOM     24  C   UNL     1       1.384   8.333  20.395  0.00  0.00    +0.000 C 
ATOM     25  C   UNL     1       1.843   7.932  18.976  0.00  0.00    +0.000 C 
ATOM     26  C   UNL     1       1.921   9.136  18.043  0.00  0.00    +0.000 C 
ENDBRANCH  17  25
ENDBRANCH  15  17
ENDBRANCH   1  15
TORSDOF 5
ENDMDL
MODEL 6
REMARK VINA RESULT:      -7.4      3.839      5.543
REMARK  Name = 
REMARK  7 active torsions:
REMARK  status: ('A' for Active; 'I' for Inactive)
REMARK    1  A    between atoms: C_1  and  N_2
REMARK    2  A    between atoms: C_8  and  O_9
REMARK    3  A    between atoms: O_9  and  C_10
REMARK    4  A    between atoms: C_10  and  C_12
REMARK    5  A    between atoms: C_12  and  C_13
REMARK    6  A    between atoms: C_12  and  C_14
REMARK    7  A    between atoms: C_12  and  C_20
REMARK                            x       y       z     vdW  Elec       q    Type
REMARK                         _______ _______ _______ _____ _____    ______ ____
ROOT
ATOM      1  C   UNL     1       4.459   5.487  18.158  0.00  0.00    +0.000 C 
ATOM      2  C   UNL     1       5.478   5.565  19.324  0.00  0.00    +0.000 C 
ENDROOT
BRANCH   1   3
ATOM      3  C   UNL     1       3.340   4.434  18.437  0.00  0.00    +0.000 A 
ATOM      4  C   UNL     1       2.077   4.588  17.820  0.00  0.00    +0.000 A 
ATOM      5  C   UNL     1       1.071   3.630  17.967  0.00  0.00    +0.000 A 
ATOM      6  C   UNL     1       1.297   2.495  18.733  0.00  0.00    +0.000 A 
ATOM      7  C   UNL     1       2.527   2.328  19.368  0.00  0.00    +0.000 A 
ATOM      8  C   UNL     1       3.536   3.286  19.222  0.00  0.00    +0.000 A 
ENDBRANCH   1   3
BRANCH   1   9
ATOM      9  C   UNL     1       5.303   5.107  16.900  0.00  0.00    +0.000 A 
ATOM     10  C   UNL     1       6.652   5.483  16.792  0.00  0.00    +0.000 A 
ATOM     11  C   UNL     1       7.408   5.142  15.664  0.00  0.00    +0.000 A 
ATOM     12  C   UNL     1       6.833   4.412  14.626  0.00  0.00    +0.000 A 
ATOM     13  C   UNL     1       5.511   3.997  14.725  0.00  0.00    +0.000 A 
ATOM     14  C   UNL     1       4.761   4.320  15.859  0.00  0.00    +0.000 A 
ENDBRANCH   1   9
BRANCH   1  15
ATOM     15  C   UNL     1       3.749   6.874  17.965  0.00  0.00    +0.000 C 
ATOM     16  O   UNL     1       3.675   7.477  16.899  0.00  0.00    +0.000 OA
BRANCH  15  17
ATOM     17  O   UNL     1       3.181   7.339  19.123  0.00  0.00    +0.000 OA
BRANCH  17  25
ATOM     18  C   UNL     1       0.605  11.923  21.209  0.00  0.00    +0.000 C 
ATOM     19  N   UNL     1       1.176  10.875  20.348  0.00  0.00    +0.000 NA
ATOM     20  C   UNL     1       1.084  11.313  18.929  0.00  0.00    +0.000 C 
ATOM     21  C   UNL     1       0.664  10.044  18.197  0.00  0.00    +0.000 C 
ATOM     22  C   UNL     1      -0.379   9.531  19.197  0.00  0.00    +0.000 C 
ATOM     23  C   UNL     1       0.457   9.573  20.462  0.00  0.00    +0.000 C 
ATOM     24  C   UNL     1       1.392   8.334  20.417  0.00  0.00    +0.000 C 
ATOM     25  C   UNL     1       1.871   7.940  19.003  0.00  0.00    +0.000 C 
ATOM     26  C   UNL     1       1.916   9.142  18.063  0.00  0.00    +0.000 C 
ENDBRANCH  17  25
ENDBRANCH  15  17
ENDBRANCH   1  15
TORSDOF 5
ENDMDL
MODEL 7
REMARK VINA RESULT:      -7.4      6.042      8.188
REMARK  Name = 
REMARK  7 active torsions:
REMARK  status: ('A' for Active; 'I' for Inactive)
REMARK    1  A    between atoms: C_1  and  N_2
REMARK    2  A    between atoms: C_8  and  O_9
REMARK    3  A    between atoms: O_9  and  C_10
REMARK    4  A    between atoms: C_10  and  C_12
REMARK    5  A    between atoms: C_12  and  C_13
REMARK    6  A    between atoms: C_12  and  C_14
REMARK    7  A    between atoms: C_12  and  C_20
REMARK                            x       y       z     vdW  Elec       q    Type
REMARK                         _______ _______ _______ _____ _____    ______ ____
ROOT
ATOM      1  C   UNL     1       0.648  10.466  19.317  0.00  0.00    +0.000 C 
ATOM      2  C   UNL     1       0.380   9.858  20.718  0.00  0.00    +0.000 C 
ENDROOT
BRANCH   1   3
ATOM      3  C   UNL     1       1.348  11.859  19.414  0.00  0.00    +0.000 A 
ATOM      4  C   UNL     1       1.534  12.452  20.684  0.00  0.00    +0.000 A 
ATOM      5  C   UNL     1       2.231  13.653  20.834  0.00  0.00    +0.000 A 
ATOM      6  C   UNL     1       2.757  14.296  19.723  0.00  0.00    +0.000 A 
ATOM      7  C   UNL     1       2.570  13.744  18.456  0.00  0.00    +0.000 A 
ATOM      8  C   UNL     1       1.874  12.540  18.304  0.00  0.00    +0.000 A 
ENDBRANCH   1   3
BRANCH   1   9
ATOM      9  C   UNL     1      -0.757  10.577  18.643  0.00  0.00    +0.000 A 
ATOM     10  C   UNL     1      -1.682  11.552  19.053  0.00  0.00    +0.000 A 
ATOM     11  C   UNL     1      -2.941  11.651  18.449  0.00  0.00    +0.000 A 
ATOM     12  C   UNL     1      -3.297  10.785  17.417  0.00  0.00    +0.000 A 
ATOM     13  C   UNL     1      -2.386   9.836  16.969  0.00  0.00    +0.000 A 
ATOM     14  C   UNL     1      -1.122   9.749  17.558  0.00  0.00    +0.000 A 
ENDBRANCH   1   9
BRANCH   1  15
ATOM     15  C   UNL     1       1.598   9.528  18.492  0.00  0.00    +0.000 C 
ATOM     16  O   UNL     1       1.874   9.684  17.306  0.00  0.00    +0.000 OA
BRANCH  15  17
ATOM     17  O   UNL     1       2.126   8.517  19.252  0.00  0.00    +0.000 OA
BRANCH  17  25
ATOM     18  C   UNL     1       6.172   4.648  18.439  0.00  0.00    +0.000 C 
ATOM     19  N   UNL     1       4.946   5.374  18.802  0.00  0.00    +0.000 NA
ATOM     20  C   UNL     1       4.092   4.490  19.641  0.00  0.00    +0.000 C 
ATOM     21  C   UNL     1       2.688   4.751  19.110  0.00  0.00    +0.000 C 
ATOM     22  C   UNL     1       3.005   4.773  17.610  0.00  0.00    +0.000 C 
ATOM     23  C   UNL     1       4.137   5.781  17.615  0.00  0.00    +0.000 C 
ATOM     24  C   UNL     1       3.483   7.182  17.754  0.00  0.00    +0.000 C 
ATOM     25  C   UNL     1       2.210   7.215  18.626  0.00  0.00    +0.000 C 
ATOM     26  C   UNL     1       2.215   6.112  19.680  0.00  0.00    +0.000 C 
ENDBRANCH  17  25
ENDBRANCH  15  17
ENDBRANCH   1  15
TORSDOF 5
ENDMDL
MODEL 8
REMARK VINA RESULT:      -7.3      6.330      8.430
REMARK  Name = 
REMARK  7 active torsions:
REMARK  status: ('A' for Active; 'I' for Inactive)
REMARK    1  A    between atoms: C_1  and  N_2
REMARK    2  A    between atoms: C_8  and  O_9
REMARK    3  A    between atoms: O_9  and  C_10
REMARK    4  A    between atoms: C_10  and  C_12
REMARK    5  A    between atoms: C_12  and  C_13
REMARK    6  A    between atoms: C_12  and  C_14
REMARK    7  A    between atoms: C_12  and  C_20
REMARK                            x       y       z     vdW  Elec       q    Type
REMARK                         _______ _______ _______ _____ _____    ______ ____
ROOT
ATOM      1  C   UNL     1       0.128  10.692  19.465  0.00  0.00    +0.000 C 
ATOM      2  C   UNL     1      -0.303  10.180  20.864  0.00  0.00    +0.000 C 
ENDROOT
BRANCH   1   3
ATOM      3  C   UNL     1       0.781  12.108  19.543  0.00  0.00    +0.000 A 
ATOM      4  C   UNL     1       1.511  12.470  20.700  0.00  0.00    +0.000 A 
ATOM      5  C   UNL     1       2.187  13.689  20.784  0.00  0.00    +0.000 A 
ATOM      6  C   UNL     1       2.152  14.580  19.722  0.00  0.00    +0.000 A 
ATOM      7  C   UNL     1       1.423  14.258  18.578  0.00  0.00    +0.000 A 
ATOM      8  C   UNL     1       0.746  13.037  18.490  0.00  0.00    +0.000 A 
ENDBRANCH   1   3
BRANCH   1   9
ATOM      9  C   UNL     1      -1.181  10.712  18.614  0.00  0.00    +0.000 A 
ATOM     10  C   UNL     1      -2.276  11.511  18.986  0.00  0.00    +0.000 A 
ATOM     11  C   UNL     1      -3.449  11.529  18.223  0.00  0.00    +0.000 A 
ATOM     12  C   UNL     1      -3.549  10.755  17.068  0.00  0.00    +0.000 A 
ATOM     13  C   UNL     1      -2.468   9.985  16.658  0.00  0.00    +0.000 A 
ATOM     14  C   UNL     1      -1.289   9.982  17.409  0.00  0.00    +0.000 A 
ENDBRANCH   1   9
BRANCH   1  15
ATOM     15  C   UNL     1       1.195   9.725  18.839  0.00  0.00    +0.000 C 
ATOM     16  O   UNL     1       2.092  10.076  18.079  0.00  0.00    +0.000 OA
BRANCH  15  17
ATOM     17  O   UNL     1       1.041   8.430  19.261  0.00  0.00    +0.000 OA
BRANCH  17  25
ATOM     18  C   UNL     1       2.143   2.886  19.463  0.00  0.00    +0.000 C 
ATOM     19  N   UNL     1       2.059   4.311  19.110  0.00  0.00    +0.000 NA
ATOM     20  C   UNL     1       2.663   4.511  17.764  0.00  0.00    +0.000 C 
ATOM     21  C   UNL     1       3.454   5.803  17.923  0.00  0.00    +0.000 C 
ATOM     22  C   UNL     1       4.060   5.538  19.307  0.00  0.00    +0.000 C 
ATOM     23  C   UNL     1       2.794   5.192  20.065  0.00  0.00    +0.000 C 
ATOM     24  C   UNL     1       2.073   6.534  20.360  0.00  0.00    +0.000 C 
ATOM     25  C   UNL     1       2.230   7.605  19.260  0.00  0.00    +0.000 C 
ATOM     26  C   UNL     1       2.447   6.980  17.885  0.00  0.00    +0.000 C 
ENDBRANCH  17  25
ENDBRANCH  15  17
ENDBRANCH   1  15
TORSDOF 5
ENDMDL
MODEL 9
REMARK VINA RESULT:      -7.3      6.110      9.236
REMARK  Name = 
REMARK  7 active torsions:
REMARK  status: ('A' for Active; 'I' for Inactive)
REMARK    1  A    between atoms: C_1  and  N_2
REMARK    2  A    between atoms: C_8  and  O_9
REMARK    3  A    between atoms: O_9  and  C_10
REMARK    4  A    between atoms: C_10  and  C_12
REMARK    5  A    between atoms: C_12  and  C_13
REMARK    6  A    between atoms: C_12  and  C_14
REMARK    7  A    between atoms: C_12  and  C_20
REMARK                            x       y       z     vdW  Elec       q    Type
REMARK                         _______ _______ _______ _____ _____    ______ ____
ROOT
ATOM      1  C   UNL     1      -0.038  11.092  19.103  0.00  0.00    +0.000 C 
ATOM      2  C   UNL     1       0.387  12.582  19.037  0.00  0.00    +0.000 C 
ENDROOT
BRANCH   1   3
ATOM      3  C   UNL     1      -1.285  10.806  18.207  0.00  0.00    +0.000 A 
ATOM      4  C   UNL     1      -2.449  11.592  18.372  0.00  0.00    +0.000 A 
ATOM      5  C   UNL     1      -3.560  11.436  17.540  0.00  0.00    +0.000 A 
ATOM      6  C   UNL     1      -3.541  10.491  16.524  0.00  0.00    +0.000 A 
ATOM      7  C   UNL     1      -2.414   9.688  16.352  0.00  0.00    +0.000 A 
ATOM      8  C   UNL     1      -1.300   9.844  17.184  0.00  0.00    +0.000 A 
ENDBRANCH   1   3
BRANCH   1   9
ATOM      9  C   UNL     1      -0.340  10.817  20.610  0.00  0.00    +0.000 A 
ATOM     10  C   UNL     1      -0.251   9.520  21.142  0.00  0.00    +0.000 A 
ATOM     11  C   UNL     1      -0.522   9.274  22.493  0.00  0.00    +0.000 A 
ATOM     12  C   UNL     1      -0.880  10.320  23.342  0.00  0.00    +0.000 A 
ATOM     13  C   UNL     1      -0.940  11.617  22.848  0.00  0.00    +0.000 A 
ATOM     14  C   UNL     1      -0.651  11.867  21.504  0.00  0.00    +0.000 A 
ENDBRANCH   1   9
BRANCH   1  15
ATOM     15  C   UNL     1       1.124  10.174  18.582  0.00  0.00    +0.000 C 
ATOM     16  O   UNL     1       2.115  10.578  17.982  0.00  0.00    +0.000 OA
BRANCH  15  17
ATOM     17  O   UNL     1       0.933   8.854  18.899  0.00  0.00    +0.000 OA
BRANCH  17  25
ATOM     18  C   UNL     1       2.018   3.361  19.699  0.00  0.00    +0.000 C 
ATOM     19  N   UNL     1       1.929   4.737  19.188  0.00  0.00    +0.000 NA
ATOM     20  C   UNL     1       2.494   4.779  17.812  0.00  0.00    +0.000 C 
ATOM     21  C   UNL     1       3.295   6.075  17.800  0.00  0.00    +0.000 C 
ATOM     22  C   UNL     1       3.941   5.964  19.186  0.00  0.00    +0.000 C 
ATOM     23  C   UNL     1       2.695   5.715  20.015  0.00  0.00    +0.000 C 
ATOM     24  C   UNL     1       1.989   7.088  20.177  0.00  0.00    +0.000 C 
ATOM     25  C   UNL     1       2.117   8.026  18.957  0.00  0.00    +0.000 C 
ATOM     26  C   UNL     1       2.291   7.246  17.657  0.00  0.00    +0.000 C 
ENDBRANCH  17  25
ENDBRANCH  15  17
ENDBRANCH   1  15
TORSDOF 5
ENDMDL
