MODEL 1
REMARK VINA RESULT:      -7.0      0.000      0.000
REMARK  Name = 
REMARK  3 active torsions:
REMARK  status: ('A' for Active; 'I' for Inactive)
REMARK    1  A    between atoms: N_5  and  C_6
REMARK    2  A    between atoms: C_9  and  C_10
REMARK    3  A    between atoms: C_10  and  O_11
REMARK                            x       y       z     vdW  Elec       q    Type
REMARK                         _______ _______ _______ _____ _____    ______ ____
ROOT
ATOM      1  O   UNL     1       7.720   5.332  14.121  0.00  0.00    +0.000 OA
ATOM      2  C   UNL     1       7.098   4.953  15.106  0.00  0.00    +0.000 A 
ATOM      3  C   UNL     1       5.668   4.628  15.021  0.00  0.00    +0.000 A 
ATOM      4  C   UNL     1       5.012   4.313  16.139  0.00  0.00    +0.000 A 
ATOM      5  N   UNL     1       5.623   4.314  17.381  0.00  0.00    +0.000 N 
ATOM      6  C   UNL     1       7.000   4.504  17.498  0.00  0.00    +0.000 A 
ATOM      7  O   UNL     1       7.615   4.432  18.558  0.00  0.00    +0.000 OA
ATOM      8  N   UNL     1       7.664   4.795  16.334  0.00  0.00    +0.000 N 
ATOM      9  H   UNL     1       8.650   4.989  16.411  0.00  0.00    +0.000 HD
ENDROOT
BRANCH   5  10
ATOM     10  C   UNL     1       4.887   4.022  18.624  0.00  0.00    +0.000 C 
ATOM     11  C   UNL     1       4.249   5.245  19.306  0.00  0.00    +0.000 C 
ATOM     12  S   UNL     1       2.612   5.389  18.573  0.00  0.00    +0.000 S 
ATOM     13  C   UNL     1       2.638   3.669  18.013  0.00  0.00    +0.000 C 
ATOM     14  O   UNL     1       3.854   3.034  18.430  0.00  0.00    +0.000 OA
BRANCH  13  15
ATOM     15  C   UNL     1       1.419   2.896  18.534  0.00  0.00    +0.000 C 
BRANCH  15  16
ATOM     16  O   UNL     1       1.689   1.499  18.647  0.00  0.00    +0.000 OA
ATOM     17  H   UNL     1       0.829   1.042  18.564  0.00  0.00    +0.000 HD
ENDBRANCH  15  16
ENDBRANCH  13  15
ENDBRANCH   5  10
TORSDOF 3
ENDMDL
MODEL 2
REMARK VINA RESULT:      -6.7      1.470      1.498
REMARK  Name = 
REMARK  3 active torsions:
REMARK  status: ('A' for Active; 'I' for Inactive)
REMARK    1  A    between atoms: N_5  and  C_6
REMARK    2  A    between atoms: C_9  and  C_10
REMARK    3  A    between atoms: C_10  and  O_11
REMARK                            x       y       z     vdW  Elec       q    Type
REMARK                         _______ _______ _______ _____ _____    ______ ____
ROOT
ATOM      1  O   UNL     1       7.612   5.221  13.995  0.00  0.00    +0.000 OA
ATOM      2  C   UNL     1       7.072   5.123  15.092  0.00  0.00    +0.000 A 
ATOM      3  C   UNL     1       5.643   5.416  15.262  0.00  0.00    +0.000 A 
ATOM      4  C   UNL     1       5.123   5.389  16.490  0.00  0.00    +0.000 A 
ATOM      5  N   UNL     1       5.889   5.128  17.612  0.00  0.00    +0.000 N 
ATOM      6  C   UNL     1       7.221   4.732  17.490  0.00  0.00    +0.000 A 
ATOM      7  O   UNL     1       7.929   4.404  18.438  0.00  0.00    +0.000 OA
ATOM      8  N   UNL     1       7.731   4.736  16.218  0.00  0.00    +0.000 N 
ATOM      9  H   UNL     1       8.707   4.506  16.120  0.00  0.00    +0.000 HD
ENDROOT
BRANCH   5  10
ATOM     10  C   UNL     1       5.328   5.152  18.975  0.00  0.00    +0.000 C 
ATOM     11  C   UNL     1       3.905   5.727  19.084  0.00  0.00    +0.000 C 
ATOM     12  S   UNL     1       2.810   4.319  18.844  0.00  0.00    +0.000 S 
ATOM     13  C   UNL     1       4.125   3.144  19.249  0.00  0.00    +0.000 C 
ATOM     14  O   UNL     1       5.326   3.848  19.591  0.00  0.00    +0.000 OA
BRANCH  13  15
ATOM     15  C   UNL     1       3.703   2.210  20.391  0.00  0.00    +0.000 C 
BRANCH  15  16
ATOM     16  O   UNL     1       2.793   2.848  21.286  0.00  0.00    +0.000 OA
ATOM     17  H   UNL     1       2.430   2.146  21.862  0.00  0.00    +0.000 HD
ENDBRANCH  15  16
ENDBRANCH  13  15
ENDBRANCH   5  10
TORSDOF 3
ENDMDL
MODEL 3
REMARK VINA RESULT:      -6.5      1.872      1.921
REMARK  Name = 
REMARK  3 active torsions:
REMARK  status: ('A' for Active; 'I' for Inactive)
REMARK    1  A    between atoms: N_5  and  C_6
REMARK    2  A    between atoms: C_9  and  C_10
REMARK    3  A    between atoms: C_10  and  O_11
REMARK                            x       y       z     vdW  Elec       q    Type
REMARK                         _______ _______ _______ _____ _____    ______ ____
ROOT
ATOM      1  O   UNL     1       7.308   5.106  13.569  0.00  0.00    +0.000 OA
ATOM      2  C   UNL     1       7.004   5.034  14.755  0.00  0.00    +0.000 A 
ATOM      3  C   UNL     1       6.072   4.007  15.237  0.00  0.00    +0.000 A 
ATOM      4  C   UNL     1       5.697   4.027  16.516  0.00  0.00    +0.000 A 
ATOM      5  N   UNL     1       6.130   5.002  17.398  0.00  0.00    +0.000 N 
ATOM      6  C   UNL     1       7.102   5.928  17.017  0.00  0.00    +0.000 A 
ATOM      7  O   UNL     1       7.589   6.762  17.775  0.00  0.00    +0.000 OA
ATOM      8  N   UNL     1       7.498   5.872  15.707  0.00  0.00    +0.000 N 
ATOM      9  H   UNL     1       8.159   6.569  15.403  0.00  0.00    +0.000 HD
ENDROOT
BRANCH   5  10
ATOM     10  C   UNL     1       5.673   5.060  18.798  0.00  0.00    +0.000 C 
ATOM     11  C   UNL     1       4.279   5.678  19.004  0.00  0.00    +0.000 C 
ATOM     12  S   UNL     1       3.130   4.300  18.866  0.00  0.00    +0.000 S 
ATOM     13  C   UNL     1       4.437   3.092  19.190  0.00  0.00    +0.000 C 
ATOM     14  O   UNL     1       5.680   3.764  19.432  0.00  0.00    +0.000 OA
BRANCH  13  15
ATOM     15  C   UNL     1       4.075   2.185  20.374  0.00  0.00    +0.000 C 
BRANCH  15  16
ATOM     16  O   UNL     1       5.237   1.728  21.064  0.00  0.00    +0.000 OA
ATOM     17  H   UNL     1       6.001   2.178  20.652  0.00  0.00    +0.000 HD
ENDBRANCH  15  16
ENDBRANCH  13  15
ENDBRANCH   5  10
TORSDOF 3
ENDMDL
MODEL 4
REMARK VINA RESULT:      -6.4      2.884      5.747
REMARK  Name = 
REMARK  3 active torsions:
REMARK  status: ('A' for Active; 'I' for Inactive)
REMARK    1  A    between atoms: N_5  and  C_6
REMARK    2  A    between atoms: C_9  and  C_10
REMARK    3  A    between atoms: C_10  and  O_11
REMARK                            x       y       z     vdW  Elec       q    Type
REMARK                         _______ _______ _______ _____ _____    ______ ____
ROOT
ATOM      1  O   UNL     1       1.104   2.637  22.386  0.00  0.00    +0.000 OA
ATOM      2  C   UNL     1       1.903   2.920  21.501  0.00  0.00    +0.000 A 
ATOM      3  C   UNL     1       1.615   3.985  20.532  0.00  0.00    +0.000 A 
ATOM      4  C   UNL     1       2.470   4.192  19.529  0.00  0.00    +0.000 A 
ATOM      5  N   UNL     1       3.602   3.417  19.351  0.00  0.00    +0.000 N 
ATOM      6  C   UNL     1       3.977   2.472  20.306  0.00  0.00    +0.000 A 
ATOM      7  O   UNL     1       5.012   1.813  20.251  0.00  0.00    +0.000 OA
ATOM      8  N   UNL     1       3.102   2.295  21.346  0.00  0.00    +0.000 N 
ATOM      9  H   UNL     1       3.333   1.577  22.015  0.00  0.00    +0.000 HD
ENDROOT
BRANCH   5  10
ATOM     10  C   UNL     1       4.519   3.606  18.212  0.00  0.00    +0.000 C 
ATOM     11  C   UNL     1       4.090   4.687  17.203  0.00  0.00    +0.000 C 
ATOM     12  S   UNL     1       4.812   6.216  17.819  0.00  0.00    +0.000 S 
ATOM     13  C   UNL     1       6.017   5.319  18.827  0.00  0.00    +0.000 C 
ATOM     14  O   UNL     1       5.865   3.906  18.636  0.00  0.00    +0.000 OA
BRANCH  13  15
ATOM     15  C   UNL     1       7.451   5.756  18.500  0.00  0.00    +0.000 C 
BRANCH  15  16
ATOM     16  O   UNL     1       8.147   6.199  19.664  0.00  0.00    +0.000 OA
ATOM     17  H   UNL     1       9.089   5.979  19.527  0.00  0.00    +0.000 HD
ENDBRANCH  15  16
ENDBRANCH  13  15
ENDBRANCH   5  10
TORSDOF 3
ENDMDL
MODEL 5
REMARK VINA RESULT:      -6.2      1.894      2.011
REMARK  Name = 
REMARK  3 active torsions:
REMARK  status: ('A' for Active; 'I' for Inactive)
REMARK    1  A    between atoms: N_5  and  C_6
REMARK    2  A    between atoms: C_9  and  C_10
REMARK    3  A    between atoms: C_10  and  O_11
REMARK                            x       y       z     vdW  Elec       q    Type
REMARK                         _______ _______ _______ _____ _____    ______ ____
ROOT
ATOM      1  O   UNL     1       7.906   4.370  15.821  0.00  0.00    +0.000 OA
ATOM      2  C   UNL     1       6.943   4.543  16.559  0.00  0.00    +0.000 A 
ATOM      3  C   UNL     1       5.578   4.600  16.023  0.00  0.00    +0.000 A 
ATOM      4  C   UNL     1       4.572   4.886  16.852  0.00  0.00    +0.000 A 
ATOM      5  N   UNL     1       4.775   5.163  18.192  0.00  0.00    +0.000 N 
ATOM      6  C   UNL     1       6.036   5.009  18.770  0.00  0.00    +0.000 A 
ATOM      7  O   UNL     1       6.264   5.155  19.968  0.00  0.00    +0.000 OA
ATOM      8  N   UNL     1       7.051   4.684  17.909  0.00  0.00    +0.000 N 
ATOM      9  H   UNL     1       7.977   4.624  18.302  0.00  0.00    +0.000 HD
ENDROOT
BRANCH   5  10
ATOM     10  C   UNL     1       3.673   5.534  19.098  0.00  0.00    +0.000 C 
ATOM     11  C   UNL     1       2.299   5.691  18.423  0.00  0.00    +0.000 C 
ATOM     12  S   UNL     1       1.561   4.050  18.474  0.00  0.00    +0.000 S 
ATOM     13  C   UNL     1       2.669   3.521  19.803  0.00  0.00    +0.000 C 
ATOM     14  O   UNL     1       3.525   4.604  20.191  0.00  0.00    +0.000 OA
BRANCH  13  15
ATOM     15  C   UNL     1       1.879   2.998  21.010  0.00  0.00    +0.000 C 
BRANCH  15  16
ATOM     16  O   UNL     1       2.741   2.471  22.018  0.00  0.00    +0.000 OA
ATOM     17  H   UNL     1       2.749   3.122  22.747  0.00  0.00    +0.000 HD
ENDBRANCH  15  16
ENDBRANCH  13  15
ENDBRANCH   5  10
TORSDOF 3
ENDMDL
MODEL 6
REMARK VINA RESULT:      -6.2      2.500      5.691
REMARK  Name = 
REMARK  3 active torsions:
REMARK  status: ('A' for Active; 'I' for Inactive)
REMARK    1  A    between atoms: N_5  and  C_6
REMARK    2  A    between atoms: C_9  and  C_10
REMARK    3  A    between atoms: C_10  and  O_11
REMARK                            x       y       z     vdW  Elec       q    Type
REMARK                         _______ _______ _______ _____ _____    ______ ____
ROOT
ATOM      1  O   UNL     1       1.407   2.509  22.227  0.00  0.00    +0.000 OA
ATOM      2  C   UNL     1       1.890   2.990  21.209  0.00  0.00    +0.000 A 
ATOM      3  C   UNL     1       2.407   4.364  21.191  0.00  0.00    +0.000 A 
ATOM      4  C   UNL     1       2.835   4.875  20.036  0.00  0.00    +0.000 A 
ATOM      5  N   UNL     1       2.778   4.169  18.847  0.00  0.00    +0.000 N 
ATOM      6  C   UNL     1       2.403   2.825  18.834  0.00  0.00    +0.000 A 
ATOM      7  O   UNL     1       2.414   2.119  17.829  0.00  0.00    +0.000 OA
ATOM      8  N   UNL     1       1.996   2.307  20.036  0.00  0.00    +0.000 N 
ATOM      9  H   UNL     1       1.670   1.353  20.032  0.00  0.00    +0.000 HD
ENDROOT
BRANCH   5  10
ATOM     10  C   UNL     1       3.197   4.751  17.560  0.00  0.00    +0.000 C 
ATOM     11  C   UNL     1       3.689   6.208  17.633  0.00  0.00    +0.000 C 
ATOM     12  S   UNL     1       5.454   6.091  17.961  0.00  0.00    +0.000 S 
ATOM     13  C   UNL     1       5.518   4.381  17.373  0.00  0.00    +0.000 C 
ATOM     14  O   UNL     1       4.224   3.970  16.913  0.00  0.00    +0.000 OA
BRANCH  13  15
ATOM     15  C   UNL     1       6.564   4.213  16.264  0.00  0.00    +0.000 C 
BRANCH  15  16
ATOM     16  O   UNL     1       7.887   4.447  16.745  0.00  0.00    +0.000 OA
ATOM     17  H   UNL     1       8.128   5.353  16.469  0.00  0.00    +0.000 HD
ENDBRANCH  15  16
ENDBRANCH  13  15
ENDBRANCH   5  10
TORSDOF 3
ENDMDL
MODEL 7
REMARK VINA RESULT:      -6.2      2.406      5.293
REMARK  Name = 
REMARK  3 active torsions:
REMARK  status: ('A' for Active; 'I' for Inactive)
REMARK    1  A    between atoms: N_5  and  C_6
REMARK    2  A    between atoms: C_9  and  C_10
REMARK    3  A    between atoms: C_10  and  O_11
REMARK                            x       y       z     vdW  Elec       q    Type
REMARK                         _______ _______ _______ _____ _____    ______ ____
ROOT
ATOM      1  O   UNL     1       0.531   3.005  20.053  0.00  0.00    +0.000 OA
ATOM      2  C   UNL     1       1.625   3.273  19.571  0.00  0.00    +0.000 A 
ATOM      3  C   UNL     1       1.751   4.222  18.458  0.00  0.00    +0.000 A 
ATOM      4  C   UNL     1       2.950   4.408  17.903  0.00  0.00    +0.000 A 
ATOM      5  N   UNL     1       4.073   3.713  18.317  0.00  0.00    +0.000 N 
ATOM      6  C   UNL     1       4.026   2.889  19.442  0.00  0.00    +0.000 A 
ATOM      7  O   UNL     1       5.004   2.313  19.912  0.00  0.00    +0.000 OA
ATOM      8  N   UNL     1       2.792   2.734  20.018  0.00  0.00    +0.000 N 
ATOM      9  H   UNL     1       2.733   2.098  20.798  0.00  0.00    +0.000 HD
ENDROOT
BRANCH   5  10
ATOM     10  C   UNL     1       5.386   3.875  17.670  0.00  0.00    +0.000 C 
ATOM     11  C   UNL     1       5.417   4.875  16.500  0.00  0.00    +0.000 C 
ATOM     12  S   UNL     1       5.784   6.467  17.254  0.00  0.00    +0.000 S 
ATOM     13  C   UNL     1       6.452   5.684  18.741  0.00  0.00    +0.000 C 
ATOM     14  O   UNL     1       6.416   4.258  18.605  0.00  0.00    +0.000 OA
BRANCH  13  15
ATOM     15  C   UNL     1       7.881   6.163  19.028  0.00  0.00    +0.000 C 
BRANCH  15  16
ATOM     16  O   UNL     1       8.488   5.415  20.080  0.00  0.00    +0.000 OA
ATOM     17  H   UNL     1       8.902   6.065  20.682  0.00  0.00    +0.000 HD
ENDBRANCH  15  16
ENDBRANCH  13  15
ENDBRANCH   5  10
TORSDOF 3
ENDMDL
MODEL 8
REMARK VINA RESULT:      -6.2      2.343      2.775
REMARK  Name = 
REMARK  3 active torsions:
REMARK  status: ('A' for Active; 'I' for Inactive)
REMARK    1  A    between atoms: N_5  and  C_6
REMARK    2  A    between atoms: C_9  and  C_10
REMARK    3  A    between atoms: C_10  and  O_11
REMARK                            x       y       z     vdW  Elec       q    Type
REMARK                         _______ _______ _______ _____ _____    ______ ____
ROOT
ATOM      1  O   UNL     1       7.481   6.074  15.949  0.00  0.00    +0.000 OA
ATOM      2  C   UNL     1       6.428   5.753  16.489  0.00  0.00    +0.000 A 
ATOM      3  C   UNL     1       6.072   4.341  16.678  0.00  0.00    +0.000 A 
ATOM      4  C   UNL     1       4.875   4.041  17.183  0.00  0.00    +0.000 A 
ATOM      5  N   UNL     1       3.943   5.013  17.503  0.00  0.00    +0.000 N 
ATOM      6  C   UNL     1       4.276   6.366  17.449  0.00  0.00    +0.000 A 
ATOM      7  O   UNL     1       3.526   7.272  17.800  0.00  0.00    +0.000 OA
ATOM      8  N   UNL     1       5.523   6.655  16.957  0.00  0.00    +0.000 N 
ATOM      9  H   UNL     1       5.757   7.631  16.861  0.00  0.00    +0.000 HD
ENDROOT
BRANCH   5  10
ATOM     10  C   UNL     1       2.598   4.682  18.008  0.00  0.00    +0.000 C 
ATOM     11  C   UNL     1       2.106   3.263  17.670  0.00  0.00    +0.000 C 
ATOM     12  S   UNL     1       2.682   2.232  19.027  0.00  0.00    +0.000 S 
ATOM     13  C   UNL     1       2.896   3.663  20.113  0.00  0.00    +0.000 C 
ATOM     14  O   UNL     1       2.489   4.860  19.435  0.00  0.00    +0.000 OA
BRANCH  13  15
ATOM     15  C   UNL     1       2.114   3.491  21.421  0.00  0.00    +0.000 C 
BRANCH  15  16
ATOM     16  O   UNL     1       0.844   2.878  21.201  0.00  0.00    +0.000 OA
ATOM     17  H   UNL     1       0.959   2.261  20.451  0.00  0.00    +0.000 HD
ENDBRANCH  15  16
ENDBRANCH  13  15
ENDBRANCH   5  10
TORSDOF 3
ENDMDL
MODEL 9
REMARK VINA RESULT:      -6.1      1.610      1.787
REMARK  Name = 
REMARK  3 active torsions:
REMARK  status: ('A' for Active; 'I' for Inactive)
REMARK    1  A    between atoms: N_5  and  C_6
REMARK    2  A    between atoms: C_9  and  C_10
REMARK    3  A    between atoms: C_10  and  O_11
REMARK                            x       y       z     vdW  Elec       q    Type
REMARK                         _______ _______ _______ _____ _____    ______ ____
ROOT
ATOM      1  O   UNL     1       7.814   5.260  13.821  0.00  0.00    +0.000 OA
ATOM      2  C   UNL     1       7.101   5.170  14.814  0.00  0.00    +0.000 A 
ATOM      3  C   UNL     1       5.885   4.346  14.802  0.00  0.00    +0.000 A 
ATOM      4  C   UNL     1       5.091   4.355  15.873  0.00  0.00    +0.000 A 
ATOM      5  N   UNL     1       5.354   5.139  16.983  0.00  0.00    +0.000 N 
ATOM      6  C   UNL     1       6.551   5.847  17.087  0.00  0.00    +0.000 A 
ATOM      7  O   UNL     1       6.883   6.492  18.079  0.00  0.00    +0.000 OA
ATOM      8  N   UNL     1       7.370   5.802  15.989  0.00  0.00    +0.000 N 
ATOM      9  H   UNL     1       8.213   6.354  16.029  0.00  0.00    +0.000 HD
ENDROOT
BRANCH   5  10
ATOM     10  C   UNL     1       4.449   5.194  18.144  0.00  0.00    +0.000 C 
ATOM     11  C   UNL     1       2.971   4.895  17.834  0.00  0.00    +0.000 C 
ATOM     12  S   UNL     1       2.807   3.112  18.006  0.00  0.00    +0.000 S 
ATOM     13  C   UNL     1       4.314   3.002  19.002  0.00  0.00    +0.000 C 
ATOM     14  O   UNL     1       4.865   4.309  19.206  0.00  0.00    +0.000 OA
BRANCH  13  15
ATOM     15  C   UNL     1       4.043   2.314  20.346  0.00  0.00    +0.000 C 
BRANCH  15  16
ATOM     16  O   UNL     1       2.896   2.860  20.997  0.00  0.00    +0.000 OA
ATOM     17  H   UNL     1       2.953   3.830  20.895  0.00  0.00    +0.000 HD
ENDBRANCH  15  16
ENDBRANCH  13  15
ENDBRANCH   5  10
TORSDOF 3
ENDMDL
