MODEL 1
REMARK VINA RESULT:      -6.1      0.000      0.000
REMARK  Name = 
REMARK  3 active torsions:
REMARK  status: ('A' for Active; 'I' for Inactive)
REMARK    1  A    between atoms: C_1  and  C_2
REMARK    2  A    between atoms: C_2  and  N_3
REMARK    3  A    between atoms: C_8  and  C_9
REMARK                            x       y       z     vdW  Elec       q    Type
REMARK                         _______ _______ _______ _____ _____    ______ ____
ROOT
ATOM      1  C   UNL     1       2.982   6.254  19.075  0.00  0.00    +0.000 C 
ATOM      2  O   UNL     1       3.193   6.811  18.001  0.00  0.00    +0.000 OA
ATOM      3  N   UNL     1       2.275   6.814  20.110  0.00  0.00    +0.000 N 
ATOM      4  C   UNL     1       1.720   8.061  20.049  0.00  0.00    +0.000 A 
ATOM      5  N   UNL     1       1.561   8.861  19.029  0.00  0.00    +0.000 NA
ATOM      6  C   UNL     1       1.009  10.051  19.464  0.00  0.00    +0.000 A 
ATOM      7  C   UNL     1       0.775  10.135  20.820  0.00  0.00    +0.000 A 
ATOM      8  S   UNL     1       1.183   8.644  21.564  0.00  0.00    +0.000 S 
ATOM      9  H   UNL     1       2.225   6.350  21.002  0.00  0.00    +0.000 HD
ENDROOT
BRANCH   1  15
ATOM     10  N   UNL     1       4.866   4.597  19.291  0.00  0.00    +0.000 N 
ATOM     11  N   UNL     1       5.129   3.307  19.613  0.00  0.00    +0.000 NA
ATOM     12  C   UNL     1       3.934   2.798  19.898  0.00  0.00    +0.000 A 
ATOM     13  C   UNL     1       2.921   3.754  19.771  0.00  0.00    +0.000 A 
ATOM     14 BR   UNL     1       1.122   3.349  20.121  0.00  0.00    +0.000 Br
ATOM     15  C   UNL     1       3.523   4.933  19.368  0.00  0.00    +0.000 A 
BRANCH  10  17
ATOM     16  C   UNL     1       6.936   4.817  17.964  0.00  0.00    +0.000 C 
ATOM     17  C   UNL     1       6.008   5.448  18.989  0.00  0.00    +0.000 C 
ENDBRANCH  10  17
ENDBRANCH   1  15
TORSDOF 2
ENDMDL
MODEL 2
REMARK VINA RESULT:      -5.9      3.187      5.682
REMARK  Name = 
REMARK  3 active torsions:
REMARK  status: ('A' for Active; 'I' for Inactive)
REMARK    1  A    between atoms: C_1  and  C_2
REMARK    2  A    between atoms: C_2  and  N_3
REMARK    3  A    between atoms: C_8  and  C_9
REMARK                            x       y       z     vdW  Elec       q    Type
REMARK                         _______ _______ _______ _____ _____    ______ ____
ROOT
ATOM      1  C   UNL     1       3.072   5.618  18.094  0.00  0.00    +0.000 C 
ATOM      2  O   UNL     1       2.485   4.681  17.560  0.00  0.00    +0.000 OA
ATOM      3  N   UNL     1       4.376   5.961  17.833  0.00  0.00    +0.000 N 
ATOM      4  C   UNL     1       5.161   5.293  16.938  0.00  0.00    +0.000 A 
ATOM      5  N   UNL     1       4.841   4.391  16.049  0.00  0.00    +0.000 NA
ATOM      6  C   UNL     1       5.986   3.950  15.414  0.00  0.00    +0.000 A 
ATOM      7  C   UNL     1       7.164   4.519  15.851  0.00  0.00    +0.000 A 
ATOM      8  S   UNL     1       6.817   5.707  17.039  0.00  0.00    +0.000 S 
ATOM      9  H   UNL     1       4.834   6.673  18.379  0.00  0.00    +0.000 HD
ENDROOT
BRANCH   1  15
ATOM     10  N   UNL     1       2.055   5.980  20.369  0.00  0.00    +0.000 N 
ATOM     11  N   UNL     1       1.480   6.928  21.148  0.00  0.00    +0.000 NA
ATOM     12  C   UNL     1       1.480   8.016  20.384  0.00  0.00    +0.000 A 
ATOM     13  C   UNL     1       2.059   7.770  19.135  0.00  0.00    +0.000 A 
ATOM     14 BR   UNL     1       2.223   9.112  17.834  0.00  0.00    +0.000 Br
ATOM     15  C   UNL     1       2.432   6.437  19.116  0.00  0.00    +0.000 A 
BRANCH  10  17
ATOM     16  C   UNL     1       1.122   3.712  20.648  0.00  0.00    +0.000 C 
ATOM     17  C   UNL     1       2.259   4.669  20.966  0.00  0.00    +0.000 C 
ENDBRANCH  10  17
ENDBRANCH   1  15
TORSDOF 2
ENDMDL
MODEL 3
REMARK VINA RESULT:      -5.8      3.450      5.679
REMARK  Name = 
REMARK  3 active torsions:
REMARK  status: ('A' for Active; 'I' for Inactive)
REMARK    1  A    between atoms: C_1  and  C_2
REMARK    2  A    between atoms: C_2  and  N_3
REMARK    3  A    between atoms: C_8  and  C_9
REMARK                            x       y       z     vdW  Elec       q    Type
REMARK                         _______ _______ _______ _____ _____    ______ ____
ROOT
ATOM      1  C   UNL     1       3.389   4.704  17.694  0.00  0.00    +0.000 C 
ATOM      2  O   UNL     1       2.911   3.743  17.097  0.00  0.00    +0.000 OA
ATOM      3  N   UNL     1       4.559   5.329  17.340  0.00  0.00    +0.000 N 
ATOM      4  C   UNL     1       5.319   4.946  16.272  0.00  0.00    +0.000 A 
ATOM      5  N   UNL     1       5.045   4.116  15.300  0.00  0.00    +0.000 NA
ATOM      6  C   UNL     1       6.150   3.993  14.480  0.00  0.00    +0.000 A 
ATOM      7  C   UNL     1       7.255   4.726  14.860  0.00  0.00    +0.000 A 
ATOM      8  S   UNL     1       6.870   5.665  16.243  0.00  0.00    +0.000 S 
ATOM      9  H   UNL     1       4.953   6.044  17.930  0.00  0.00    +0.000 HD
ENDROOT
BRANCH   1  15
ATOM     10  N   UNL     1       2.480   4.513  20.034  0.00  0.00    +0.000 N 
ATOM     11  N   UNL     1       1.896   5.236  21.022  0.00  0.00    +0.000 NA
ATOM     12  C   UNL     1       1.795   6.457  20.507  0.00  0.00    +0.000 A 
ATOM     13  C   UNL     1       2.317   6.518  19.211  0.00  0.00    +0.000 A 
ATOM     14 BR   UNL     1       2.335   8.111  18.220  0.00  0.00    +0.000 Br
ATOM     15  C   UNL     1       2.761   5.246  18.893  0.00  0.00    +0.000 A 
BRANCH  10  17
ATOM     16  C   UNL     1       2.139   2.654  21.622  0.00  0.00    +0.000 C 
ATOM     17  C   UNL     1       2.788   3.121  20.330  0.00  0.00    +0.000 C 
ENDBRANCH  10  17
ENDBRANCH   1  15
TORSDOF 2
ENDMDL
MODEL 4
REMARK VINA RESULT:      -5.8      1.850      2.725
REMARK  Name = 
REMARK  3 active torsions:
REMARK  status: ('A' for Active; 'I' for Inactive)
REMARK    1  A    between atoms: C_1  and  C_2
REMARK    2  A    between atoms: C_2  and  N_3
REMARK    3  A    between atoms: C_8  and  C_9
REMARK                            x       y       z     vdW  Elec       q    Type
REMARK                         _______ _______ _______ _____ _____    ______ ____
ROOT
ATOM      1  C   UNL     1       2.778   6.393  19.077  0.00  0.00    +0.000 C 
ATOM      2  O   UNL     1       2.857   6.965  17.993  0.00  0.00    +0.000 OA
ATOM      3  N   UNL     1       2.200   6.936  20.197  0.00  0.00    +0.000 N 
ATOM      4  C   UNL     1       1.641   8.182  20.221  0.00  0.00    +0.000 A 
ATOM      5  N   UNL     1       1.359   8.996  19.239  0.00  0.00    +0.000 NA
ATOM      6  C   UNL     1       0.862  10.178  19.754  0.00  0.00    +0.000 A 
ATOM      7  C   UNL     1       0.793  10.243  21.129  0.00  0.00    +0.000 A 
ATOM      8  S   UNL     1       1.290   8.742  21.798  0.00  0.00    +0.000 S 
ATOM      9  H   UNL     1       2.259   6.460  21.082  0.00  0.00    +0.000 HD
ENDROOT
BRANCH   1  15
ATOM     10  N   UNL     1       2.618   3.928  19.567  0.00  0.00    +0.000 N 
ATOM     11  N   UNL     1       3.372   2.812  19.715  0.00  0.00    +0.000 NA
ATOM     12  C   UNL     1       4.617   3.239  19.529  0.00  0.00    +0.000 A 
ATOM     13  C   UNL     1       4.658   4.610  19.254  0.00  0.00    +0.000 A 
ATOM     14 BR   UNL     1       6.271   5.511  18.927  0.00  0.00    +0.000 Br
ATOM     15  C   UNL     1       3.352   5.069  19.283  0.00  0.00    +0.000 A 
BRANCH  10  17
ATOM     16  C   UNL     1       0.695   2.525  18.913  0.00  0.00    +0.000 C 
ATOM     17  C   UNL     1       1.174   3.765  19.651  0.00  0.00    +0.000 C 
ENDBRANCH  10  17
ENDBRANCH   1  15
TORSDOF 2
ENDMDL
MODEL 5
REMARK VINA RESULT:      -5.8      4.507      5.531
REMARK  Name = 
REMARK  3 active torsions:
REMARK  status: ('A' for Active; 'I' for Inactive)
REMARK    1  A    between atoms: C_1  and  C_2
REMARK    2  A    between atoms: C_2  and  N_3
REMARK    3  A    between atoms: C_8  and  C_9
REMARK                            x       y       z     vdW  Elec       q    Type
REMARK                         _______ _______ _______ _____ _____    ______ ____
ROOT
ATOM      1  C   UNL     1       4.528   4.922  16.667  0.00  0.00    +0.000 C 
ATOM      2  O   UNL     1       3.884   5.909  17.012  0.00  0.00    +0.000 OA
ATOM      3  N   UNL     1       4.223   3.634  17.032  0.00  0.00    +0.000 N 
ATOM      4  C   UNL     1       3.156   3.313  17.822  0.00  0.00    +0.000 A 
ATOM      5  N   UNL     1       2.147   4.046  18.211  0.00  0.00    +0.000 NA
ATOM      6  C   UNL     1       1.346   3.307  19.060  0.00  0.00    +0.000 A 
ATOM      7  C   UNL     1       1.777   2.021  19.312  0.00  0.00    +0.000 A 
ATOM      8  S   UNL     1       3.189   1.700  18.391  0.00  0.00    +0.000 S 
ATOM      9  H   UNL     1       4.848   2.879  16.803  0.00  0.00    +0.000 HD
ENDROOT
BRANCH   1  15
ATOM     10  N   UNL     1       6.901   5.665  16.271  0.00  0.00    +0.000 N 
ATOM     11  N   UNL     1       7.889   5.650  15.344  0.00  0.00    +0.000 NA
ATOM     12  C   UNL     1       7.350   5.012  14.310  0.00  0.00    +0.000 A 
ATOM     13  C   UNL     1       6.036   4.613  14.576  0.00  0.00    +0.000 A 
ATOM     14 BR   UNL     1       5.008   3.674  13.319  0.00  0.00    +0.000 Br
ATOM     15  C   UNL     1       5.734   5.043  15.856  0.00  0.00    +0.000 A 
BRANCH  10  17
ATOM     16  C   UNL     1       7.608   7.715  17.449  0.00  0.00    +0.000 C 
ATOM     17  C   UNL     1       7.218   6.251  17.565  0.00  0.00    +0.000 C 
ENDBRANCH  10  17
ENDBRANCH   1  15
TORSDOF 2
ENDMDL
MODEL 6
REMARK VINA RESULT:      -5.8      2.907      5.574
REMARK  Name = 
REMARK  3 active torsions:
REMARK  status: ('A' for Active; 'I' for Inactive)
REMARK    1  A    between atoms: C_1  and  C_2
REMARK    2  A    between atoms: C_2  and  N_3
REMARK    3  A    between atoms: C_8  and  C_9
REMARK                            x       y       z     vdW  Elec       q    Type
REMARK                         _______ _______ _______ _____ _____    ______ ____
ROOT
ATOM      1  C   UNL     1       3.195   5.347  17.964  0.00  0.00    +0.000 C 
ATOM      2  O   UNL     1       2.645   4.375  17.455  0.00  0.00    +0.000 OA
ATOM      3  N   UNL     1       4.448   5.793  17.621  0.00  0.00    +0.000 N 
ATOM      4  C   UNL     1       5.217   5.199  16.662  0.00  0.00    +0.000 A 
ATOM      5  N   UNL     1       4.906   4.286  15.781  0.00  0.00    +0.000 NA
ATOM      6  C   UNL     1       6.034   3.943  15.061  0.00  0.00    +0.000 A 
ATOM      7  C   UNL     1       7.192   4.595  15.427  0.00  0.00    +0.000 A 
ATOM      8  S   UNL     1       6.840   5.738  16.658  0.00  0.00    +0.000 S 
ATOM      9  H   UNL     1       4.887   6.531  18.147  0.00  0.00    +0.000 HD
ENDROOT
BRANCH   1  15
ATOM     10  N   UNL     1       2.311   7.463  19.003  0.00  0.00    +0.000 N 
ATOM     11  N   UNL     1       1.716   7.942  20.123  0.00  0.00    +0.000 NA
ATOM     12  C   UNL     1       1.590   6.872  20.902  0.00  0.00    +0.000 A 
ATOM     13  C   UNL     1       2.088   5.720  20.283  0.00  0.00    +0.000 A 
ATOM     14 BR   UNL     1       2.040   4.042  21.120  0.00  0.00    +0.000 Br
ATOM     15  C   UNL     1       2.567   6.102  19.042  0.00  0.00    +0.000 A 
BRANCH  10  17
ATOM     16  C   UNL     1       1.511   9.540  17.934  0.00  0.00    +0.000 C 
ATOM     17  C   UNL     1       2.524   8.406  17.915  0.00  0.00    +0.000 C 
ENDBRANCH  10  17
ENDBRANCH   1  15
TORSDOF 2
ENDMDL
MODEL 7
REMARK VINA RESULT:      -5.7      2.734      3.400
REMARK  Name = 
REMARK  3 active torsions:
REMARK  status: ('A' for Active; 'I' for Inactive)
REMARK    1  A    between atoms: C_1  and  C_2
REMARK    2  A    between atoms: C_2  and  N_3
REMARK    3  A    between atoms: C_8  and  C_9
REMARK                            x       y       z     vdW  Elec       q    Type
REMARK                         _______ _______ _______ _____ _____    ______ ____
ROOT
ATOM      1  C   UNL     1       3.603   5.997  18.639  0.00  0.00    +0.000 C 
ATOM      2  O   UNL     1       3.334   5.540  19.746  0.00  0.00    +0.000 OA
ATOM      3  N   UNL     1       3.122   7.189  18.158  0.00  0.00    +0.000 N 
ATOM      4  C   UNL     1       2.289   8.003  18.872  0.00  0.00    +0.000 A 
ATOM      5  N   UNL     1       1.948   7.959  20.132  0.00  0.00    +0.000 NA
ATOM      6  C   UNL     1       1.025   8.954  20.390  0.00  0.00    +0.000 A 
ATOM      7  C   UNL     1       0.669   9.728  19.306  0.00  0.00    +0.000 A 
ATOM      8  S   UNL     1       1.583   9.248  17.935  0.00  0.00    +0.000 S 
ATOM      9  H   UNL     1       3.294   7.460  17.203  0.00  0.00    +0.000 HD
ENDROOT
BRANCH   1  15
ATOM     10  N   UNL     1       4.076   4.087  17.068  0.00  0.00    +0.000 N 
ATOM     11  N   UNL     1       5.020   3.595  16.230  0.00  0.00    +0.000 NA
ATOM     12  C   UNL     1       6.017   4.470  16.321  0.00  0.00    +0.000 A 
ATOM     13  C   UNL     1       5.709   5.516  17.198  0.00  0.00    +0.000 A 
ATOM     14 BR   UNL     1       6.906   6.921  17.529  0.00  0.00    +0.000 Br
ATOM     15  C   UNL     1       4.441   5.267  17.695  0.00  0.00    +0.000 A 
BRANCH  10  17
ATOM     16  C   UNL     1       2.887   2.168  18.067  0.00  0.00    +0.000 C 
ATOM     17  C   UNL     1       2.813   3.366  17.134  0.00  0.00    +0.000 C 
ENDBRANCH  10  17
ENDBRANCH   1  15
TORSDOF 2
ENDMDL
MODEL 8
REMARK VINA RESULT:      -5.7      2.230      2.441
REMARK  Name = 
REMARK  3 active torsions:
REMARK  status: ('A' for Active; 'I' for Inactive)
REMARK    1  A    between atoms: C_1  and  C_2
REMARK    2  A    between atoms: C_2  and  N_3
REMARK    3  A    between atoms: C_8  and  C_9
REMARK                            x       y       z     vdW  Elec       q    Type
REMARK                         _______ _______ _______ _____ _____    ______ ____
ROOT
ATOM      1  C   UNL     1       3.352   6.070  18.687  0.00  0.00    +0.000 C 
ATOM      2  O   UNL     1       3.120   5.641  19.813  0.00  0.00    +0.000 OA
ATOM      3  N   UNL     1       2.882   7.267  18.204  0.00  0.00    +0.000 N 
ATOM      4  C   UNL     1       2.104   8.116  18.938  0.00  0.00    +0.000 A 
ATOM      5  N   UNL     1       1.817   8.104  20.212  0.00  0.00    +0.000 NA
ATOM      6  C   UNL     1       0.934   9.129  20.491  0.00  0.00    +0.000 A 
ATOM      7  C   UNL     1       0.551   9.893  19.409  0.00  0.00    +0.000 A 
ATOM      8  S   UNL     1       1.390   9.363  18.009  0.00  0.00    +0.000 S 
ATOM      9  H   UNL     1       3.019   7.515  17.238  0.00  0.00    +0.000 HD
ENDROOT
BRANCH   1  15
ATOM     10  N   UNL     1       5.277   5.755  17.095  0.00  0.00    +0.000 N 
ATOM     11  N   UNL     1       5.827   4.859  16.240  0.00  0.00    +0.000 NA
ATOM     12  C   UNL     1       5.015   3.809  16.310  0.00  0.00    +0.000 A 
ATOM     13  C   UNL     1       3.966   4.025  17.209  0.00  0.00    +0.000 A 
ATOM     14 BR   UNL     1       2.658   2.722  17.544  0.00  0.00    +0.000 Br
ATOM     15  C   UNL     1       4.128   5.301  17.722  0.00  0.00    +0.000 A 
BRANCH  10  17
ATOM     16  C   UNL     1       7.435   6.783  17.712  0.00  0.00    +0.000 C 
ATOM     17  C   UNL     1       5.993   7.008  17.288  0.00  0.00    +0.000 C 
ENDBRANCH  10  17
ENDBRANCH   1  15
TORSDOF 2
ENDMDL
MODEL 9
REMARK VINA RESULT:      -5.6      3.748      4.806
REMARK  Name = 
REMARK  3 active torsions:
REMARK  status: ('A' for Active; 'I' for Inactive)
REMARK    1  A    between atoms: C_1  and  C_2
REMARK    2  A    between atoms: C_2  and  N_3
REMARK    3  A    between atoms: C_8  and  C_9
REMARK                            x       y       z     vdW  Elec       q    Type
REMARK                         _______ _______ _______ _____ _____    ______ ____
ROOT
ATOM      1  C   UNL     1       4.341   4.809  17.846  0.00  0.00    +0.000 C 
ATOM      2  O   UNL     1       3.524   5.661  17.508  0.00  0.00    +0.000 OA
ATOM      3  N   UNL     1       4.101   3.840  18.788  0.00  0.00    +0.000 N 
ATOM      4  C   UNL     1       2.913   3.717  19.450  0.00  0.00    +0.000 A 
ATOM      5  N   UNL     1       1.763   4.295  19.226  0.00  0.00    +0.000 NA
ATOM      6  C   UNL     1       0.862   3.911  20.200  0.00  0.00    +0.000 A 
ATOM      7  C   UNL     1       1.357   3.056  21.162  0.00  0.00    +0.000 A 
ATOM      8  S   UNL     1       2.982   2.653  20.787  0.00  0.00    +0.000 S 
ATOM      9  H   UNL     1       4.845   3.235  19.098  0.00  0.00    +0.000 HD
ENDROOT
BRANCH   1  15
ATOM     10  N   UNL     1       5.999   4.480  15.980  0.00  0.00    +0.000 N 
ATOM     11  N   UNL     1       7.324   4.525  15.700  0.00  0.00    +0.000 NA
ATOM     12  C   UNL     1       7.884   4.862  16.858  0.00  0.00    +0.000 A 
ATOM     13  C   UNL     1       6.928   5.040  17.863  0.00  0.00    +0.000 A 
ATOM     14 BR   UNL     1       7.401   5.535  19.610  0.00  0.00    +0.000 Br
ATOM     15  C   UNL     1       5.691   4.785  17.296  0.00  0.00    +0.000 A 
BRANCH  10  17
ATOM     16  C   UNL     1       5.855   3.867  13.593  0.00  0.00    +0.000 C 
ATOM     17  C   UNL     1       5.100   4.196  14.870  0.00  0.00    +0.000 C 
ENDBRANCH  10  17
ENDBRANCH   1  15
TORSDOF 2
ENDMDL
