MODEL 1
REMARK VINA RESULT:      -7.6      0.000      0.000
REMARK  Name = 
REMARK  3 active torsions:
REMARK  status: ('A' for Active; 'I' for Inactive)
REMARK    1  A    between atoms: C_1  and  S_2
REMARK    2  A    between atoms: S_2  and  N_5
REMARK    3  A    between atoms: C_12  and  C_14
REMARK                            x       y       z     vdW  Elec       q    Type
REMARK                         _______ _______ _______ _____ _____    ______ ____
ROOT
ATOM      1  N   UNL     1      -0.617  10.861  21.850  0.00  0.00    +0.000 NA
ATOM      2  C   UNL     1       0.046   9.900  22.790  0.00  0.00    +0.000 C 
ATOM      3  C   UNL     1       0.292   8.551  22.130  0.00  0.00    +0.000 C 
ATOM      4  C   UNL     1       0.910   8.741  20.801  0.00  0.00    +0.000 A 
ATOM      5  N   UNL     1       1.636   7.750  20.209  0.00  0.00    +0.000 NA
ATOM      6  C   UNL     1       2.024   8.130  19.022  0.00  0.00    +0.000 A 
ATOM      7  N   UNL     1       2.770   7.399  18.135  0.00  0.00    +0.000 N 
ATOM      8  C   UNL     1       3.455   6.291  18.585  0.00  0.00    +0.000 C 
ATOM      9  O   UNL     1       3.564   5.881  19.734  0.00  0.00    +0.000 OA
ATOM     10  S   UNL     1       1.549   9.713  18.555  0.00  0.00    +0.000 S 
ATOM     11  C   UNL     1       0.803   9.918  20.087  0.00  0.00    +0.000 A 
ATOM     12  C   UNL     1       0.130  11.167  20.585  0.00  0.00    +0.000 C 
ATOM     13  H   UNL     1       2.849   7.694  17.170  0.00  0.00    +0.000 HD
ENDROOT
BRANCH   8  14
ATOM     14  C   UNL     1       4.213   5.518  17.503  0.00  0.00    +0.000 A 
ATOM     15  C   UNL     1       4.781   6.328  16.394  0.00  0.00    +0.000 A 
ATOM     16  C   UNL     1       5.504   5.688  15.473  0.00  0.00    +0.000 A 
ATOM     17  C   UNL     1       5.702   4.232  15.576  0.00  0.00    +0.000 A 
ATOM     18  O   UNL     1       6.396   3.635  14.763  0.00  0.00    +0.000 OA
ATOM     19  N   UNL     1       5.063   3.609  16.624  0.00  0.00    +0.000 N 
ATOM     20  N   UNL     1       4.331   4.227  17.610  0.00  0.00    +0.000 NA
ATOM     21  H   UNL     1       5.211   2.610  16.717  0.00  0.00    +0.000 HD
ENDBRANCH   8  14
BRANCH   1  23
ATOM     22  C   UNL     1      -2.145  13.014  21.191  0.00  0.00    +0.000 C 
ATOM     23  S   UNL     1      -1.425  12.156  22.583  0.00  0.00    +0.000 S 
ATOM     24  O   UNL     1      -0.424  13.033  23.149  0.00  0.00    +0.000 OA
ATOM     25  O   UNL     1      -2.499  11.619  23.391  0.00  0.00    +0.000 OA
ENDBRANCH   1  23
TORSDOF 2
ENDMDL
MODEL 2
REMARK VINA RESULT:      -7.5      1.017      1.140
REMARK  Name = 
REMARK  3 active torsions:
REMARK  status: ('A' for Active; 'I' for Inactive)
REMARK    1  A    between atoms: C_1  and  S_2
REMARK    2  A    between atoms: S_2  and  N_5
REMARK    3  A    between atoms: C_12  and  C_14
REMARK                            x       y       z     vdW  Elec       q    Type
REMARK                         _______ _______ _______ _____ _____    ______ ____
ROOT
ATOM      1  N   UNL     1      -0.606  10.876  21.505  0.00  0.00    +0.000 NA
ATOM      2  C   UNL     1       0.065   9.891  22.413  0.00  0.00    +0.000 C 
ATOM      3  C   UNL     1       0.369   8.583  21.695  0.00  0.00    +0.000 C 
ATOM      4  C   UNL     1       1.011   8.857  20.393  0.00  0.00    +0.000 A 
ATOM      5  N   UNL     1       1.782   7.918  19.772  0.00  0.00    +0.000 NA
ATOM      6  C   UNL     1       2.185   8.368  18.615  0.00  0.00    +0.000 A 
ATOM      7  N   UNL     1       2.974   7.704  17.712  0.00  0.00    +0.000 N 
ATOM      8  C   UNL     1       3.683   6.596  18.125  0.00  0.00    +0.000 C 
ATOM      9  O   UNL     1       3.778   6.134  19.256  0.00  0.00    +0.000 OA
ATOM     10  S   UNL     1       1.672   9.957  18.213  0.00  0.00    +0.000 S 
ATOM     11  C   UNL     1       0.883  10.064  19.734  0.00  0.00    +0.000 A 
ATOM     12  C   UNL     1       0.161  11.266  20.275  0.00  0.00    +0.000 C 
ATOM     13  H   UNL     1       3.067   8.048  16.765  0.00  0.00    +0.000 HD
ENDROOT
BRANCH   8  14
ATOM     14  C   UNL     1       4.489   5.901  17.026  0.00  0.00    +0.000 A 
ATOM     15  C   UNL     1       4.585   4.421  17.119  0.00  0.00    +0.000 A 
ATOM     16  C   UNL     1       5.225   3.783  16.138  0.00  0.00    +0.000 A 
ATOM     17  C   UNL     1       5.812   4.550  15.025  0.00  0.00    +0.000 A 
ATOM     18  O   UNL     1       6.368   3.978  14.095  0.00  0.00    +0.000 OA
ATOM     19  N   UNL     1       5.696   5.918  15.108  0.00  0.00    +0.000 N 
ATOM     20  N   UNL     1       5.026   6.618  16.083  0.00  0.00    +0.000 NA
ATOM     21  H   UNL     1       6.078   6.455  14.335  0.00  0.00    +0.000 HD
ENDBRANCH   8  14
BRANCH   1  23
ATOM     22  C   UNL     1      -2.587  12.673  21.002  0.00  0.00    +0.000 C 
ATOM     23  S   UNL     1      -1.471  12.108  22.279  0.00  0.00    +0.000 S 
ATOM     24  O   UNL     1      -0.549  13.191  22.544  0.00  0.00    +0.000 OA
ATOM     25  O   UNL     1      -2.257  11.512  23.338  0.00  0.00    +0.000 OA
ENDBRANCH   1  23
TORSDOF 2
ENDMDL
MODEL 3
REMARK VINA RESULT:      -7.1      2.715      3.276
REMARK  Name = 
REMARK  3 active torsions:
REMARK  status: ('A' for Active; 'I' for Inactive)
REMARK    1  A    between atoms: C_1  and  S_2
REMARK    2  A    between atoms: S_2  and  N_5
REMARK    3  A    between atoms: C_12  and  C_14
REMARK                            x       y       z     vdW  Elec       q    Type
REMARK                         _______ _______ _______ _____ _____    ______ ____
ROOT
ATOM      1  N   UNL     1      -0.640  12.289  20.498  0.00  0.00    +0.000 NA
ATOM      2  C   UNL     1      -0.598  11.895  19.052  0.00  0.00    +0.000 C 
ATOM      3  C   UNL     1       0.639  11.067  18.733  0.00  0.00    +0.000 C 
ATOM      4  C   UNL     1       0.805   9.996  19.737  0.00  0.00    +0.000 A 
ATOM      5  N   UNL     1       1.520   8.868  19.458  0.00  0.00    +0.000 NA
ATOM      6  C   UNL     1       1.576   8.103  20.514  0.00  0.00    +0.000 A 
ATOM      7  N   UNL     1       2.211   6.892  20.611  0.00  0.00    +0.000 N 
ATOM      8  C   UNL     1       2.575   6.229  19.459  0.00  0.00    +0.000 C 
ATOM      9  O   UNL     1       2.339   6.540  18.298  0.00  0.00    +0.000 OA
ATOM     10  S   UNL     1       0.756   8.692  21.904  0.00  0.00    +0.000 S 
ATOM     11  C   UNL     1       0.249  10.059  20.999  0.00  0.00    +0.000 A 
ATOM     12  C   UNL     1      -0.650  11.161  21.488  0.00  0.00    +0.000 C 
ATOM     13  H   UNL     1       2.371   6.472  21.518  0.00  0.00    +0.000 HD
ENDROOT
BRANCH   8  14
ATOM     14  C   UNL     1       3.322   4.912  19.682  0.00  0.00    +0.000 A 
ATOM     15  C   UNL     1       2.608   3.879  20.477  0.00  0.00    +0.000 A 
ATOM     16  C   UNL     1       3.208   2.697  20.630  0.00  0.00    +0.000 A 
ATOM     17  C   UNL     1       4.533   2.464  20.028  0.00  0.00    +0.000 A 
ATOM     18  O   UNL     1       5.080   1.372  20.124  0.00  0.00    +0.000 OA
ATOM     19  N   UNL     1       5.095   3.535  19.373  0.00  0.00    +0.000 N 
ATOM     20  N   UNL     1       4.507   4.761  19.168  0.00  0.00    +0.000 NA
ATOM     21  H   UNL     1       5.998   3.378  18.937  0.00  0.00    +0.000 HD
ENDBRANCH   8  14
BRANCH   1  23
ATOM     22  C   UNL     1      -3.251  13.053  20.402  0.00  0.00    +0.000 C 
ATOM     23  S   UNL     1      -1.619  13.622  20.860  0.00  0.00    +0.000 S 
ATOM     24  O   UNL     1      -1.269  14.684  19.943  0.00  0.00    +0.000 OA
ATOM     25  O   UNL     1      -1.593  13.825  22.293  0.00  0.00    +0.000 OA
ENDBRANCH   1  23
TORSDOF 2
ENDMDL
MODEL 4
REMARK VINA RESULT:      -7.1      0.936      1.085
REMARK  Name = 
REMARK  3 active torsions:
REMARK  status: ('A' for Active; 'I' for Inactive)
REMARK    1  A    between atoms: C_1  and  S_2
REMARK    2  A    between atoms: S_2  and  N_5
REMARK    3  A    between atoms: C_12  and  C_14
REMARK                            x       y       z     vdW  Elec       q    Type
REMARK                         _______ _______ _______ _____ _____    ______ ____
ROOT
ATOM      1  N   UNL     1      -0.770  11.554  21.578  0.00  0.00    +0.000 NA
ATOM      2  C   UNL     1      -0.275  10.532  22.556  0.00  0.00    +0.000 C 
ATOM      3  C   UNL     1      -0.101   9.168  21.901  0.00  0.00    +0.000 C 
ATOM      4  C   UNL     1       0.635   9.307  20.627  0.00  0.00    +0.000 A 
ATOM      5  N   UNL     1       1.312   8.256  20.082  0.00  0.00    +0.000 NA
ATOM      6  C   UNL     1       1.826   8.605  18.934  0.00  0.00    +0.000 A 
ATOM      7  N   UNL     1       2.570   7.811  18.099  0.00  0.00    +0.000 N 
ATOM      8  C   UNL     1       3.112   6.643  18.588  0.00  0.00    +0.000 C 
ATOM      9  O   UNL     1       3.092   6.219  19.738  0.00  0.00    +0.000 OA
ATOM     10  S   UNL     1       1.537  10.227  18.450  0.00  0.00    +0.000 S 
ATOM     11  C   UNL     1       0.693  10.493  19.921  0.00  0.00    +0.000 A 
ATOM     12  C   UNL     1       0.101  11.796  20.380  0.00  0.00    +0.000 C 
ATOM     13  H   UNL     1       2.752   8.103  17.147  0.00  0.00    +0.000 HD
ENDROOT
BRANCH   8  14
ATOM     14  C   UNL     1       3.880   5.809  17.560  0.00  0.00    +0.000 A 
ATOM     15  C   UNL     1       4.732   6.565  16.606  0.00  0.00    +0.000 A 
ATOM     16  C   UNL     1       5.464   5.859  15.742  0.00  0.00    +0.000 A 
ATOM     17  C   UNL     1       5.397   4.387  15.755  0.00  0.00    +0.000 A 
ATOM     18  O   UNL     1       6.092   3.722  14.997  0.00  0.00    +0.000 OA
ATOM     19  N   UNL     1       4.516   3.831  16.655  0.00  0.00    +0.000 N 
ATOM     20  N   UNL     1       3.762   4.513  17.579  0.00  0.00    +0.000 NA
ATOM     21  H   UNL     1       4.478   2.817  16.687  0.00  0.00    +0.000 HD
ENDBRANCH   8  14
BRANCH   1  23
ATOM     22  C   UNL     1      -2.802  12.198  23.271  0.00  0.00    +0.000 C 
ATOM     23  S   UNL     1      -1.511  12.914  22.261  0.00  0.00    +0.000 S 
ATOM     24  O   UNL     1      -2.164  13.640  21.194  0.00  0.00    +0.000 OA
ATOM     25  O   UNL     1      -0.556  13.559  23.136  0.00  0.00    +0.000 OA
ENDBRANCH   1  23
TORSDOF 2
ENDMDL
MODEL 5
REMARK VINA RESULT:      -7.0      1.252      1.453
REMARK  Name = 
REMARK  3 active torsions:
REMARK  status: ('A' for Active; 'I' for Inactive)
REMARK    1  A    between atoms: C_1  and  S_2
REMARK    2  A    between atoms: S_2  and  N_5
REMARK    3  A    between atoms: C_12  and  C_14
REMARK                            x       y       z     vdW  Elec       q    Type
REMARK                         _______ _______ _______ _____ _____    ______ ____
ROOT
ATOM      1  N   UNL     1      -1.083  11.171  21.653  0.00  0.00    +0.000 NA
ATOM      2  C   UNL     1      -0.372  10.251  22.599  0.00  0.00    +0.000 C 
ATOM      3  C   UNL     1      -0.033   8.921  21.940  0.00  0.00    +0.000 C 
ATOM      4  C   UNL     1       0.587   9.153  20.619  0.00  0.00    +0.000 A 
ATOM      5  N   UNL     1       1.381   8.211  20.034  0.00  0.00    +0.000 NA
ATOM      6  C   UNL     1       1.757   8.618  18.852  0.00  0.00    +0.000 A 
ATOM      7  N   UNL     1       2.558   7.937  17.972  0.00  0.00    +0.000 N 
ATOM      8  C   UNL     1       3.306   6.873  18.429  0.00  0.00    +0.000 C 
ATOM      9  O   UNL     1       3.428   6.469  19.578  0.00  0.00    +0.000 OA
ATOM     10  S   UNL     1       1.188  10.169  18.382  0.00  0.00    +0.000 S 
ATOM     11  C   UNL     1       0.413  10.323  19.905  0.00  0.00    +0.000 A 
ATOM     12  C   UNL     1      -0.343  11.526  20.397  0.00  0.00    +0.000 C 
ATOM     13  H   UNL     1       2.629   8.239  17.008  0.00  0.00    +0.000 HD
ENDROOT
BRANCH   8  14
ATOM     14  C   UNL     1       4.124   6.153  17.354  0.00  0.00    +0.000 A 
ATOM     15  C   UNL     1       4.070   4.668  17.375  0.00  0.00    +0.000 A 
ATOM     16  C   UNL     1       4.719   4.015  16.409  0.00  0.00    +0.000 A 
ATOM     17  C   UNL     1       5.459   4.771  15.382  0.00  0.00    +0.000 A 
ATOM     18  O   UNL     1       6.026   4.190  14.465  0.00  0.00    +0.000 OA
ATOM     19  N   UNL     1       5.468   6.138  15.529  0.00  0.00    +0.000 N 
ATOM     20  N   UNL     1       4.796   6.856  16.490  0.00  0.00    +0.000 NA
ATOM     21  H   UNL     1       5.957   6.669  14.815  0.00  0.00    +0.000 HD
ENDBRANCH   8  14
BRANCH   1  23
ATOM     22  C   UNL     1      -0.714  13.545  22.932  0.00  0.00    +0.000 C 
ATOM     23  S   UNL     1      -1.980  12.410  22.379  0.00  0.00    +0.000 S 
ATOM     24  O   UNL     1      -2.604  11.863  23.564  0.00  0.00    +0.000 OA
ATOM     25  O   UNL     1      -2.760  13.065  21.351  0.00  0.00    +0.000 OA
ENDBRANCH   1  23
TORSDOF 2
ENDMDL
MODEL 6
REMARK VINA RESULT:      -7.0      3.457      8.644
REMARK  Name = 
REMARK  3 active torsions:
REMARK  status: ('A' for Active; 'I' for Inactive)
REMARK    1  A    between atoms: C_1  and  S_2
REMARK    2  A    between atoms: S_2  and  N_5
REMARK    3  A    between atoms: C_12  and  C_14
REMARK                            x       y       z     vdW  Elec       q    Type
REMARK                         _______ _______ _______ _____ _____    ______ ____
ROOT
ATOM      1  N   UNL     1       3.053   4.450  19.451  0.00  0.00    +0.000 NA
ATOM      2  C   UNL     1       3.966   5.133  18.479  0.00  0.00    +0.000 C 
ATOM      3  C   UNL     1       3.266   6.279  17.761  0.00  0.00    +0.000 C 
ATOM      4  C   UNL     1       2.551   7.127  18.737  0.00  0.00    +0.000 A 
ATOM      5  N   UNL     1       2.240   8.424  18.454  0.00  0.00    +0.000 NA
ATOM      6  C   UNL     1       1.559   8.944  19.440  0.00  0.00    +0.000 A 
ATOM      7  N   UNL     1       1.074  10.224  19.509  0.00  0.00    +0.000 N 
ATOM      8  C   UNL     1       1.567  11.179  18.646  0.00  0.00    +0.000 C 
ATOM      9  O   UNL     1       2.475  11.068  17.831  0.00  0.00    +0.000 OA
ATOM     10  S   UNL     1       1.267   7.903  20.774  0.00  0.00    +0.000 S 
ATOM     11  C   UNL     1       2.165   6.672  19.983  0.00  0.00    +0.000 A 
ATOM     12  C   UNL     1       2.484   5.313  20.539  0.00  0.00    +0.000 C 
ATOM     13  H   UNL     1       0.391  10.473  20.214  0.00  0.00    +0.000 HD
ENDROOT
BRANCH   8  14
ATOM     14  C   UNL     1       0.919  12.559  18.773  0.00  0.00    +0.000 A 
ATOM     15  C   UNL     1       1.829  13.681  19.126  0.00  0.00    +0.000 A 
ATOM     16  C   UNL     1       1.303  14.906  19.178  0.00  0.00    +0.000 A 
ATOM     17  C   UNL     1      -0.131  15.101  18.900  0.00  0.00    +0.000 A 
ATOM     18  O   UNL     1      -0.622  16.223  18.904  0.00  0.00    +0.000 OA
ATOM     19  N   UNL     1      -0.858  13.961  18.649  0.00  0.00    +0.000 N 
ATOM     20  N   UNL     1      -0.358  12.683  18.560  0.00  0.00    +0.000 NA
ATOM     21  H   UNL     1      -1.842  14.086  18.435  0.00  0.00    +0.000 HD
ENDBRANCH   8  14
BRANCH   1  23
ATOM     22  C   UNL     1       2.851   1.890  18.547  0.00  0.00    +0.000 C 
ATOM     23  S   UNL     1       3.502   2.877  19.889  0.00  0.00    +0.000 S 
ATOM     24  O   UNL     1       2.755   2.523  21.075  0.00  0.00    +0.000 OA
ATOM     25  O   UNL     1       4.946   2.793  19.855  0.00  0.00    +0.000 OA
ENDBRANCH   1  23
TORSDOF 2
ENDMDL
MODEL 7
REMARK VINA RESULT:      -6.9      2.802      9.152
REMARK  Name = 
REMARK  3 active torsions:
REMARK  status: ('A' for Active; 'I' for Inactive)
REMARK    1  A    between atoms: C_1  and  S_2
REMARK    2  A    between atoms: S_2  and  N_5
REMARK    3  A    between atoms: C_12  and  C_14
REMARK                            x       y       z     vdW  Elec       q    Type
REMARK                         _______ _______ _______ _____ _____    ______ ____
ROOT
ATOM      1  N   UNL     1       3.018   4.234  18.904  0.00  0.00    +0.000 NA
ATOM      2  C   UNL     1       1.965   3.899  19.917  0.00  0.00    +0.000 C 
ATOM      3  C   UNL     1       1.866   4.968  20.997  0.00  0.00    +0.000 C 
ATOM      4  C   UNL     1       1.817   6.309  20.380  0.00  0.00    +0.000 A 
ATOM      5  N   UNL     1       1.283   7.375  21.043  0.00  0.00    +0.000 NA
ATOM      6  C   UNL     1       1.409   8.457  20.323  0.00  0.00    +0.000 A 
ATOM      7  N   UNL     1       0.992   9.717  20.664  0.00  0.00    +0.000 N 
ATOM      8  C   UNL     1       0.091   9.871  21.696  0.00  0.00    +0.000 C 
ATOM      9  O   UNL     1      -0.482   9.000  22.340  0.00  0.00    +0.000 OA
ATOM     10  S   UNL     1       2.166   8.250  18.795  0.00  0.00    +0.000 S 
ATOM     11  C   UNL     1       2.293   6.567  19.109  0.00  0.00    +0.000 A 
ATOM     12  C   UNL     1       2.836   5.529  18.168  0.00  0.00    +0.000 C 
ATOM     13  H   UNL     1       1.311  10.520  20.137  0.00  0.00    +0.000 HD
ENDROOT
BRANCH   8  14
ATOM     14  C   UNL     1      -0.267  11.321  22.027  0.00  0.00    +0.000 A 
ATOM     15  C   UNL     1      -1.432  11.520  22.929  0.00  0.00    +0.000 A 
ATOM     16  C   UNL     1      -1.725  12.771  23.288  0.00  0.00    +0.000 A 
ATOM     17  C   UNL     1      -0.909  13.890  22.783  0.00  0.00    +0.000 A 
ATOM     18  O   UNL     1      -1.139  15.040  23.136  0.00  0.00    +0.000 OA
ATOM     19  N   UNL     1       0.098  13.555  21.908  0.00  0.00    +0.000 N 
ATOM     20  N   UNL     1       0.454  12.283  21.529  0.00  0.00    +0.000 NA
ATOM     21  H   UNL     1       0.679  14.316  21.571  0.00  0.00    +0.000 HD
ENDBRANCH   8  14
BRANCH   1  23
ATOM     22  C   UNL     1       4.367   1.895  19.247  0.00  0.00    +0.000 C 
ATOM     23  S   UNL     1       3.601   2.925  18.002  0.00  0.00    +0.000 S 
ATOM     24  O   UNL     1       4.662   3.418  17.151  0.00  0.00    +0.000 OA
ATOM     25  O   UNL     1       2.467   2.212  17.456  0.00  0.00    +0.000 OA
ENDBRANCH   1  23
TORSDOF 2
ENDMDL
MODEL 8
REMARK VINA RESULT:      -6.8      3.305      8.624
REMARK  Name = 
REMARK  3 active torsions:
REMARK  status: ('A' for Active; 'I' for Inactive)
REMARK    1  A    between atoms: C_1  and  S_2
REMARK    2  A    between atoms: S_2  and  N_5
REMARK    3  A    between atoms: C_12  and  C_14
REMARK                            x       y       z     vdW  Elec       q    Type
REMARK                         _______ _______ _______ _____ _____    ______ ____
ROOT
ATOM      1  N   UNL     1       3.186   4.362  19.269  0.00  0.00    +0.000 NA
ATOM      2  C   UNL     1       1.989   4.444  20.167  0.00  0.00    +0.000 C 
ATOM      3  C   UNL     1       1.859   5.821  20.804  0.00  0.00    +0.000 C 
ATOM      4  C   UNL     1       2.015   6.872  19.778  0.00  0.00    +0.000 A 
ATOM      5  N   UNL     1       1.507   8.124  19.962  0.00  0.00    +0.000 NA
ATOM      6  C   UNL     1       1.824   8.887  18.952  0.00  0.00    +0.000 A 
ATOM      7  N   UNL     1       1.490  10.207  18.791  0.00  0.00    +0.000 N 
ATOM      8  C   UNL     1       0.486  10.746  19.566  0.00  0.00    +0.000 C 
ATOM      9  O   UNL     1      -0.242  10.176  20.369  0.00  0.00    +0.000 OA
ATOM     10  S   UNL     1       2.742   8.136  17.710  0.00  0.00    +0.000 S 
ATOM     11  C   UNL     1       2.667   6.657  18.579  0.00  0.00    +0.000 A 
ATOM     12  C   UNL     1       3.222   5.335  18.127  0.00  0.00    +0.000 C 
ATOM     13  H   UNL     1       1.947  10.766  18.081  0.00  0.00    +0.000 HD
ENDROOT
BRANCH   8  14
ATOM     14  C   UNL     1       0.230  12.238  19.341  0.00  0.00    +0.000 A 
ATOM     15  C   UNL     1       1.431  13.084  19.116  0.00  0.00    +0.000 A 
ATOM     16  C   UNL     1       1.232  14.376  18.851  0.00  0.00    +0.000 A 
ATOM     17  C   UNL     1      -0.139  14.913  18.801  0.00  0.00    +0.000 A 
ATOM     18  O   UNL     1      -0.342  16.087  18.519  0.00  0.00    +0.000 OA
ATOM     19  N   UNL     1      -1.147  14.022  19.091  0.00  0.00    +0.000 N 
ATOM     20  N   UNL     1      -0.994  12.679  19.345  0.00  0.00    +0.000 NA
ATOM     21  H   UNL     1      -2.096  14.376  19.038  0.00  0.00    +0.000 HD
ENDBRANCH   8  14
BRANCH   1  23
ATOM     22  C   UNL     1       2.302   1.789  19.235  0.00  0.00    +0.000 C 
ATOM     23  S   UNL     1       3.750   2.798  18.949  0.00  0.00    +0.000 S 
ATOM     24  O   UNL     1       4.710   2.460  19.977  0.00  0.00    +0.000 OA
ATOM     25  O   UNL     1       4.090   2.719  17.545  0.00  0.00    +0.000 OA
ENDBRANCH   1  23
TORSDOF 2
ENDMDL
MODEL 9
REMARK VINA RESULT:      -6.7      2.640      3.215
REMARK  Name = 
REMARK  3 active torsions:
REMARK  status: ('A' for Active; 'I' for Inactive)
REMARK    1  A    between atoms: C_1  and  S_2
REMARK    2  A    between atoms: S_2  and  N_5
REMARK    3  A    between atoms: C_12  and  C_14
REMARK                            x       y       z     vdW  Elec       q    Type
REMARK                         _______ _______ _______ _____ _____    ______ ____
ROOT
ATOM      1  N   UNL     1      -0.672  12.970  22.503  0.00  0.00    +0.000 NA
ATOM      2  C   UNL     1      -0.193  13.169  21.097  0.00  0.00    +0.000 C 
ATOM      3  C   UNL     1       0.990  12.266  20.775  0.00  0.00    +0.000 C 
ATOM      4  C   UNL     1       0.705  10.883  21.210  0.00  0.00    +0.000 A 
ATOM      5  N   UNL     1       1.355   9.818  20.657  0.00  0.00    +0.000 NA
ATOM      6  C   UNL     1       0.981   8.714  21.244  0.00  0.00    +0.000 A 
ATOM      7  N   UNL     1       1.422   7.449  20.958  0.00  0.00    +0.000 N 
ATOM      8  C   UNL     1       2.079   7.218  19.768  0.00  0.00    +0.000 C 
ATOM      9  O   UNL     1       2.273   8.000  18.845  0.00  0.00    +0.000 OA
ATOM     10  S   UNL     1      -0.189   8.892  22.489  0.00  0.00    +0.000 S 
ATOM     11  C   UNL     1      -0.229  10.580  22.182  0.00  0.00    +0.000 A 
ATOM     12  C   UNL     1      -1.123  11.583  22.856  0.00  0.00    +0.000 C 
ATOM     13  H   UNL     1       1.230   6.685  21.594  0.00  0.00    +0.000 HD
ENDROOT
BRANCH   8  14
ATOM     14  C   UNL     1       2.573   5.784  19.572  0.00  0.00    +0.000 A 
ATOM     15  C   UNL     1       3.131   5.458  18.233  0.00  0.00    +0.000 A 
ATOM     16  C   UNL     1       3.631   4.234  18.056  0.00  0.00    +0.000 A 
ATOM     17  C   UNL     1       3.606   3.264  19.165  0.00  0.00    +0.000 A 
ATOM     18  O   UNL     1       4.097   2.150  19.033  0.00  0.00    +0.000 OA
ATOM     19  N   UNL     1       3.002   3.689  20.326  0.00  0.00    +0.000 N 
ATOM     20  N   UNL     1       2.497   4.945  20.564  0.00  0.00    +0.000 NA
ATOM     21  H   UNL     1       2.999   3.036  21.103  0.00  0.00    +0.000 HD
ENDBRANCH   8  14
BRANCH   1  23
ATOM     22  C   UNL     1      -3.034  13.424  23.778  0.00  0.00    +0.000 C 
ATOM     23  S   UNL     1      -1.576  14.247  23.150  0.00  0.00    +0.000 S 
ATOM     24  O   UNL     1      -2.004  15.083  22.050  0.00  0.00    +0.000 OA
ATOM     25  O   UNL     1      -0.845  14.794  24.273  0.00  0.00    +0.000 OA
ENDBRANCH   1  23
TORSDOF 2
ENDMDL
