MODEL 1
REMARK VINA RESULT:      -8.7      0.000      0.000
REMARK  Name = 
REMARK  3 active torsions:
REMARK  status: ('A' for Active; 'I' for Inactive)
REMARK    1  A    between atoms: C_2  and  C_3
REMARK    2  A    between atoms: C_2  and  C_19
REMARK    3  A    between atoms: C_9  and  C_11
REMARK                            x       y       z     vdW  Elec       q    Type
REMARK                         _______ _______ _______ _____ _____    ______ ____
ROOT
ATOM      1  C   UNL     1       0.250  10.010  20.135  0.00  0.00    +0.000 C 
ATOM      2  O   UNL     1      -0.159  10.238  21.269  0.00  0.00    +0.000 OA
ATOM      3  N   UNL     1       1.083   8.941  19.790  0.00  0.00    +0.000 N 
ATOM      4  C   UNL     1       1.569   8.082  20.869  0.00  0.00    +0.000 C 
ATOM      5  C   UNL     1       1.815   6.655  20.387  0.00  0.00    +0.000 C 
ATOM      6  N   UNL     1       2.652   6.626  19.181  0.00  0.00    +0.000 N 
ATOM      7  C   UNL     1       3.603   5.603  19.060  0.00  0.00    +0.000 C 
ATOM      8  O   UNL     1       3.715   4.725  19.904  0.00  0.00    +0.000 OA
ATOM      9  C   UNL     1       2.108   7.446  18.083  0.00  0.00    +0.000 C 
ATOM     10  C   UNL     1       1.869   8.888  18.545  0.00  0.00    +0.000 C 
ENDROOT
BRANCH   7  11
ATOM     11  C   UNL     1       4.533   5.559  17.906  0.00  0.00    +0.000 A 
ATOM     12  C   UNL     1       5.657   6.384  17.812  0.00  0.00    +0.000 A 
ATOM     13  C   UNL     1       6.510   6.290  16.708  0.00  0.00    +0.000 A 
ATOM     14  C   UNL     1       6.281   5.324  15.725  0.00  0.00    +0.000 A 
ATOM     15  C   UNL     1       5.203   4.450  15.845  0.00  0.00    +0.000 A 
ATOM     16  C   UNL     1       4.327   4.568  16.936  0.00  0.00    +0.000 A 
ENDBRANCH   7  11
BRANCH   1  18
ATOM     17  O   UNL     1       0.582  11.989  18.934  0.00  0.00    +0.000 OA
ATOM     18  C   UNL     1      -0.133  10.987  19.037  0.00  0.00    +0.000 C 
BRANCH  18  19
ATOM     19  C   UNL     1      -1.337  10.846  18.219  0.00  0.00    +0.000 A 
ATOM     20  C   UNL     1      -1.318   9.997  17.120  0.00  0.00    +0.000 A 
ATOM     21  N   UNL     1      -2.313  10.410  16.291  0.00  0.00    +0.000 N 
ATOM     22  C   UNL     1      -3.284  11.007  17.051  0.00  0.00    +0.000 A 
ATOM     23  C   UNL     1      -4.621  11.260  16.727  0.00  0.00    +0.000 A 
ATOM     24  C   UNL     1      -5.413  11.832  17.717  0.00  0.00    +0.000 A 
ATOM     25  F   UNL     1      -6.727  11.968  17.462  0.00  0.00    +0.000 F 
ATOM     26  C   UNL     1      -4.876  12.223  18.938  0.00  0.00    +0.000 A 
ATOM     27 BR   UNL     1      -6.016  12.956  20.263  0.00  0.00    +0.000 Br
ATOM     28  C   UNL     1      -3.503  12.029  19.209  0.00  0.00    +0.000 A 
ATOM     29  F   UNL     1      -3.003  12.403  20.391  0.00  0.00    +0.000 F 
ATOM     30  C   UNL     1      -2.686  11.355  18.273  0.00  0.00    +0.000 A 
ATOM     31  H   UNL     1      -2.380  10.194  15.305  0.00  0.00    +0.000 HD
ENDBRANCH  18  19
ENDBRANCH   1  18
TORSDOF 3
ENDMDL
MODEL 2
REMARK VINA RESULT:      -8.5      2.430      3.777
REMARK  Name = 
REMARK  3 active torsions:
REMARK  status: ('A' for Active; 'I' for Inactive)
REMARK    1  A    between atoms: C_2  and  C_3
REMARK    2  A    between atoms: C_2  and  C_19
REMARK    3  A    between atoms: C_9  and  C_11
REMARK                            x       y       z     vdW  Elec       q    Type
REMARK                         _______ _______ _______ _____ _____    ______ ____
ROOT
ATOM      1  C   UNL     1       1.109  11.329  19.219  0.00  0.00    +0.000 C 
ATOM      2  O   UNL     1       1.191  12.142  18.302  0.00  0.00    +0.000 OA
ATOM      3  N   UNL     1       1.463   9.980  19.118  0.00  0.00    +0.000 N 
ATOM      4  C   UNL     1       1.881   9.483  17.810  0.00  0.00    +0.000 C 
ATOM      5  C   UNL     1       2.871   8.327  17.934  0.00  0.00    +0.000 C 
ATOM      6  N   UNL     1       2.373   7.281  18.837  0.00  0.00    +0.000 N 
ATOM      7  C   UNL     1       2.624   5.943  18.502  0.00  0.00    +0.000 C 
ATOM      8  O   UNL     1       3.277   5.639  17.513  0.00  0.00    +0.000 OA
ATOM      9  C   UNL     1       2.020   7.795  20.173  0.00  0.00    +0.000 C 
ATOM     10  C   UNL     1       1.014   8.946  20.068  0.00  0.00    +0.000 C 
ENDROOT
BRANCH   7  11
ATOM     11  C   UNL     1       2.083   4.836  19.327  0.00  0.00    +0.000 A 
ATOM     12  C   UNL     1       1.258   3.838  18.802  0.00  0.00    +0.000 A 
ATOM     13  C   UNL     1       0.789   2.808  19.622  0.00  0.00    +0.000 A 
ATOM     14  C   UNL     1       1.197   2.733  20.956  0.00  0.00    +0.000 A 
ATOM     15  C   UNL     1       2.075   3.684  21.471  0.00  0.00    +0.000 A 
ATOM     16  C   UNL     1       2.518   4.737  20.656  0.00  0.00    +0.000 A 
ENDBRANCH   7  11
BRANCH   1  18
ATOM     17  O   UNL     1       1.270  11.693  21.524  0.00  0.00    +0.000 OA
ATOM     18  C   UNL     1       0.533  11.810  20.540  0.00  0.00    +0.000 C 
BRANCH  18  19
ATOM     19  C   UNL     1      -0.848  12.269  20.695  0.00  0.00    +0.000 A 
ATOM     20  C   UNL     1      -1.158  13.160  21.714  0.00  0.00    +0.000 A 
ATOM     21  N   UNL     1      -2.491  13.033  21.950  0.00  0.00    +0.000 N 
ATOM     22  C   UNL     1      -3.094  12.623  20.790  0.00  0.00    +0.000 A 
ATOM     23  C   UNL     1      -4.443  12.697  20.427  0.00  0.00    +0.000 A 
ATOM     24  C   UNL     1      -4.779  12.255  19.152  0.00  0.00    +0.000 A 
ATOM     25  F   UNL     1      -6.049  12.434  18.746  0.00  0.00    +0.000 F 
ATOM     26  C   UNL     1      -3.833  11.679  18.313  0.00  0.00    +0.000 A 
ATOM     27 BR   UNL     1      -4.344  11.138  16.569  0.00  0.00    +0.000 Br
ATOM     28  C   UNL     1      -2.492  11.542  18.736  0.00  0.00    +0.000 A 
ATOM     29  F   UNL     1      -1.592  10.992  17.914  0.00  0.00    +0.000 F 
ATOM     30  C   UNL     1      -2.086  12.073  19.981  0.00  0.00    +0.000 A 
ATOM     31  H   UNL     1      -2.965  13.321  22.795  0.00  0.00    +0.000 HD
ENDBRANCH  18  19
ENDBRANCH   1  18
TORSDOF 3
ENDMDL
MODEL 3
REMARK VINA RESULT:      -8.4      2.118      2.636
REMARK  Name = 
REMARK  3 active torsions:
REMARK  status: ('A' for Active; 'I' for Inactive)
REMARK    1  A    between atoms: C_2  and  C_3
REMARK    2  A    between atoms: C_2  and  C_19
REMARK    3  A    between atoms: C_9  and  C_11
REMARK                            x       y       z     vdW  Elec       q    Type
REMARK                         _______ _______ _______ _____ _____    ______ ____
ROOT
ATOM      1  C   UNL     1       0.879   8.604  20.462  0.00  0.00    +0.000 C 
ATOM      2  O   UNL     1       0.326   8.624  21.557  0.00  0.00    +0.000 OA
ATOM      3  N   UNL     1       1.629   7.532  19.969  0.00  0.00    +0.000 N 
ATOM      4  C   UNL     1       1.837   6.385  20.851  0.00  0.00    +0.000 C 
ATOM      5  C   UNL     1       1.991   5.087  20.064  0.00  0.00    +0.000 C 
ATOM      6  N   UNL     1       2.998   5.211  19.003  0.00  0.00    +0.000 N 
ATOM      7  C   UNL     1       3.833   4.113  18.751  0.00  0.00    +0.000 C 
ATOM      8  O   UNL     1       3.709   3.058  19.357  0.00  0.00    +0.000 OA
ATOM      9  C   UNL     1       2.731   6.333  18.085  0.00  0.00    +0.000 C 
ATOM     10  C   UNL     1       2.590   7.650  18.858  0.00  0.00    +0.000 C 
ENDROOT
BRANCH   7  11
ATOM     11  C   UNL     1       4.922   4.198  17.748  0.00  0.00    +0.000 A 
ATOM     12  C   UNL     1       4.719   3.938  16.390  0.00  0.00    +0.000 A 
ATOM     13  C   UNL     1       5.778   4.049  15.485  0.00  0.00    +0.000 A 
ATOM     14  C   UNL     1       7.031   4.485  15.923  0.00  0.00    +0.000 A 
ATOM     15  C   UNL     1       7.226   4.814  17.262  0.00  0.00    +0.000 A 
ATOM     16  C   UNL     1       6.171   4.670  18.176  0.00  0.00    +0.000 A 
ENDBRANCH   7  11
BRANCH   1  18
ATOM     17  O   UNL     1       1.844  10.228  19.082  0.00  0.00    +0.000 OA
ATOM     18  C   UNL     1       0.789   9.854  19.603  0.00  0.00    +0.000 C 
BRANCH  18  19
ATOM     19  C   UNL     1      -0.426  10.660  19.482  0.00  0.00    +0.000 A 
ATOM     20  C   UNL     1      -0.649  11.694  20.381  0.00  0.00    +0.000 A 
ATOM     21  N   UNL     1      -1.987  11.932  20.379  0.00  0.00    +0.000 N 
ATOM     22  C   UNL     1      -2.483  11.577  19.151  0.00  0.00    +0.000 A 
ATOM     23  C   UNL     1      -3.687  11.955  18.547  0.00  0.00    +0.000 A 
ATOM     24  C   UNL     1      -3.917  11.492  17.256  0.00  0.00    +0.000 A 
ATOM     25  F   UNL     1      -5.012  11.946  16.618  0.00  0.00    +0.000 F 
ATOM     26  C   UNL     1      -3.036  10.617  16.633  0.00  0.00    +0.000 A 
ATOM     27 BR   UNL     1      -3.384  10.057  14.855  0.00  0.00    +0.000 Br
ATOM     28  C   UNL     1      -1.867  10.187  17.298  0.00  0.00    +0.000 A 
ATOM     29  F   UNL     1      -1.024   9.351  16.681  0.00  0.00    +0.000 F 
ATOM     30  C   UNL     1      -1.540  10.715  18.567  0.00  0.00    +0.000 A 
ATOM     31  H   UNL     1      -2.498  12.410  21.109  0.00  0.00    +0.000 HD
ENDBRANCH  18  19
ENDBRANCH   1  18
TORSDOF 3
ENDMDL
MODEL 4
REMARK VINA RESULT:      -8.3      2.386      3.550
REMARK  Name = 
REMARK  3 active torsions:
REMARK  status: ('A' for Active; 'I' for Inactive)
REMARK    1  A    between atoms: C_2  and  C_3
REMARK    2  A    between atoms: C_2  and  C_19
REMARK    3  A    between atoms: C_9  and  C_11
REMARK                            x       y       z     vdW  Elec       q    Type
REMARK                         _______ _______ _______ _____ _____    ______ ____
ROOT
ATOM      1  C   UNL     1       0.986  11.491  19.151  0.00  0.00    +0.000 C 
ATOM      2  O   UNL     1       1.230  12.377  18.338  0.00  0.00    +0.000 OA
ATOM      3  N   UNL     1       1.399  10.162  19.025  0.00  0.00    +0.000 N 
ATOM      4  C   UNL     1       2.100   9.780  17.800  0.00  0.00    +0.000 C 
ATOM      5  C   UNL     1       3.080   8.636  18.043  0.00  0.00    +0.000 C 
ATOM      6  N   UNL     1       2.441   7.511  18.738  0.00  0.00    +0.000 N 
ATOM      7  C   UNL     1       2.803   6.210  18.362  0.00  0.00    +0.000 C 
ATOM      8  O   UNL     1       3.659   5.999  17.514  0.00  0.00    +0.000 OA
ATOM      9  C   UNL     1       1.799   7.907  20.004  0.00  0.00    +0.000 C 
ATOM     10  C   UNL     1       0.797   9.045  19.776  0.00  0.00    +0.000 C 
ENDROOT
BRANCH   7  11
ATOM     11  C   UNL     1       2.140   5.029  18.967  0.00  0.00    +0.000 A 
ATOM     12  C   UNL     1       1.977   4.880  20.347  0.00  0.00    +0.000 A 
ATOM     13  C   UNL     1       1.329   3.754  20.862  0.00  0.00    +0.000 A 
ATOM     14  C   UNL     1       0.782   2.803  19.998  0.00  0.00    +0.000 A 
ATOM     15  C   UNL     1       0.877   2.978  18.620  0.00  0.00    +0.000 A 
ATOM     16  C   UNL     1       1.557   4.091  18.103  0.00  0.00    +0.000 A 
ENDBRANCH   7  11
BRANCH   1  18
ATOM     17  O   UNL     1       0.676  11.748  21.455  0.00  0.00    +0.000 OA
ATOM     18  C   UNL     1       0.129  11.852  20.353  0.00  0.00    +0.000 C 
BRANCH  18  19
ATOM     19  C   UNL     1      -1.293  12.182  20.256  0.00  0.00    +0.000 A 
ATOM     20  C   UNL     1      -1.857  13.040  21.191  0.00  0.00    +0.000 A 
ATOM     21  N   UNL     1      -3.193  12.791  21.192  0.00  0.00    +0.000 N 
ATOM     22  C   UNL     1      -3.543  12.327  19.951  0.00  0.00    +0.000 A 
ATOM     23  C   UNL     1      -4.809  12.277  19.356  0.00  0.00    +0.000 A 
ATOM     24  C   UNL     1      -4.873  11.807  18.049  0.00  0.00    +0.000 A 
ATOM     25  F   UNL     1      -6.063  11.869  17.424  0.00  0.00    +0.000 F 
ATOM     26  C   UNL     1      -3.746  11.320  17.398  0.00  0.00    +0.000 A 
ATOM     27 BR   UNL     1      -3.891  10.735  15.601  0.00  0.00    +0.000 Br
ATOM     28  C   UNL     1      -2.494  11.307  18.051  0.00  0.00    +0.000 A 
ATOM     29  F   UNL     1      -1.417  10.843  17.409  0.00  0.00    +0.000 F 
ATOM     30  C   UNL     1      -2.363  11.873  19.340  0.00  0.00    +0.000 A 
ATOM     31  H   UNL     1      -3.833  13.034  21.936  0.00  0.00    +0.000 HD
ENDBRANCH  18  19
ENDBRANCH   1  18
TORSDOF 3
ENDMDL
MODEL 5
REMARK VINA RESULT:      -8.2      2.705      3.868
REMARK  Name = 
REMARK  3 active torsions:
REMARK  status: ('A' for Active; 'I' for Inactive)
REMARK    1  A    between atoms: C_2  and  C_3
REMARK    2  A    between atoms: C_2  and  C_19
REMARK    3  A    between atoms: C_9  and  C_11
REMARK                            x       y       z     vdW  Elec       q    Type
REMARK                         _______ _______ _______ _____ _____    ______ ____
ROOT
ATOM      1  C   UNL     1       0.814  11.439  19.149  0.00  0.00    +0.000 C 
ATOM      2  O   UNL     1       1.035  12.291  18.295  0.00  0.00    +0.000 OA
ATOM      3  N   UNL     1       1.267  10.118  19.090  0.00  0.00    +0.000 N 
ATOM      4  C   UNL     1       1.986   9.698  17.889  0.00  0.00    +0.000 C 
ATOM      5  C   UNL     1       2.999   8.598  18.191  0.00  0.00    +0.000 C 
ATOM      6  N   UNL     1       2.390   7.489  18.937  0.00  0.00    +0.000 N 
ATOM      7  C   UNL     1       2.793   6.183  18.626  0.00  0.00    +0.000 C 
ATOM      8  O   UNL     1       3.660   5.957  17.793  0.00  0.00    +0.000 OA
ATOM      9  C   UNL     1       1.729   7.927  20.179  0.00  0.00    +0.000 C 
ATOM     10  C   UNL     1       0.695   9.021  19.892  0.00  0.00    +0.000 C 
ENDROOT
BRANCH   7  11
ATOM     11  C   UNL     1       2.162   5.013  19.285  0.00  0.00    +0.000 A 
ATOM     12  C   UNL     1       1.407   4.069  18.584  0.00  0.00    +0.000 A 
ATOM     13  C   UNL     1       0.849   2.976  19.253  0.00  0.00    +0.000 A 
ATOM     14  C   UNL     1       1.096   2.786  20.614  0.00  0.00    +0.000 A 
ATOM     15  C   UNL     1       1.905   3.683  21.307  0.00  0.00    +0.000 A 
ATOM     16  C   UNL     1       2.438   4.799  20.643  0.00  0.00    +0.000 A 
ENDBRANCH   7  11
BRANCH   1  18
ATOM     17  O   UNL     1       0.500  11.862  21.428  0.00  0.00    +0.000 OA
ATOM     18  C   UNL     1      -0.060  11.831  20.329  0.00  0.00    +0.000 C 
BRANCH  18  19
ATOM     19  C   UNL     1      -1.504  12.041  20.224  0.00  0.00    +0.000 A 
ATOM     20  C   UNL     1      -2.135  11.836  19.004  0.00  0.00    +0.000 A 
ATOM     21  N   UNL     1      -3.293  12.547  19.039  0.00  0.00    +0.000 N 
ATOM     22  C   UNL     1      -3.695  12.646  20.345  0.00  0.00    +0.000 A 
ATOM     23  C   UNL     1      -4.962  12.952  20.854  0.00  0.00    +0.000 A 
ATOM     24  C   UNL     1      -5.110  12.928  22.236  0.00  0.00    +0.000 A 
ATOM     25  F   UNL     1      -6.348  13.100  22.733  0.00  0.00    +0.000 F 
ATOM     26  C   UNL     1      -4.026  12.703  23.076  0.00  0.00    +0.000 A 
ATOM     27 BR   UNL     1      -4.301  12.637  24.951  0.00  0.00    +0.000 Br
ATOM     28  C   UNL     1      -2.740  12.476  22.538  0.00  0.00    +0.000 A 
ATOM     29  F   UNL     1      -1.708  12.253  23.359  0.00  0.00    +0.000 F 
ATOM     30  C   UNL     1      -2.565  12.387  21.138  0.00  0.00    +0.000 A 
ATOM     31  H   UNL     1      -3.828  12.834  18.230  0.00  0.00    +0.000 HD
ENDBRANCH  18  19
ENDBRANCH   1  18
TORSDOF 3
ENDMDL
MODEL 6
REMARK VINA RESULT:      -8.1      1.951      2.272
REMARK  Name = 
REMARK  3 active torsions:
REMARK  status: ('A' for Active; 'I' for Inactive)
REMARK    1  A    between atoms: C_2  and  C_3
REMARK    2  A    between atoms: C_2  and  C_19
REMARK    3  A    between atoms: C_9  and  C_11
REMARK                            x       y       z     vdW  Elec       q    Type
REMARK                         _______ _______ _______ _____ _____    ______ ____
ROOT
ATOM      1  C   UNL     1       0.673   9.874  20.999  0.00  0.00    +0.000 C 
ATOM      2  O   UNL     1       0.379   9.916  22.190  0.00  0.00    +0.000 OA
ATOM      3  N   UNL     1       1.287   8.787  20.370  0.00  0.00    +0.000 N 
ATOM      4  C   UNL     1       1.682   7.653  21.204  0.00  0.00    +0.000 C 
ATOM      5  C   UNL     1       1.649   6.340  20.426  0.00  0.00    +0.000 C 
ATOM      6  N   UNL     1       2.392   6.438  19.163  0.00  0.00    +0.000 N 
ATOM      7  C   UNL     1       3.143   5.329  18.750  0.00  0.00    +0.000 C 
ATOM      8  O   UNL     1       3.154   4.285  19.387  0.00  0.00    +0.000 OA
ATOM      9  C   UNL     1       1.931   7.548  18.309  0.00  0.00    +0.000 C 
ATOM     10  C   UNL     1       1.974   8.878  19.070  0.00  0.00    +0.000 C 
ENDROOT
BRANCH   7  11
ATOM     11  C   UNL     1       3.980   5.388  17.527  0.00  0.00    +0.000 A 
ATOM     12  C   UNL     1       4.558   6.573  17.065  0.00  0.00    +0.000 A 
ATOM     13  C   UNL     1       5.352   6.568  15.914  0.00  0.00    +0.000 A 
ATOM     14  C   UNL     1       5.626   5.366  15.256  0.00  0.00    +0.000 A 
ATOM     15  C   UNL     1       5.111   4.170  15.749  0.00  0.00    +0.000 A 
ATOM     16  C   UNL     1       4.286   4.180  16.885  0.00  0.00    +0.000 A 
ENDBRANCH   7  11
BRANCH   1  18
ATOM     17  O   UNL     1       1.389  11.771  19.834  0.00  0.00    +0.000 OA
ATOM     18  C   UNL     1       0.398  11.110  20.160  0.00  0.00    +0.000 C 
BRANCH  18  19
ATOM     19  C   UNL     1      -0.949  11.587  19.849  0.00  0.00    +0.000 A 
ATOM     20  C   UNL     1      -1.509  12.597  20.620  0.00  0.00    +0.000 A 
ATOM     21  N   UNL     1      -2.857  12.503  20.468  0.00  0.00    +0.000 N 
ATOM     22  C   UNL     1      -3.112  11.952  19.240  0.00  0.00    +0.000 A 
ATOM     23  C   UNL     1      -4.294  11.982  18.491  0.00  0.00    +0.000 A 
ATOM     24  C   UNL     1      -4.261  11.387  17.236  0.00  0.00    +0.000 A 
ATOM     25  F   UNL     1      -5.351  11.515  16.457  0.00  0.00    +0.000 F 
ATOM     26  C   UNL     1      -3.134  10.709  16.785  0.00  0.00    +0.000 A 
ATOM     27 BR   UNL     1      -3.137   9.957  15.045  0.00  0.00    +0.000 Br
ATOM     28  C   UNL     1      -1.980  10.624  17.595  0.00  0.00    +0.000 A 
ATOM     29  F   UNL     1      -0.901   9.976  17.144  0.00  0.00    +0.000 F 
ATOM     30  C   UNL     1      -1.933  11.305  18.832  0.00  0.00    +0.000 A 
ATOM     31  H   UNL     1      -3.545  12.894  21.097  0.00  0.00    +0.000 HD
ENDBRANCH  18  19
ENDBRANCH   1  18
TORSDOF 3
ENDMDL
MODEL 7
REMARK VINA RESULT:      -8.1      1.222      1.551
REMARK  Name = 
REMARK  3 active torsions:
REMARK  status: ('A' for Active; 'I' for Inactive)
REMARK    1  A    between atoms: C_2  and  C_3
REMARK    2  A    between atoms: C_2  and  C_19
REMARK    3  A    between atoms: C_9  and  C_11
REMARK                            x       y       z     vdW  Elec       q    Type
REMARK                         _______ _______ _______ _____ _____    ______ ____
ROOT
ATOM      1  C   UNL     1       1.034   9.043  20.105  0.00  0.00    +0.000 C 
ATOM      2  O   UNL     1       0.613   9.244  21.240  0.00  0.00    +0.000 OA
ATOM      3  N   UNL     1       1.789   7.930  19.724  0.00  0.00    +0.000 N 
ATOM      4  C   UNL     1       2.177   6.981  20.766  0.00  0.00    +0.000 C 
ATOM      5  C   UNL     1       2.323   5.565  20.215  0.00  0.00    +0.000 C 
ATOM      6  N   UNL     1       3.187   5.530  19.029  0.00  0.00    +0.000 N 
ATOM      7  C   UNL     1       4.058   4.442  18.876  0.00  0.00    +0.000 C 
ATOM      8  O   UNL     1       4.077   3.516  19.675  0.00  0.00    +0.000 OA
ATOM      9  C   UNL     1       2.739   6.446  17.964  0.00  0.00    +0.000 C 
ATOM     10  C   UNL     1       2.602   7.877  18.496  0.00  0.00    +0.000 C 
ENDROOT
BRANCH   7  11
ATOM     11  C   UNL     1       5.013   4.383  17.743  0.00  0.00    +0.000 A 
ATOM     12  C   UNL     1       4.619   4.066  16.440  0.00  0.00    +0.000 A 
ATOM     13  C   UNL     1       5.559   4.041  15.406  0.00  0.00    +0.000 A 
ATOM     14  C   UNL     1       6.886   4.398  15.656  0.00  0.00    +0.000 A 
ATOM     15  C   UNL     1       7.274   4.784  16.937  0.00  0.00    +0.000 A 
ATOM     16  C   UNL     1       6.337   4.776  17.982  0.00  0.00    +0.000 A 
ENDBRANCH   7  11
BRANCH   1  18
ATOM     17  O   UNL     1       1.695  10.868  18.801  0.00  0.00    +0.000 OA
ATOM     18  C   UNL     1       0.759  10.102  19.051  0.00  0.00    +0.000 C 
BRANCH  18  19
ATOM     19  C   UNL     1      -0.556  10.311  18.445  0.00  0.00    +0.000 A 
ATOM     20  C   UNL     1      -0.904   9.591  17.310  0.00  0.00    +0.000 A 
ATOM     21  N   UNL     1      -1.890  10.293  16.690  0.00  0.00    +0.000 N 
ATOM     22  C   UNL     1      -2.566  11.011  17.641  0.00  0.00    +0.000 A 
ATOM     23  C   UNL     1      -3.841  11.583  17.567  0.00  0.00    +0.000 A 
ATOM     24  C   UNL     1      -4.316  12.215  18.711  0.00  0.00    +0.000 A 
ATOM     25  F   UNL     1      -5.585  12.662  18.695  0.00  0.00    +0.000 F 
ATOM     26  C   UNL     1      -3.522  12.355  19.843  0.00  0.00    +0.000 A 
ATOM     27 BR   UNL     1      -4.243  13.187  21.387  0.00  0.00    +0.000 Br
ATOM     28  C   UNL     1      -2.208  11.839  19.862  0.00  0.00    +0.000 A 
ATOM     29  F   UNL     1      -1.459  11.974  20.962  0.00  0.00    +0.000 F 
ATOM     30  C   UNL     1      -1.724  11.097  18.761  0.00  0.00    +0.000 A 
ATOM     31  H   UNL     1      -2.156  10.195  15.720  0.00  0.00    +0.000 HD
ENDBRANCH  18  19
ENDBRANCH   1  18
TORSDOF 3
ENDMDL
MODEL 8
REMARK VINA RESULT:      -8.0      3.001      4.141
REMARK  Name = 
REMARK  3 active torsions:
REMARK  status: ('A' for Active; 'I' for Inactive)
REMARK    1  A    between atoms: C_2  and  C_3
REMARK    2  A    between atoms: C_2  and  C_19
REMARK    3  A    between atoms: C_9  and  C_11
REMARK                            x       y       z     vdW  Elec       q    Type
REMARK                         _______ _______ _______ _____ _____    ______ ____
ROOT
ATOM      1  C   UNL     1       0.805  11.332  19.235  0.00  0.00    +0.000 C 
ATOM      2  O   UNL     1       0.895  12.173  18.346  0.00  0.00    +0.000 OA
ATOM      3  N   UNL     1       1.258  10.013  19.132  0.00  0.00    +0.000 N 
ATOM      4  C   UNL     1       1.803   9.581  17.846  0.00  0.00    +0.000 C 
ATOM      5  C   UNL     1       2.859   8.492  18.017  0.00  0.00    +0.000 C 
ATOM      6  N   UNL     1       2.372   7.391  18.858  0.00  0.00    +0.000 N 
ATOM      7  C   UNL     1       2.738   6.082  18.512  0.00  0.00    +0.000 C 
ATOM      8  O   UNL     1       3.480   5.850  17.568  0.00  0.00    +0.000 OA
ATOM      9  C   UNL     1       1.889   7.843  20.175  0.00  0.00    +0.000 C 
ATOM     10  C   UNL     1       0.815   8.926  20.022  0.00  0.00    +0.000 C 
ENDROOT
BRANCH   7  11
ATOM     11  C   UNL     1       2.218   4.919  19.271  0.00  0.00    +0.000 A 
ATOM     12  C   UNL     1       2.372   4.791  20.654  0.00  0.00    +0.000 A 
ATOM     13  C   UNL     1       1.847   3.681  21.321  0.00  0.00    +0.000 A 
ATOM     14  C   UNL     1       1.108   2.726  20.619  0.00  0.00    +0.000 A 
ATOM     15  C   UNL     1       0.889   2.880  19.253  0.00  0.00    +0.000 A 
ATOM     16  C   UNL     1       1.446   3.978  18.577  0.00  0.00    +0.000 A 
ENDBRANCH   7  11
BRANCH   1  18
ATOM     17  O   UNL     1       0.743  11.560  21.563  0.00  0.00    +0.000 OA
ATOM     18  C   UNL     1       0.104  11.737  20.521  0.00  0.00    +0.000 C 
BRANCH  18  19
ATOM     19  C   UNL     1      -1.286  12.191  20.569  0.00  0.00    +0.000 A 
ATOM     20  C   UNL     1      -2.187  11.727  19.620  0.00  0.00    +0.000 A 
ATOM     21  N   UNL     1      -3.202  12.630  19.571  0.00  0.00    +0.000 N 
ATOM     22  C   UNL     1      -3.295  13.236  20.796  0.00  0.00    +0.000 A 
ATOM     23  C   UNL     1      -4.368  13.947  21.346  0.00  0.00    +0.000 A 
ATOM     24  C   UNL     1      -4.216  14.412  22.647  0.00  0.00    +0.000 A 
ATOM     25  F   UNL     1      -5.282  14.989  23.230  0.00  0.00    +0.000 F 
ATOM     26  C   UNL     1      -3.017  14.262  23.334  0.00  0.00    +0.000 A 
ATOM     27 BR   UNL     1      -2.888  14.880  25.122  0.00  0.00    +0.000 Br
ATOM     28  C   UNL     1      -1.922  13.612  22.725  0.00  0.00    +0.000 A 
ATOM     29  F   UNL     1      -0.777  13.468  23.402  0.00  0.00    +0.000 F 
ATOM     30  C   UNL     1      -2.067  13.029  21.446  0.00  0.00    +0.000 A 
ATOM     31  H   UNL     1      -3.854  12.735  18.806  0.00  0.00    +0.000 HD
ENDBRANCH  18  19
ENDBRANCH   1  18
TORSDOF 3
ENDMDL
MODEL 9
REMARK VINA RESULT:      -8.0      3.573      4.484
REMARK  Name = 
REMARK  3 active torsions:
REMARK  status: ('A' for Active; 'I' for Inactive)
REMARK    1  A    between atoms: C_2  and  C_3
REMARK    2  A    between atoms: C_2  and  C_19
REMARK    3  A    between atoms: C_9  and  C_11
REMARK                            x       y       z     vdW  Elec       q    Type
REMARK                         _______ _______ _______ _____ _____    ______ ____
ROOT
ATOM      1  C   UNL     1       0.260   9.777  19.944  0.00  0.00    +0.000 C 
ATOM      2  O   UNL     1      -0.201   9.983  21.063  0.00  0.00    +0.000 OA
ATOM      3  N   UNL     1       1.157   8.752  19.631  0.00  0.00    +0.000 N 
ATOM      4  C   UNL     1       1.645   7.916  20.726  0.00  0.00    +0.000 C 
ATOM      5  C   UNL     1       1.979   6.503  20.255  0.00  0.00    +0.000 C 
ATOM      6  N   UNL     1       2.859   6.517  19.080  0.00  0.00    +0.000 N 
ATOM      7  C   UNL     1       3.863   5.542  18.994  0.00  0.00    +0.000 C 
ATOM      8  O   UNL     1       3.987   4.670  19.842  0.00  0.00    +0.000 OA
ATOM      9  C   UNL     1       2.315   7.311  17.963  0.00  0.00    +0.000 C 
ATOM     10  C   UNL     1       1.990   8.739  18.415  0.00  0.00    +0.000 C 
ENDROOT
BRANCH   7  11
ATOM     11  C   UNL     1       4.836   5.546  17.874  0.00  0.00    +0.000 A 
ATOM     12  C   UNL     1       6.026   6.277  17.912  0.00  0.00    +0.000 A 
ATOM     13  C   UNL     1       6.915   6.232  16.835  0.00  0.00    +0.000 A 
ATOM     14  C   UNL     1       6.651   5.403  15.742  0.00  0.00    +0.000 A 
ATOM     15  C   UNL     1       5.502   4.616  15.726  0.00  0.00    +0.000 A 
ATOM     16  C   UNL     1       4.592   4.688  16.793  0.00  0.00    +0.000 A 
ENDBRANCH   7  11
BRANCH   1  18
ATOM     17  O   UNL     1      -0.398  10.219  17.743  0.00  0.00    +0.000 OA
ATOM     18  C   UNL     1      -0.130  10.736  18.832  0.00  0.00    +0.000 C 
BRANCH  18  19
ATOM     19  C   UNL     1      -0.078  12.192  18.972  0.00  0.00    +0.000 A 
ATOM     20  C   UNL     1      -1.142  12.856  19.567  0.00  0.00    +0.000 A 
ATOM     21  N   UNL     1      -1.087  14.145  19.138  0.00  0.00    +0.000 N 
ATOM     22  C   UNL     1       0.218  14.445  18.851  0.00  0.00    +0.000 A 
ATOM     23  C   UNL     1       0.825  15.700  18.728  0.00  0.00    +0.000 A 
ATOM     24  C   UNL     1       2.194  15.718  18.487  0.00  0.00    +0.000 A 
ATOM     25  F   UNL     1       2.811  16.914  18.489  0.00  0.00    +0.000 F 
ATOM     26  C   UNL     1       2.909  14.544  18.283  0.00  0.00    +0.000 A 
ATOM     27 BR   UNL     1       4.782  14.633  18.004  0.00  0.00    +0.000 Br
ATOM     28  C   UNL     1       2.256  13.293  18.332  0.00  0.00    +0.000 A 
ATOM     29  F   UNL     1       2.959  12.171  18.142  0.00  0.00    +0.000 F 
ATOM     30  C   UNL     1       0.888  13.222  18.679  0.00  0.00    +0.000 A 
ATOM     31  H   UNL     1      -1.857  14.801  19.156  0.00  0.00    +0.000 HD
ENDBRANCH  18  19
ENDBRANCH   1  18
TORSDOF 3
ENDMDL
