MODEL 1
REMARK VINA RESULT:      -7.2      0.000      0.000
REMARK  Name = 
REMARK  4 active torsions:
REMARK  status: ('A' for Active; 'I' for Inactive)
REMARK    1  A    between atoms: C_2  and  C_3
REMARK    2  A    between atoms: C_3  and  C_4
REMARK    3  A    between atoms: C_7  and  C_8
REMARK    4  A    between atoms: C_8  and  C_10
REMARK                            x       y       z     vdW  Elec       q    Type
REMARK                         _______ _______ _______ _____ _____    ______ ____
ROOT
ATOM      1  C   UNL     1       2.864   6.124  19.080  0.00  0.00    +0.000 C 
ATOM      2  O   UNL     1       2.450   7.203  19.505  0.00  0.00    +0.000 OA
ENDROOT
BRANCH   1   3
ATOM      3  C   UNL     1       2.296   4.894  19.695  0.00  0.00    +0.000 A 
ATOM      4  C   UNL     1       2.656   4.553  21.007  0.00  0.00    +0.000 A 
ATOM      5  C   UNL     1       2.088   3.431  21.619  0.00  0.00    +0.000 A 
ATOM      6  C   UNL     1       1.164   2.646  20.928  0.00  0.00    +0.000 A 
ATOM      7  C   UNL     1       0.833   2.959  19.611  0.00  0.00    +0.000 A 
ATOM      8  C   UNL     1       1.415   4.066  18.997  0.00  0.00    +0.000 A 
ATOM      9  F   UNL     1       1.106   4.303  17.715  0.00  0.00    +0.000 F 
ENDBRANCH   1   3
BRANCH   1  13
ATOM     10  C   UNL     1       5.381   5.045  16.308  0.00  0.00    +0.000 A 
ATOM     11  C   UNL     1       5.130   6.385  16.094  0.00  0.00    +0.000 A 
ATOM     12  C   UNL     1       4.259   6.932  17.076  0.00  0.00    +0.000 A 
ATOM     13  C   UNL     1       3.827   5.990  17.993  0.00  0.00    +0.000 A 
ATOM     14  S   UNL     1       4.604   4.484  17.730  0.00  0.00    +0.000 S 
BRANCH  10  15
ATOM     15  C   UNL     1       6.215   4.117  15.474  0.00  0.00    +0.000 C 
BRANCH  15  17
ATOM     16  N   UNL     1       7.813   5.468  13.877  0.00  0.00    +0.000 NA
ATOM     17  C   UNL     1       7.095   4.875  14.572  0.00  0.00    +0.000 C 
ENDBRANCH  15  17
ENDBRANCH  10  15
ENDBRANCH   1  13
TORSDOF 4
ENDMDL
MODEL 2
REMARK VINA RESULT:      -7.2      3.764      6.144
REMARK  Name = 
REMARK  4 active torsions:
REMARK  status: ('A' for Active; 'I' for Inactive)
REMARK    1  A    between atoms: C_2  and  C_3
REMARK    2  A    between atoms: C_3  and  C_4
REMARK    3  A    between atoms: C_7  and  C_8
REMARK    4  A    between atoms: C_8  and  C_10
REMARK                            x       y       z     vdW  Elec       q    Type
REMARK                         _______ _______ _______ _____ _____    ______ ____
ROOT
ATOM      1  C   UNL     1       5.282   4.304  16.922  0.00  0.00    +0.000 C 
ATOM      2  O   UNL     1       5.679   3.627  15.973  0.00  0.00    +0.000 OA
ENDROOT
BRANCH   1   3
ATOM      3  C   UNL     1       6.214   5.337  17.450  0.00  0.00    +0.000 A 
ATOM      4  C   UNL     1       7.039   5.024  18.540  0.00  0.00    +0.000 A 
ATOM      5  C   UNL     1       7.960   5.965  19.012  0.00  0.00    +0.000 A 
ATOM      6  C   UNL     1       8.060   7.217  18.404  0.00  0.00    +0.000 A 
ATOM      7  C   UNL     1       7.214   7.546  17.346  0.00  0.00    +0.000 A 
ATOM      8  C   UNL     1       6.285   6.614  16.890  0.00  0.00    +0.000 A 
ATOM      9  F   UNL     1       5.459   6.987  15.904  0.00  0.00    +0.000 F 
ENDBRANCH   1   3
BRANCH   1  13
ATOM     10  C   UNL     1       1.991   3.347  18.776  0.00  0.00    +0.000 A 
ATOM     11  C   UNL     1       1.831   4.655  18.368  0.00  0.00    +0.000 A 
ATOM     12  C   UNL     1       2.947   5.125  17.621  0.00  0.00    +0.000 A 
ATOM     13  C   UNL     1       3.954   4.182  17.514  0.00  0.00    +0.000 A 
ATOM     14  S   UNL     1       3.466   2.689  18.201  0.00  0.00    +0.000 S 
BRANCH  10  15
ATOM     15  C   UNL     1       1.056   2.519  19.608  0.00  0.00    +0.000 C 
BRANCH  15  17
ATOM     16  N   UNL     1       1.689   2.628  22.161  0.00  0.00    +0.000 NA
ATOM     17  C   UNL     1       1.424   2.586  21.030  0.00  0.00    +0.000 C 
ENDBRANCH  15  17
ENDBRANCH  10  15
ENDBRANCH   1  13
TORSDOF 4
ENDMDL
MODEL 3
REMARK VINA RESULT:      -7.1      3.795      6.247
REMARK  Name = 
REMARK  4 active torsions:
REMARK  status: ('A' for Active; 'I' for Inactive)
REMARK    1  A    between atoms: C_2  and  C_3
REMARK    2  A    between atoms: C_3  and  C_4
REMARK    3  A    between atoms: C_7  and  C_8
REMARK    4  A    between atoms: C_8  and  C_10
REMARK                            x       y       z     vdW  Elec       q    Type
REMARK                         _______ _______ _______ _____ _____    ______ ____
ROOT
ATOM      1  C   UNL     1       5.023   4.272  16.567  0.00  0.00    +0.000 C 
ATOM      2  O   UNL     1       5.109   4.103  15.350  0.00  0.00    +0.000 OA
ENDROOT
BRANCH   1   3
ATOM      3  C   UNL     1       5.980   5.229  17.184  0.00  0.00    +0.000 A 
ATOM      4  C   UNL     1       6.869   4.773  18.169  0.00  0.00    +0.000 A 
ATOM      5  C   UNL     1       7.813   5.646  18.719  0.00  0.00    +0.000 A 
ATOM      6  C   UNL     1       7.872   6.974  18.293  0.00  0.00    +0.000 A 
ATOM      7  C   UNL     1       6.966   7.442  17.344  0.00  0.00    +0.000 A 
ATOM      8  C   UNL     1       6.015   6.574  16.812  0.00  0.00    +0.000 A 
ATOM      9  F   UNL     1       5.131   7.077  15.938  0.00  0.00    +0.000 F 
ENDBRANCH   1   3
BRANCH   1  13
ATOM     10  C   UNL     1       2.113   3.252  18.950  0.00  0.00    +0.000 A 
ATOM     11  C   UNL     1       2.563   2.081  18.376  0.00  0.00    +0.000 A 
ATOM     12  C   UNL     1       3.674   2.297  17.513  0.00  0.00    +0.000 A 
ATOM     13  C   UNL     1       4.019   3.634  17.412  0.00  0.00    +0.000 A 
ATOM     14  S   UNL     1       3.079   4.589  18.481  0.00  0.00    +0.000 S 
BRANCH  10  15
ATOM     15  C   UNL     1       0.949   3.436  19.880  0.00  0.00    +0.000 C 
BRANCH  15  17
ATOM     16  N   UNL     1       1.534   2.510  22.273  0.00  0.00    +0.000 NA
ATOM     17  C   UNL     1       1.270   2.933  21.223  0.00  0.00    +0.000 C 
ENDBRANCH  15  17
ENDBRANCH  10  15
ENDBRANCH   1  13
TORSDOF 4
ENDMDL
MODEL 4
REMARK VINA RESULT:      -7.0      1.268      1.315
REMARK  Name = 
REMARK  4 active torsions:
REMARK  status: ('A' for Active; 'I' for Inactive)
REMARK    1  A    between atoms: C_2  and  C_3
REMARK    2  A    between atoms: C_3  and  C_4
REMARK    3  A    between atoms: C_7  and  C_8
REMARK    4  A    between atoms: C_8  and  C_10
REMARK                            x       y       z     vdW  Elec       q    Type
REMARK                         _______ _______ _______ _____ _____    ______ ____
ROOT
ATOM      1  C   UNL     1       2.539   6.297  19.350  0.00  0.00    +0.000 C 
ATOM      2  O   UNL     1       1.953   7.291  19.780  0.00  0.00    +0.000 OA
ENDROOT
BRANCH   1   3
ATOM      3  C   UNL     1       2.103   4.976  19.879  0.00  0.00    +0.000 A 
ATOM      4  C   UNL     1       2.453   4.612  21.188  0.00  0.00    +0.000 A 
ATOM      5  C   UNL     1       2.004   3.399  21.720  0.00  0.00    +0.000 A 
ATOM      6  C   UNL     1       1.211   2.545  20.951  0.00  0.00    +0.000 A 
ATOM      7  C   UNL     1       0.896   2.885  19.637  0.00  0.00    +0.000 A 
ATOM      8  C   UNL     1       1.359   4.085  19.104  0.00  0.00    +0.000 A 
ATOM      9  F   UNL     1       1.074   4.349  17.822  0.00  0.00    +0.000 F 
ENDBRANCH   1   3
BRANCH   1  13
ATOM     10  C   UNL     1       5.459   5.719  16.835  0.00  0.00    +0.000 A 
ATOM     11  C   UNL     1       4.873   6.914  16.471  0.00  0.00    +0.000 A 
ATOM     12  C   UNL     1       3.814   7.283  17.346  0.00  0.00    +0.000 A 
ATOM     13  C   UNL     1       3.583   6.340  18.332  0.00  0.00    +0.000 A 
ATOM     14  S   UNL     1       4.754   5.089  18.266  0.00  0.00    +0.000 S 
BRANCH  10  15
ATOM     15  C   UNL     1       6.573   4.989  16.144  0.00  0.00    +0.000 C 
BRANCH  15  17
ATOM     16  N   UNL     1       8.392   4.167  17.860  0.00  0.00    +0.000 NA
ATOM     17  C   UNL     1       7.580   4.535  17.115  0.00  0.00    +0.000 C 
ENDBRANCH  15  17
ENDBRANCH  10  15
ENDBRANCH   1  13
TORSDOF 4
ENDMDL
MODEL 5
REMARK VINA RESULT:      -7.0      2.603      3.035
REMARK  Name = 
REMARK  4 active torsions:
REMARK  status: ('A' for Active; 'I' for Inactive)
REMARK    1  A    between atoms: C_2  and  C_3
REMARK    2  A    between atoms: C_3  and  C_4
REMARK    3  A    between atoms: C_7  and  C_8
REMARK    4  A    between atoms: C_8  and  C_10
REMARK                            x       y       z     vdW  Elec       q    Type
REMARK                         _______ _______ _______ _____ _____    ______ ____
ROOT
ATOM      1  C   UNL     1       3.139   3.504  17.596  0.00  0.00    +0.000 C 
ATOM      2  O   UNL     1       2.451   3.030  16.691  0.00  0.00    +0.000 OA
ENDROOT
BRANCH   1   3
ATOM      3  C   UNL     1       2.594   3.411  18.977  0.00  0.00    +0.000 A 
ATOM      4  C   UNL     1       1.472   4.178  19.325  0.00  0.00    +0.000 A 
ATOM      5  C   UNL     1       0.913   4.061  20.601  0.00  0.00    +0.000 A 
ATOM      6  C   UNL     1       1.470   3.185  21.534  0.00  0.00    +0.000 A 
ATOM      7  C   UNL     1       2.608   2.451  21.206  0.00  0.00    +0.000 A 
ATOM      8  C   UNL     1       3.174   2.584  19.941  0.00  0.00    +0.000 A 
ATOM      9  F   UNL     1       4.295   1.897  19.683  0.00  0.00    +0.000 F 
ENDBRANCH   1   3
BRANCH   1  13
ATOM     10  C   UNL     1       6.597   5.292  17.761  0.00  0.00    +0.000 A 
ATOM     11  C   UNL     1       6.587   4.592  16.572  0.00  0.00    +0.000 A 
ATOM     12  C   UNL     1       5.349   3.927  16.350  0.00  0.00    +0.000 A 
ATOM     13  C   UNL     1       4.458   4.095  17.395  0.00  0.00    +0.000 A 
ATOM     14  S   UNL     1       5.087   5.179  18.565  0.00  0.00    +0.000 S 
BRANCH  10  15
ATOM     15  C   UNL     1       7.725   6.083  18.357  0.00  0.00    +0.000 C 
BRANCH  15  17
ATOM     16  N   UNL     1       7.764   8.523  17.373  0.00  0.00    +0.000 NA
ATOM     17  C   UNL     1       7.742   7.452  17.821  0.00  0.00    +0.000 C 
ENDBRANCH  15  17
ENDBRANCH  10  15
ENDBRANCH   1  13
TORSDOF 4
ENDMDL
MODEL 6
REMARK VINA RESULT:      -6.8      2.197      2.444
REMARK  Name = 
REMARK  4 active torsions:
REMARK  status: ('A' for Active; 'I' for Inactive)
REMARK    1  A    between atoms: C_2  and  C_3
REMARK    2  A    between atoms: C_3  and  C_4
REMARK    3  A    between atoms: C_7  and  C_8
REMARK    4  A    between atoms: C_8  and  C_10
REMARK                            x       y       z     vdW  Elec       q    Type
REMARK                         _______ _______ _______ _____ _____    ______ ____
ROOT
ATOM      1  C   UNL     1       5.427   5.028  18.998  0.00  0.00    +0.000 C 
ATOM      2  O   UNL     1       6.324   5.180  19.828  0.00  0.00    +0.000 OA
ENDROOT
BRANCH   1   3
ATOM      3  C   UNL     1       4.082   4.663  19.519  0.00  0.00    +0.000 A 
ATOM      4  C   UNL     1       3.198   5.680  19.909  0.00  0.00    +0.000 A 
ATOM      5  C   UNL     1       1.910   5.357  20.348  0.00  0.00    +0.000 A 
ATOM      6  C   UNL     1       1.501   4.023  20.403  0.00  0.00    +0.000 A 
ATOM      7  C   UNL     1       2.389   3.008  20.054  0.00  0.00    +0.000 A 
ATOM      8  C   UNL     1       3.677   3.332  19.635  0.00  0.00    +0.000 A 
ATOM      9  F   UNL     1       4.515   2.324  19.356  0.00  0.00    +0.000 F 
ENDBRANCH   1   3
BRANCH   1  13
ATOM     10  C   UNL     1       6.424   5.081  15.231  0.00  0.00    +0.000 A 
ATOM     11  C   UNL     1       5.232   5.770  15.319  0.00  0.00    +0.000 A 
ATOM     12  C   UNL     1       4.772   5.879  16.661  0.00  0.00    +0.000 A 
ATOM     13  C   UNL     1       5.597   5.231  17.563  0.00  0.00    +0.000 A 
ATOM     14  S   UNL     1       6.998   4.624  16.782  0.00  0.00    +0.000 S 
BRANCH  10  15
ATOM     15  C   UNL     1       7.200   4.732  13.995  0.00  0.00    +0.000 C 
BRANCH  15  17
ATOM     16  N   UNL     1       5.758   3.222  12.392  0.00  0.00    +0.000 NA
ATOM     17  C   UNL     1       6.392   3.901  13.089  0.00  0.00    +0.000 C 
ENDBRANCH  15  17
ENDBRANCH  10  15
ENDBRANCH   1  13
TORSDOF 4
ENDMDL
MODEL 7
REMARK VINA RESULT:      -6.8      3.669      6.125
REMARK  Name = 
REMARK  4 active torsions:
REMARK  status: ('A' for Active; 'I' for Inactive)
REMARK    1  A    between atoms: C_2  and  C_3
REMARK    2  A    between atoms: C_3  and  C_4
REMARK    3  A    between atoms: C_7  and  C_8
REMARK    4  A    between atoms: C_8  and  C_10
REMARK                            x       y       z     vdW  Elec       q    Type
REMARK                         _______ _______ _______ _____ _____    ______ ____
ROOT
ATOM      1  C   UNL     1       4.879   4.920  16.753  0.00  0.00    +0.000 C 
ATOM      2  O   UNL     1       5.026   4.540  15.591  0.00  0.00    +0.000 OA
ENDROOT
BRANCH   1   3
ATOM      3  C   UNL     1       6.029   5.625  17.383  0.00  0.00    +0.000 A 
ATOM      4  C   UNL     1       6.524   6.796  16.791  0.00  0.00    +0.000 A 
ATOM      5  C   UNL     1       7.567   7.501  17.400  0.00  0.00    +0.000 A 
ATOM      6  C   UNL     1       8.121   7.040  18.595  0.00  0.00    +0.000 A 
ATOM      7  C   UNL     1       7.659   5.856  19.165  0.00  0.00    +0.000 A 
ATOM      8  C   UNL     1       6.633   5.146  18.547  0.00  0.00    +0.000 A 
ATOM      9  F   UNL     1       6.252   3.988  19.102  0.00  0.00    +0.000 F 
ENDBRANCH   1   3
BRANCH   1  13
ATOM     10  C   UNL     1       1.786   3.796  18.840  0.00  0.00    +0.000 A 
ATOM     11  C   UNL     1       1.748   5.175  18.816  0.00  0.00    +0.000 A 
ATOM     12  C   UNL     1       2.800   5.728  18.034  0.00  0.00    +0.000 A 
ATOM     13  C   UNL     1       3.645   4.762  17.515  0.00  0.00    +0.000 A 
ATOM     14  S   UNL     1       3.061   3.189  17.867  0.00  0.00    +0.000 S 
BRANCH  10  15
ATOM     15  C   UNL     1       0.875   2.860  19.579  0.00  0.00    +0.000 C 
BRANCH  15  17
ATOM     16  N   UNL     1       1.700   2.563  22.061  0.00  0.00    +0.000 NA
ATOM     17  C   UNL     1       1.323   2.684  20.968  0.00  0.00    +0.000 C 
ENDBRANCH  15  17
ENDBRANCH  10  15
ENDBRANCH   1  13
TORSDOF 4
ENDMDL
MODEL 8
REMARK VINA RESULT:      -6.7      1.321      1.771
REMARK  Name = 
REMARK  4 active torsions:
REMARK  status: ('A' for Active; 'I' for Inactive)
REMARK    1  A    between atoms: C_2  and  C_3
REMARK    2  A    between atoms: C_3  and  C_4
REMARK    3  A    between atoms: C_7  and  C_8
REMARK    4  A    between atoms: C_8  and  C_10
REMARK                            x       y       z     vdW  Elec       q    Type
REMARK                         _______ _______ _______ _____ _____    ______ ____
ROOT
ATOM      1  C   UNL     1       2.841   6.052  19.148  0.00  0.00    +0.000 C 
ATOM      2  O   UNL     1       2.445   7.045  19.759  0.00  0.00    +0.000 OA
ENDROOT
BRANCH   1   3
ATOM      3  C   UNL     1       2.118   4.775  19.398  0.00  0.00    +0.000 A 
ATOM      4  C   UNL     1       1.536   4.094  18.319  0.00  0.00    +0.000 A 
ATOM      5  C   UNL     1       0.901   2.865  18.528  0.00  0.00    +0.000 A 
ATOM      6  C   UNL     1       0.842   2.314  19.810  0.00  0.00    +0.000 A 
ATOM      7  C   UNL     1       1.384   3.007  20.890  0.00  0.00    +0.000 A 
ATOM      8  C   UNL     1       1.999   4.240  20.681  0.00  0.00    +0.000 A 
ATOM      9  F   UNL     1       2.463   4.895  21.754  0.00  0.00    +0.000 F 
ENDBRANCH   1   3
BRANCH   1  13
ATOM     10  C   UNL     1       5.856   5.406  16.766  0.00  0.00    +0.000 A 
ATOM     11  C   UNL     1       5.304   6.605  16.364  0.00  0.00    +0.000 A 
ATOM     12  C   UNL     1       4.214   6.998  17.190  0.00  0.00    +0.000 A 
ATOM     13  C   UNL     1       3.928   6.069  18.175  0.00  0.00    +0.000 A 
ATOM     14  S   UNL     1       5.083   4.801  18.172  0.00  0.00    +0.000 S 
BRANCH  10  15
ATOM     15  C   UNL     1       6.988   4.652  16.130  0.00  0.00    +0.000 C 
BRANCH  15  17
ATOM     16  N   UNL     1       6.330   3.896  13.697  0.00  0.00    +0.000 NA
ATOM     17  C   UNL     1       6.627   4.215  14.773  0.00  0.00    +0.000 C 
ENDBRANCH  15  17
ENDBRANCH  10  15
ENDBRANCH   1  13
TORSDOF 4
ENDMDL
MODEL 9
REMARK VINA RESULT:      -6.7      1.210      1.387
REMARK  Name = 
REMARK  4 active torsions:
REMARK  status: ('A' for Active; 'I' for Inactive)
REMARK    1  A    between atoms: C_2  and  C_3
REMARK    2  A    between atoms: C_3  and  C_4
REMARK    3  A    between atoms: C_7  and  C_8
REMARK    4  A    between atoms: C_8  and  C_10
REMARK                            x       y       z     vdW  Elec       q    Type
REMARK                         _______ _______ _______ _____ _____    ______ ____
ROOT
ATOM      1  C   UNL     1       3.368   5.824  18.880  0.00  0.00    +0.000 C 
ATOM      2  O   UNL     1       2.871   6.950  18.835  0.00  0.00    +0.000 OA
ENDROOT
BRANCH   1   3
ATOM      3  C   UNL     1       2.564   4.758  19.536  0.00  0.00    +0.000 A 
ATOM      4  C   UNL     1       2.775   4.476  20.894  0.00  0.00    +0.000 A 
ATOM      5  C   UNL     1       1.990   3.516  21.539  0.00  0.00    +0.000 A 
ATOM      6  C   UNL     1       0.997   2.833  20.836  0.00  0.00    +0.000 A 
ATOM      7  C   UNL     1       0.811   3.081  19.477  0.00  0.00    +0.000 A 
ATOM      8  C   UNL     1       1.607   4.024  18.833  0.00  0.00    +0.000 A 
ATOM      9  F   UNL     1       1.428   4.197  17.516  0.00  0.00    +0.000 F 
ENDBRANCH   1   3
BRANCH   1  13
ATOM     10  C   UNL     1       6.494   5.079  16.676  0.00  0.00    +0.000 A 
ATOM     11  C   UNL     1       6.931   5.032  17.984  0.00  0.00    +0.000 A 
ATOM     12  C   UNL     1       5.871   5.234  18.912  0.00  0.00    +0.000 A 
ATOM     13  C   UNL     1       4.658   5.477  18.293  0.00  0.00    +0.000 A 
ATOM     14  S   UNL     1       4.797   5.310  16.592  0.00  0.00    +0.000 S 
BRANCH  10  15
ATOM     15  C   UNL     1       7.312   4.948  15.424  0.00  0.00    +0.000 C 
BRANCH  15  17
ATOM     16  N   UNL     1       5.904   3.782  13.531  0.00  0.00    +0.000 NA
ATOM     17  C   UNL     1       6.539   4.288  14.362  0.00  0.00    +0.000 C 
ENDBRANCH  15  17
ENDBRANCH  10  15
ENDBRANCH   1  13
TORSDOF 4
ENDMDL
