MODEL 1
REMARK VINA RESULT:      -7.5      0.000      0.000
REMARK  Name = 
REMARK  5 active torsions:
REMARK  status: ('A' for Active; 'I' for Inactive)
REMARK    1  A    between atoms: N_7  and  C_8
REMARK    2  A    between atoms: C_16  and  C_17
REMARK    3  A    between atoms: C_17  and  O_19
REMARK    4  A    between atoms: C_22  and  C_23
REMARK    5  A    between atoms: C_23  and  O_25
REMARK                            x       y       z     vdW  Elec       q    Type
REMARK                         _______ _______ _______ _____ _____    ______ ____
ROOT
ATOM      1  C   UNL     1       0.905   9.298  19.168  0.00  0.00    +0.000 A 
ATOM      2  C   UNL     1       1.939   8.986  18.153  0.00  0.00    +0.000 A 
ATOM      3  C   UNL     1       2.843   7.901  18.401  0.00  0.00    +0.000 A 
ATOM      4  C   UNL     1       2.534   7.293  19.645  0.00  0.00    +0.000 A 
ATOM      5  C   UNL     1       1.990   7.853  20.776  0.00  0.00    +0.000 A 
ATOM      6  C   UNL     1       0.913   8.603  20.419  0.00  0.00    +0.000 A 
ATOM      7 CL   UNL     1      -0.564   8.028  21.202  0.00  0.00    +0.000 Cl
ATOM      8  N   UNL     1       1.495   6.119  19.252  0.00  0.00    +0.000 N 
ATOM      9  C   UNL     1       2.488   5.064  19.014  0.00  0.00    +0.000 C 
ATOM     10  N   UNL     1       3.494   5.502  18.058  0.00  0.00    +0.000 N 
ATOM     11  N   UNL     1       4.521   4.701  17.887  0.00  0.00    +0.000 NA
ATOM     12  C   UNL     1       5.204   5.279  16.905  0.00  0.00    +0.000 A 
ATOM     13  C   UNL     1       4.765   6.668  16.748  0.00  0.00    +0.000 A 
ATOM     14  C   UNL     1       3.682   6.846  17.632  0.00  0.00    +0.000 A 
ATOM     15  H   UNL     1       1.166   6.415  18.310  0.00  0.00    +0.000 HD
ENDROOT
BRANCH   1  22
ATOM     16  O   UNL     1       1.393  11.712  21.070  0.00  0.00    +0.000 OA
ATOM     17  C   UNL     1       0.279  12.124  20.804  0.00  0.00    +0.000 C 
ATOM     18  N   UNL     1      -0.476  11.462  19.856  0.00  0.00    +0.000 N 
ATOM     19  C   UNL     1      -1.659  12.108  19.351  0.00  0.00    +0.000 A 
ATOM     20  C   UNL     1      -2.214  11.372  18.267  0.00  0.00    +0.000 A 
ATOM     21  C   UNL     1      -1.357  10.234  18.192  0.00  0.00    +0.000 A 
ATOM     22  N   UNL     1      -0.249  10.316  19.138  0.00  0.00    +0.000 N 
ENDBRANCH   1  22
BRANCH   9  23
ATOM     23  C   UNL     1       1.688   3.841  18.547  0.00  0.00    +0.000 C 
ATOM     24  O   UNL     1       0.947   3.158  19.227  0.00  0.00    +0.000 OA
BRANCH  23  25
ATOM     25  O   UNL     1       1.886   3.622  17.208  0.00  0.00    +0.000 OA
ATOM     26  H   UNL     1       2.676   4.142  16.919  0.00  0.00    +0.000 HD
ENDBRANCH  23  25
ENDBRANCH   9  23
BRANCH  12  27
ATOM     27  C   UNL     1       6.210   4.390  16.321  0.00  0.00    +0.000 C 
ATOM     28  O   UNL     1       7.326   4.732  15.992  0.00  0.00    +0.000 OA
BRANCH  27  29
ATOM     29  O   UNL     1       5.745   3.104  16.140  0.00  0.00    +0.000 OA
ATOM     30  H   UNL     1       4.778   3.196  15.953  0.00  0.00    +0.000 HD
ENDBRANCH  27  29
ENDBRANCH  12  27
TORSDOF 5
ENDMDL
MODEL 2
REMARK VINA RESULT:      -7.4      4.571      6.475
REMARK  Name = 
REMARK  5 active torsions:
REMARK  status: ('A' for Active; 'I' for Inactive)
REMARK    1  A    between atoms: N_7  and  C_8
REMARK    2  A    between atoms: C_16  and  C_17
REMARK    3  A    between atoms: C_17  and  O_19
REMARK    4  A    between atoms: C_22  and  C_23
REMARK    5  A    between atoms: C_23  and  O_25
REMARK                            x       y       z     vdW  Elec       q    Type
REMARK                         _______ _______ _______ _____ _____    ______ ____
ROOT
ATOM      1  C   UNL     1       3.074   3.865  18.872  0.00  0.00    +0.000 A 
ATOM      2  C   UNL     1       3.854   3.342  17.725  0.00  0.00    +0.000 A 
ATOM      3  C   UNL     1       4.376   4.272  16.766  0.00  0.00    +0.000 A 
ATOM      4  C   UNL     1       4.030   5.595  17.142  0.00  0.00    +0.000 A 
ATOM      5  C   UNL     1       2.930   6.044  17.834  0.00  0.00    +0.000 A 
ATOM      6  C   UNL     1       2.749   5.257  18.927  0.00  0.00    +0.000 A 
ATOM      7 CL   UNL     1       2.829   6.198  20.422  0.00  0.00    +0.000 Cl
ATOM      8  N   UNL     1       5.282   6.078  18.043  0.00  0.00    +0.000 N 
ATOM      9  C   UNL     1       6.095   6.630  16.952  0.00  0.00    +0.000 C 
ATOM     10  N   UNL     1       6.288   5.646  15.897  0.00  0.00    +0.000 N 
ATOM     11  N   UNL     1       6.865   6.076  14.799  0.00  0.00    +0.000 NA
ATOM     12  C   UNL     1       7.012   4.973  14.074  0.00  0.00    +0.000 A 
ATOM     13  C   UNL     1       6.150   3.913  14.605  0.00  0.00    +0.000 A 
ATOM     14  C   UNL     1       5.561   4.429  15.777  0.00  0.00    +0.000 A 
ATOM     15  H   UNL     1       5.733   5.177  18.304  0.00  0.00    +0.000 HD
ENDROOT
BRANCH   1  22
ATOM     16  O   UNL     1       5.194   2.151  20.373  0.00  0.00    +0.000 OA
ATOM     17  C   UNL     1       4.313   1.734  21.104  0.00  0.00    +0.000 C 
ATOM     18  N   UNL     1       3.035   2.241  20.975  0.00  0.00    +0.000 N 
ATOM     19  C   UNL     1       2.078   1.954  22.012  0.00  0.00    +0.000 A 
ATOM     20  C   UNL     1       0.878   2.689  21.811  0.00  0.00    +0.000 A 
ATOM     21  C   UNL     1       1.131   3.370  20.583  0.00  0.00    +0.000 A 
ATOM     22  N   UNL     1       2.486   3.137  20.095  0.00  0.00    +0.000 N 
ENDBRANCH   1  22
BRANCH   9  23
ATOM     23  C   UNL     1       7.402   7.095  17.605  0.00  0.00    +0.000 C 
ATOM     24  O   UNL     1       7.997   6.540  18.508  0.00  0.00    +0.000 OA
BRANCH  23  25
ATOM     25  O   UNL     1       7.860   8.238  17.000  0.00  0.00    +0.000 OA
ATOM     26  H   UNL     1       7.880   8.962  17.675  0.00  0.00    +0.000 HD
ENDBRANCH  23  25
ENDBRANCH   9  23
BRANCH  12  27
ATOM     27  C   UNL     1       7.933   5.158  12.950  0.00  0.00    +0.000 C 
ATOM     28  O   UNL     1       8.905   5.883  12.966  0.00  0.00    +0.000 OA
BRANCH  27  29
ATOM     29  O   UNL     1       7.560   4.442  11.832  0.00  0.00    +0.000 OA
ATOM     30  H   UNL     1       8.087   4.822  11.087  0.00  0.00    +0.000 HD
ENDBRANCH  27  29
ENDBRANCH  12  27
TORSDOF 5
ENDMDL
MODEL 3
REMARK VINA RESULT:      -7.1      3.693      6.388
REMARK  Name = 
REMARK  5 active torsions:
REMARK  status: ('A' for Active; 'I' for Inactive)
REMARK    1  A    between atoms: N_7  and  C_8
REMARK    2  A    between atoms: C_16  and  C_17
REMARK    3  A    between atoms: C_17  and  O_19
REMARK    4  A    between atoms: C_22  and  C_23
REMARK    5  A    between atoms: C_23  and  O_25
REMARK                            x       y       z     vdW  Elec       q    Type
REMARK                         _______ _______ _______ _____ _____    ______ ____
ROOT
ATOM      1  C   UNL     1      -1.608  12.694  22.553  0.00  0.00    +0.000 A 
ATOM      2  C   UNL     1      -0.840  11.432  22.668  0.00  0.00    +0.000 A 
ATOM      3  C   UNL     1      -0.539  10.697  21.473  0.00  0.00    +0.000 A 
ATOM      4  C   UNL     1      -1.060  11.381  20.346  0.00  0.00    +0.000 A 
ATOM      5  C   UNL     1      -2.164  12.195  20.253  0.00  0.00    +0.000 A 
ATOM      6  C   UNL     1      -2.142  13.081  21.283  0.00  0.00    +0.000 A 
ATOM      7 CL   UNL     1      -2.103  14.750  20.701  0.00  0.00    +0.000 Cl
ATOM      8  N   UNL     1       0.162  12.328  19.872  0.00  0.00    +0.000 N 
ATOM      9  C   UNL     1       0.800  11.368  18.962  0.00  0.00    +0.000 C 
ATOM     10  N   UNL     1       1.068  10.108  19.639  0.00  0.00    +0.000 N 
ATOM     11  N   UNL     1       1.492   9.120  18.884  0.00  0.00    +0.000 NA
ATOM     12  C   UNL     1       1.757   8.155  19.757  0.00  0.00    +0.000 A 
ATOM     13  C   UNL     1       1.111   8.454  21.037  0.00  0.00    +0.000 A 
ATOM     14  C   UNL     1       0.534   9.733  20.903  0.00  0.00    +0.000 A 
ATOM     15  H   UNL     1       0.767  12.357  20.719  0.00  0.00    +0.000 HD
ENDROOT
BRANCH   1  22
ATOM     16  O   UNL     1      -4.253  11.979  24.030  0.00  0.00    +0.000 OA
ATOM     17  C   UNL     1      -4.187  13.040  24.624  0.00  0.00    +0.000 C 
ATOM     18  N   UNL     1      -3.082  13.848  24.440  0.00  0.00    +0.000 N 
ATOM     19  C   UNL     1      -2.882  14.950  25.346  0.00  0.00    +0.000 A 
ATOM     20  C   UNL     1      -1.619  15.565  25.123  0.00  0.00    +0.000 A 
ATOM     21  C   UNL     1      -1.107  14.831  24.011  0.00  0.00    +0.000 A 
ATOM     22  N   UNL     1      -1.986  13.734  23.624  0.00  0.00    +0.000 N 
ENDBRANCH   1  22
BRANCH   9  23
ATOM     23  C   UNL     1       2.061  12.067  18.441  0.00  0.00    +0.000 C 
ATOM     24  O   UNL     1       2.641  12.998  18.964  0.00  0.00    +0.000 OA
BRANCH  23  25
ATOM     25  O   UNL     1       2.499  11.468  17.288  0.00  0.00    +0.000 OA
ATOM     26  H   UNL     1       1.897  10.710  17.081  0.00  0.00    +0.000 HD
ENDBRANCH  23  25
ENDBRANCH   9  23
BRANCH  12  27
ATOM     27  C   UNL     1       2.555   7.074  19.174  0.00  0.00    +0.000 C 
ATOM     28  O   UNL     1       2.775   6.940  17.988  0.00  0.00    +0.000 OA
BRANCH  27  29
ATOM     29  O   UNL     1       3.014   6.180  20.118  0.00  0.00    +0.000 OA
ATOM     30  H   UNL     1       2.266   6.062  20.756  0.00  0.00    +0.000 HD
ENDBRANCH  27  29
ENDBRANCH  12  27
TORSDOF 5
ENDMDL
MODEL 4
REMARK VINA RESULT:      -7.0      2.226      7.631
REMARK  Name = 
REMARK  5 active torsions:
REMARK  status: ('A' for Active; 'I' for Inactive)
REMARK    1  A    between atoms: N_7  and  C_8
REMARK    2  A    between atoms: C_16  and  C_17
REMARK    3  A    between atoms: C_17  and  O_19
REMARK    4  A    between atoms: C_22  and  C_23
REMARK    5  A    between atoms: C_23  and  O_25
REMARK                            x       y       z     vdW  Elec       q    Type
REMARK                         _______ _______ _______ _____ _____    ______ ____
ROOT
ATOM      1  C   UNL     1       4.225   6.246  18.290  0.00  0.00    +0.000 A 
ATOM      2  C   UNL     1       3.745   7.562  17.805  0.00  0.00    +0.000 A 
ATOM      3  C   UNL     1       2.416   7.980  18.150  0.00  0.00    +0.000 A 
ATOM      4  C   UNL     1       1.794   6.991  18.953  0.00  0.00    +0.000 A 
ATOM      5  C   UNL     1       1.984   5.629  18.960  0.00  0.00    +0.000 A 
ATOM      6  C   UNL     1       3.319   5.373  18.973  0.00  0.00    +0.000 A 
ATOM      7 CL   UNL     1       3.786   4.440  20.400  0.00  0.00    +0.000 Cl
ATOM      8  N   UNL     1       2.149   7.441  20.464  0.00  0.00    +0.000 N 
ATOM      9  C   UNL     1       0.985   8.309  20.678  0.00  0.00    +0.000 C 
ATOM     10  N   UNL     1       0.876   9.305  19.622  0.00  0.00    +0.000 N 
ATOM     11  N   UNL     1      -0.216  10.035  19.622  0.00  0.00    +0.000 NA
ATOM     12  C   UNL     1      -0.002  10.911  18.647  0.00  0.00    +0.000 A 
ATOM     13  C   UNL     1       1.093  10.443  17.792  0.00  0.00    +0.000 A 
ATOM     14  C   UNL     1       1.600   9.275  18.398  0.00  0.00    +0.000 A 
ATOM     15  H   UNL     1       2.957   8.083  20.324  0.00  0.00    +0.000 HD
ENDROOT
BRANCH   1  22
ATOM     16  O   UNL     1       4.463   4.417  15.784  0.00  0.00    +0.000 OA
ATOM     17  C   UNL     1       5.570   4.076  16.160  0.00  0.00    +0.000 C 
ATOM     18  N   UNL     1       6.111   4.668  17.284  0.00  0.00    +0.000 N 
ATOM     19  C   UNL     1       7.512   4.467  17.556  0.00  0.00    +0.000 A 
ATOM     20  C   UNL     1       7.938   5.280  18.642  0.00  0.00    +0.000 A 
ATOM     21  C   UNL     1       6.728   5.919  19.047  0.00  0.00    +0.000 A 
ATOM     22  N   UNL     1       5.609   5.583  18.172  0.00  0.00    +0.000 N 
ENDBRANCH   1  22
BRANCH   9  23
ATOM     23  C   UNL     1       1.170   8.912  22.076  0.00  0.00    +0.000 C 
ATOM     24  O   UNL     1       2.219   9.264  22.579  0.00  0.00    +0.000 OA
BRANCH  23  25
ATOM     25  O   UNL     1      -0.042   9.050  22.703  0.00  0.00    +0.000 OA
ATOM     26  H   UNL     1      -0.693   8.450  22.260  0.00  0.00    +0.000 HD
ENDBRANCH  23  25
ENDBRANCH   9  23
BRANCH  12  27
ATOM     27  C   UNL     1      -0.941  12.034  18.684  0.00  0.00    +0.000 C 
ATOM     28  O   UNL     1      -1.521  12.416  19.678  0.00  0.00    +0.000 OA
BRANCH  27  29
ATOM     29  O   UNL     1      -1.139  12.605  17.444  0.00  0.00    +0.000 OA
ATOM     30  H   UNL     1      -1.866  13.265  17.571  0.00  0.00    +0.000 HD
ENDBRANCH  27  29
ENDBRANCH  12  27
TORSDOF 5
ENDMDL
MODEL 5
REMARK VINA RESULT:      -7.0      1.130      1.211
REMARK  Name = 
REMARK  5 active torsions:
REMARK  status: ('A' for Active; 'I' for Inactive)
REMARK    1  A    between atoms: N_7  and  C_8
REMARK    2  A    between atoms: C_16  and  C_17
REMARK    3  A    between atoms: C_17  and  O_19
REMARK    4  A    between atoms: C_22  and  C_23
REMARK    5  A    between atoms: C_23  and  O_25
REMARK                            x       y       z     vdW  Elec       q    Type
REMARK                         _______ _______ _______ _____ _____    ______ ____
ROOT
ATOM      1  C   UNL     1       0.494   9.457  18.762  0.00  0.00    +0.000 A 
ATOM      2  C   UNL     1       1.542   8.918  17.862  0.00  0.00    +0.000 A 
ATOM      3  C   UNL     1       2.568   8.085  18.421  0.00  0.00    +0.000 A 
ATOM      4  C   UNL     1       2.348   7.921  19.812  0.00  0.00    +0.000 A 
ATOM      5  C   UNL     1       1.760   8.782  20.709  0.00  0.00    +0.000 A 
ATOM      6  C   UNL     1       0.600   9.246  20.173  0.00  0.00    +0.000 A 
ATOM      7 CL   UNL     1      -0.791   8.833  21.183  0.00  0.00    +0.000 Cl
ATOM      8  N   UNL     1       1.445   6.584  19.905  0.00  0.00    +0.000 N 
ATOM      9  C   UNL     1       2.547   5.619  19.992  0.00  0.00    +0.000 C 
ATOM     10  N   UNL     1       3.483   5.797  18.892  0.00  0.00    +0.000 N 
ATOM     11  N   UNL     1       4.592   5.096  18.952  0.00  0.00    +0.000 NA
ATOM     12  C   UNL     1       5.190   5.362  17.797  0.00  0.00    +0.000 A 
ATOM     13  C   UNL     1       4.593   6.556  17.194  0.00  0.00    +0.000 A 
ATOM     14  C   UNL     1       3.510   6.920  18.019  0.00  0.00    +0.000 A 
ATOM     15  H   UNL     1       1.070   6.498  18.937  0.00  0.00    +0.000 HD
ENDROOT
BRANCH   1  22
ATOM     16  O   UNL     1       0.925  12.513  19.159  0.00  0.00    +0.000 OA
ATOM     17  C   UNL     1      -0.256  12.692  18.921  0.00  0.00    +0.000 C 
ATOM     18  N   UNL     1      -1.039  11.617  18.551  0.00  0.00    +0.000 N 
ATOM     19  C   UNL     1      -2.347  11.879  18.007  0.00  0.00    +0.000 A 
ATOM     20  C   UNL     1      -2.942  10.682  17.522  0.00  0.00    +0.000 A 
ATOM     21  C   UNL     1      -1.970   9.692  17.857  0.00  0.00    +0.000 A 
ATOM     22  N   UNL     1      -0.769  10.278  18.443  0.00  0.00    +0.000 N 
ENDBRANCH   1  22
BRANCH   9  23
ATOM     23  C   UNL     1       1.886   4.236  20.019  0.00  0.00    +0.000 C 
ATOM     24  O   UNL     1       1.455   3.659  20.998  0.00  0.00    +0.000 OA
BRANCH  23  25
ATOM     25  O   UNL     1       1.799   3.722  18.751  0.00  0.00    +0.000 OA
ATOM     26  H   UNL     1       1.273   4.348  18.194  0.00  0.00    +0.000 HD
ENDBRANCH  23  25
ENDBRANCH   9  23
BRANCH  12  27
ATOM     27  C   UNL     1       6.283   4.432  17.502  0.00  0.00    +0.000 C 
ATOM     28  O   UNL     1       7.329   4.381  18.113  0.00  0.00    +0.000 OA
BRANCH  27  29
ATOM     29  O   UNL     1       6.019   3.626  16.414  0.00  0.00    +0.000 OA
ATOM     30  H   UNL     1       6.129   4.207  15.622  0.00  0.00    +0.000 HD
ENDBRANCH  27  29
ENDBRANCH  12  27
TORSDOF 5
ENDMDL
MODEL 6
REMARK VINA RESULT:      -7.0      1.239      1.660
REMARK  Name = 
REMARK  5 active torsions:
REMARK  status: ('A' for Active; 'I' for Inactive)
REMARK    1  A    between atoms: N_7  and  C_8
REMARK    2  A    between atoms: C_16  and  C_17
REMARK    3  A    between atoms: C_17  and  O_19
REMARK    4  A    between atoms: C_22  and  C_23
REMARK    5  A    between atoms: C_23  and  O_25
REMARK                            x       y       z     vdW  Elec       q    Type
REMARK                         _______ _______ _______ _____ _____    ______ ____
ROOT
ATOM      1  C   UNL     1       0.773   9.480  19.465  0.00  0.00    +0.000 A 
ATOM      2  C   UNL     1       1.727   9.150  18.379  0.00  0.00    +0.000 A 
ATOM      3  C   UNL     1       2.613   8.036  18.556  0.00  0.00    +0.000 A 
ATOM      4  C   UNL     1       2.370   7.424  19.812  0.00  0.00    +0.000 A 
ATOM      5  C   UNL     1       1.919   7.987  20.983  0.00  0.00    +0.000 A 
ATOM      6  C   UNL     1       0.845   8.771  20.705  0.00  0.00    +0.000 A 
ATOM      7 CL   UNL     1      -0.594   8.232  21.580  0.00  0.00    +0.000 Cl
ATOM      8  N   UNL     1       1.273   6.285  19.479  0.00  0.00    +0.000 N 
ATOM      9  C   UNL     1       2.215   5.204  19.165  0.00  0.00    +0.000 C 
ATOM     10  N   UNL     1       3.168   5.623  18.148  0.00  0.00    +0.000 N 
ATOM     11  N   UNL     1       4.156   4.794  17.900  0.00  0.00    +0.000 NA
ATOM     12  C   UNL     1       4.789   5.363  16.880  0.00  0.00    +0.000 A 
ATOM     13  C   UNL     1       4.382   6.767  16.766  0.00  0.00    +0.000 A 
ATOM     14  C   UNL     1       3.367   6.966  17.723  0.00  0.00    +0.000 A 
ATOM     15  H   UNL     1       0.890   6.601  18.563  0.00  0.00    +0.000 HD
ENDROOT
BRANCH   1  22
ATOM     16  O   UNL     1      -1.158   9.298  17.031  0.00  0.00    +0.000 OA
ATOM     17  C   UNL     1      -1.731  10.294  17.434  0.00  0.00    +0.000 C 
ATOM     18  N   UNL     1      -1.350  10.849  18.640  0.00  0.00    +0.000 N 
ATOM     19  C   UNL     1      -2.206  11.843  19.236  0.00  0.00    +0.000 A 
ATOM     20  C   UNL     1      -1.758  12.177  20.544  0.00  0.00    +0.000 A 
ATOM     21  C   UNL     1      -0.571  11.396  20.677  0.00  0.00    +0.000 A 
ATOM     22  N   UNL     1      -0.349  10.533  19.521  0.00  0.00    +0.000 N 
ENDBRANCH   1  22
BRANCH   9  23
ATOM     23  C   UNL     1       1.350   4.011  18.742  0.00  0.00    +0.000 C 
ATOM     24  O   UNL     1       0.815   3.207  19.480  0.00  0.00    +0.000 OA
BRANCH  23  25
ATOM     25  O   UNL     1       1.213   3.978  17.377  0.00  0.00    +0.000 OA
ATOM     26  H   UNL     1       2.113   3.893  16.975  0.00  0.00    +0.000 HD
ENDBRANCH  23  25
ENDBRANCH   9  23
BRANCH  12  27
ATOM     27  C   UNL     1       5.726   4.452  16.222  0.00  0.00    +0.000 C 
ATOM     28  O   UNL     1       5.639   4.086  15.068  0.00  0.00    +0.000 OA
BRANCH  27  29
ATOM     29  O   UNL     1       6.721   4.006  17.067  0.00  0.00    +0.000 OA
ATOM     30  H   UNL     1       7.505   3.838  16.487  0.00  0.00    +0.000 HD
ENDBRANCH  27  29
ENDBRANCH  12  27
TORSDOF 5
ENDMDL
MODEL 7
REMARK VINA RESULT:      -6.8      4.285      6.275
REMARK  Name = 
REMARK  5 active torsions:
REMARK  status: ('A' for Active; 'I' for Inactive)
REMARK    1  A    between atoms: N_7  and  C_8
REMARK    2  A    between atoms: C_16  and  C_17
REMARK    3  A    between atoms: C_17  and  O_19
REMARK    4  A    between atoms: C_22  and  C_23
REMARK    5  A    between atoms: C_23  and  O_25
REMARK                            x       y       z     vdW  Elec       q    Type
REMARK                         _______ _______ _______ _____ _____    ______ ____
ROOT
ATOM      1  C   UNL     1       2.882   4.206  18.843  0.00  0.00    +0.000 A 
ATOM      2  C   UNL     1       3.667   3.623  17.728  0.00  0.00    +0.000 A 
ATOM      3  C   UNL     1       4.265   4.507  16.770  0.00  0.00    +0.000 A 
ATOM      4  C   UNL     1       3.978   5.852  17.113  0.00  0.00    +0.000 A 
ATOM      5  C   UNL     1       2.884   6.371  17.764  0.00  0.00    +0.000 A 
ATOM      6  C   UNL     1       2.630   5.614  18.864  0.00  0.00    +0.000 A 
ATOM      7 CL   UNL     1       2.716   6.576  20.346  0.00  0.00    +0.000 Cl
ATOM      8  N   UNL     1       5.227   6.286  18.043  0.00  0.00    +0.000 N 
ATOM      9  C   UNL     1       6.099   6.774  16.968  0.00  0.00    +0.000 C 
ATOM     10  N   UNL     1       6.271   5.763  15.936  0.00  0.00    +0.000 N 
ATOM     11  N   UNL     1       6.902   6.142  14.849  0.00  0.00    +0.000 NA
ATOM     12  C   UNL     1       7.011   5.020  14.147  0.00  0.00    +0.000 A 
ATOM     13  C   UNL     1       6.079   4.017  14.669  0.00  0.00    +0.000 A 
ATOM     14  C   UNL     1       5.485   4.584  15.815  0.00  0.00    +0.000 A 
ATOM     15  H   UNL     1       5.623   5.367  18.332  0.00  0.00    +0.000 HD
ENDROOT
BRANCH   1  22
ATOM     16  O   UNL     1       0.519   2.347  18.040  0.00  0.00    +0.000 OA
ATOM     17  C   UNL     1       0.285   2.165  19.222  0.00  0.00    +0.000 C 
ATOM     18  N   UNL     1       1.129   2.713  20.168  0.00  0.00    +0.000 N 
ATOM     19  C   UNL     1       1.009   2.265  21.531  0.00  0.00    +0.000 A 
ATOM     20  C   UNL     1       2.058   2.797  22.332  0.00  0.00    +0.000 A 
ATOM     21  C   UNL     1       2.764   3.627  21.411  0.00  0.00    +0.000 A 
ATOM     22  N   UNL     1       2.222   3.532  20.059  0.00  0.00    +0.000 N 
ENDBRANCH   1  22
BRANCH   9  23
ATOM     23  C   UNL     1       7.410   7.183  17.652  0.00  0.00    +0.000 C 
ATOM     24  O   UNL     1       7.974   6.588  18.550  0.00  0.00    +0.000 OA
BRANCH  23  25
ATOM     25  O   UNL     1       7.911   8.325  17.084  0.00  0.00    +0.000 OA
ATOM     26  H   UNL     1       7.229   9.038  17.158  0.00  0.00    +0.000 HD
ENDBRANCH  23  25
ENDBRANCH   9  23
BRANCH  12  27
ATOM     27  C   UNL     1       7.972   5.136  13.048  0.00  0.00    +0.000 C 
ATOM     28  O   UNL     1       8.979   5.812  13.080  0.00  0.00    +0.000 OA
BRANCH  27  29
ATOM     29  O   UNL     1       7.597   4.418  11.932  0.00  0.00    +0.000 OA
ATOM     30  H   UNL     1       8.188   4.732  11.204  0.00  0.00    +0.000 HD
ENDBRANCH  27  29
ENDBRANCH  12  27
TORSDOF 5
ENDMDL
MODEL 8
REMARK VINA RESULT:      -6.5      4.448      7.366
REMARK  Name = 
REMARK  5 active torsions:
REMARK  status: ('A' for Active; 'I' for Inactive)
REMARK    1  A    between atoms: N_7  and  C_8
REMARK    2  A    between atoms: C_16  and  C_17
REMARK    3  A    between atoms: C_17  and  O_19
REMARK    4  A    between atoms: C_22  and  C_23
REMARK    5  A    between atoms: C_23  and  O_25
REMARK                            x       y       z     vdW  Elec       q    Type
REMARK                         _______ _______ _______ _____ _____    ______ ____
ROOT
ATOM      1  C   UNL     1      -3.754  13.802  22.033  0.00  0.00    +0.000 A 
ATOM      2  C   UNL     1      -3.346  13.036  20.831  0.00  0.00    +0.000 A 
ATOM      3  C   UNL     1      -1.981  12.611  20.715  0.00  0.00    +0.000 A 
ATOM      4  C   UNL     1      -1.251  13.024  21.858  0.00  0.00    +0.000 A 
ATOM      5  C   UNL     1      -1.441  14.123  22.664  0.00  0.00    +0.000 A 
ATOM      6  C   UNL     1      -2.760  14.211  22.978  0.00  0.00    +0.000 A 
ATOM      7 CL   UNL     1      -3.016  14.132  24.726  0.00  0.00    +0.000 Cl
ATOM      8  N   UNL     1      -1.380  11.771  22.871  0.00  0.00    +0.000 N 
ATOM      9  C   UNL     1      -0.194  11.037  22.412  0.00  0.00    +0.000 C 
ATOM     10  N   UNL     1      -0.238  10.824  20.973  0.00  0.00    +0.000 N 
ATOM     11  N   UNL     1       0.843  10.318  20.426  0.00  0.00    +0.000 NA
ATOM     12  C   UNL     1       0.491  10.131  19.159  0.00  0.00    +0.000 A 
ATOM     13  C   UNL     1      -0.718  10.904  18.862  0.00  0.00    +0.000 A 
ATOM     14  C   UNL     1      -1.133  11.477  20.081  0.00  0.00    +0.000 A 
ATOM     15  H   UNL     1      -2.198  11.254  22.487  0.00  0.00    +0.000 HD
ENDROOT
BRANCH   1  22
ATOM     16  O   UNL     1      -5.035  11.963  24.193  0.00  0.00    +0.000 OA
ATOM     17  C   UNL     1      -6.050  12.634  24.136  0.00  0.00    +0.000 C 
ATOM     18  N   UNL     1      -6.069  13.760  23.336  0.00  0.00    +0.000 N 
ATOM     19  C   UNL     1      -7.159  14.689  23.490  0.00  0.00    +0.000 A 
ATOM     20  C   UNL     1      -6.933  15.865  22.724  0.00  0.00    +0.000 A 
ATOM     21  C   UNL     1      -5.705  15.573  22.058  0.00  0.00    +0.000 A 
ATOM     22  N   UNL     1      -5.142  14.295  22.480  0.00  0.00    +0.000 N 
ENDBRANCH   1  22
BRANCH   9  23
ATOM     23  C   UNL     1      -0.172   9.737  23.225  0.00  0.00    +0.000 C 
ATOM     24  O   UNL     1       0.427   9.545  24.265  0.00  0.00    +0.000 OA
BRANCH  23  25
ATOM     25  O   UNL     1      -0.969   8.790  22.636  0.00  0.00    +0.000 OA
ATOM     26  H   UNL     1      -0.871   7.943  23.138  0.00  0.00    +0.000 HD
ENDBRANCH  23  25
ENDBRANCH   9  23
BRANCH  12  27
ATOM     27  C   UNL     1       1.429   9.268  18.437  0.00  0.00    +0.000 C 
ATOM     28  O   UNL     1       1.809   8.184  18.827  0.00  0.00    +0.000 OA
BRANCH  27  29
ATOM     29  O   UNL     1       1.879   9.834  17.263  0.00  0.00    +0.000 OA
ATOM     30  H   UNL     1       1.998  10.796  17.462  0.00  0.00    +0.000 HD
ENDBRANCH  27  29
ENDBRANCH  12  27
TORSDOF 5
ENDMDL
MODEL 9
REMARK VINA RESULT:      -6.4      3.598      6.404
REMARK  Name = 
REMARK  5 active torsions:
REMARK  status: ('A' for Active; 'I' for Inactive)
REMARK    1  A    between atoms: N_7  and  C_8
REMARK    2  A    between atoms: C_16  and  C_17
REMARK    3  A    between atoms: C_17  and  O_19
REMARK    4  A    between atoms: C_22  and  C_23
REMARK    5  A    between atoms: C_23  and  O_25
REMARK                            x       y       z     vdW  Elec       q    Type
REMARK                         _______ _______ _______ _____ _____    ______ ____
ROOT
ATOM      1  C   UNL     1      -1.698  12.966  22.610  0.00  0.00    +0.000 A 
ATOM      2  C   UNL     1      -0.940  11.706  22.802  0.00  0.00    +0.000 A 
ATOM      3  C   UNL     1      -0.652  10.894  21.655  0.00  0.00    +0.000 A 
ATOM      4  C   UNL     1      -1.171  11.509  20.488  0.00  0.00    +0.000 A 
ATOM      5  C   UNL     1      -2.269  12.326  20.348  0.00  0.00    +0.000 A 
ATOM      6  C   UNL     1      -2.233  13.276  21.320  0.00  0.00    +0.000 A 
ATOM      7 CL   UNL     1      -2.183  14.904  20.631  0.00  0.00    +0.000 Cl
ATOM      8  N   UNL     1       0.057  12.412  19.950  0.00  0.00    +0.000 N 
ATOM      9  C   UNL     1       0.681  11.390  19.101  0.00  0.00    +0.000 C 
ATOM     10  N   UNL     1       0.942  10.173  19.856  0.00  0.00    +0.000 N 
ATOM     11  N   UNL     1       1.353   9.136  19.164  0.00  0.00    +0.000 NA
ATOM     12  C   UNL     1       1.614   8.226  20.095  0.00  0.00    +0.000 A 
ATOM     13  C   UNL     1       0.976   8.612  21.357  0.00  0.00    +0.000 A 
ATOM     14  C   UNL     1       0.410   9.885  21.143  0.00  0.00    +0.000 A 
ATOM     15  H   UNL     1       0.665  12.490  20.791  0.00  0.00    +0.000 HD
ENDROOT
BRANCH   1  22
ATOM     16  O   UNL     1       0.517  15.140  22.840  0.00  0.00    +0.000 OA
ATOM     17  C   UNL     1      -0.119  15.667  23.736  0.00  0.00    +0.000 C 
ATOM     18  N   UNL     1      -1.361  15.162  24.067  0.00  0.00    +0.000 N 
ATOM     19  C   UNL     1      -2.213  15.950  24.920  0.00  0.00    +0.000 A 
ATOM     20  C   UNL     1      -3.508  15.368  25.017  0.00  0.00    +0.000 A 
ATOM     21  C   UNL     1      -3.372  14.175  24.247  0.00  0.00    +0.000 A 
ATOM     22  N   UNL     1      -2.062  14.075  23.613  0.00  0.00    +0.000 N 
ENDBRANCH   1  22
BRANCH   9  23
ATOM     23  C   UNL     1       1.947  12.042  18.531  0.00  0.00    +0.000 C 
ATOM     24  O   UNL     1       2.546  12.991  19.000  0.00  0.00    +0.000 OA
BRANCH  23  25
ATOM     25  O   UNL     1       2.363  11.379  17.405  0.00  0.00    +0.000 OA
ATOM     26  H   UNL     1       2.825  10.550  17.683  0.00  0.00    +0.000 HD
ENDBRANCH  23  25
ENDBRANCH   9  23
BRANCH  12  27
ATOM     27  C   UNL     1       2.399   7.103  19.580  0.00  0.00    +0.000 C 
ATOM     28  O   UNL     1       2.852   7.035  18.456  0.00  0.00    +0.000 OA
BRANCH  27  29
ATOM     29  O   UNL     1       2.548   6.088  20.501  0.00  0.00    +0.000 OA
ATOM     30  H   UNL     1       3.496   5.810  20.438  0.00  0.00    +0.000 HD
ENDBRANCH  27  29
ENDBRANCH  12  27
TORSDOF 5
ENDMDL
