MODEL 1
REMARK VINA RESULT:      -8.0      0.000      0.000
REMARK  Name = 
REMARK  7 active torsions:
REMARK  status: ('A' for Active; 'I' for Inactive)
REMARK    1  A    between atoms: C_2  and  C_3
REMARK    2  A    between atoms: C_3  and  O_4
REMARK    3  A    between atoms: O_4  and  C_5
REMARK    4  A    between atoms: C_8  and  N_9
REMARK    5  A    between atoms: N_14  and  C_15
REMARK    6  A    between atoms: C_20  and  C_21
REMARK    7  A    between atoms: N_23  and  C_24
REMARK                            x       y       z     vdW  Elec       q    Type
REMARK                         _______ _______ _______ _____ _____    ______ ____
ROOT
ATOM      1  O   UNL     1       6.283   5.292  19.736  0.00  0.00    +0.000 OA
ATOM      2  C   UNL     1       5.708   5.479  18.665  0.00  0.00    +0.000 C 
ATOM      3  N   UNL     1       4.395   5.086  18.396  0.00  0.00    +0.000 N 
ATOM      4  H   UNL     1       3.920   5.475  17.587  0.00  0.00    +0.000 HD
ENDROOT
BRANCH   3   5
ATOM      5  C   UNL     1       3.585   4.456  19.376  0.00  0.00    +0.000 A 
ATOM      6  C   UNL     1       3.732   3.073  19.558  0.00  0.00    +0.000 A 
ATOM      7  C   UNL     1       2.937   2.379  20.472  0.00  0.00    +0.000 A 
ATOM      8  C   UNL     1       2.012   3.066  21.249  0.00  0.00    +0.000 A 
ATOM      9  C   UNL     1       1.845   4.440  21.073  0.00  0.00    +0.000 A 
ATOM     10  C   UNL     1       2.599   5.144  20.114  0.00  0.00    +0.000 A 
BRANCH  10  11
ATOM     11  C   UNL     1       2.302   6.606  19.999  0.00  0.00    +0.000 C 
ATOM     12  O   UNL     1       2.521   7.197  18.946  0.00  0.00    +0.000 OA
ATOM     13  N   UNL     1       1.740   7.208  21.111  0.00  0.00    +0.000 N 
ATOM     14  H   UNL     1       1.344   6.590  21.802  0.00  0.00    +0.000 HD
BRANCH  13  15
ATOM     15  C   UNL     1       1.272   8.564  21.092  0.00  0.00    +0.000 C 
ATOM     16  C   UNL     1      -0.168   8.843  21.439  0.00  0.00    +0.000 C 
ATOM     17  C   UNL     1       0.924   9.297  22.359  0.00  0.00    +0.000 C 
ENDBRANCH  13  15
ENDBRANCH  10  11
ENDBRANCH   3   5
BRANCH   2  18
ATOM     18  C   UNL     1       6.358   6.299  17.547  0.00  0.00    +0.000 C 
BRANCH  18  19
ATOM     19  O   UNL     1       7.402   5.589  16.894  0.00  0.00    +0.000 OA
BRANCH  19  20
ATOM     20  C   UNL     1       7.055   5.002  15.703  0.00  0.00    +0.000 A 
ATOM     21  C   UNL     1       6.084   3.996  15.770  0.00  0.00    +0.000 A 
ATOM     22  C   UNL     1       5.627   3.365  14.604  0.00  0.00    +0.000 A 
ATOM     23  C   UNL     1       6.138   3.757  13.365  0.00  0.00    +0.000 A 
ATOM     24  C   UNL     1       7.107   4.763  13.284  0.00  0.00    +0.000 A 
ATOM     25  C   UNL     1       7.558   5.382  14.455  0.00  0.00    +0.000 A 
BRANCH  23  26
ATOM     26  N   UNL     1       5.656   3.129  12.124  0.00  0.00    +0.000 N 
ATOM     27  O   UNL     1       4.519   3.439  11.744  0.00  0.00    +0.000 OA
ATOM     28  O   UNL     1       6.405   2.338  11.546  0.00  0.00    +0.000 OA
ENDBRANCH  23  26
ENDBRANCH  19  20
ENDBRANCH  18  19
ENDBRANCH   2  18
TORSDOF 7
ENDMDL
MODEL 2
REMARK VINA RESULT:      -7.9      4.961      8.607
REMARK  Name = 
REMARK  7 active torsions:
REMARK  status: ('A' for Active; 'I' for Inactive)
REMARK    1  A    between atoms: C_2  and  C_3
REMARK    2  A    between atoms: C_3  and  O_4
REMARK    3  A    between atoms: O_4  and  C_5
REMARK    4  A    between atoms: C_8  and  N_9
REMARK    5  A    between atoms: N_14  and  C_15
REMARK    6  A    between atoms: C_20  and  C_21
REMARK    7  A    between atoms: N_23  and  C_24
REMARK                            x       y       z     vdW  Elec       q    Type
REMARK                         _______ _______ _______ _____ _____    ______ ____
ROOT
ATOM      1  O   UNL     1       7.598   6.427  18.618  0.00  0.00    +0.000 OA
ATOM      2  C   UNL     1       7.298   7.298  17.804  0.00  0.00    +0.000 C 
ATOM      3  N   UNL     1       6.138   7.286  17.027  0.00  0.00    +0.000 N 
ATOM      4  H   UNL     1       5.850   8.139  16.557  0.00  0.00    +0.000 HD
ENDROOT
BRANCH   3   5
ATOM      5  C   UNL     1       5.167   6.259  17.146  0.00  0.00    +0.000 A 
ATOM      6  C   UNL     1       4.142   6.431  18.088  0.00  0.00    +0.000 A 
ATOM      7  C   UNL     1       3.178   5.442  18.292  0.00  0.00    +0.000 A 
ATOM      8  C   UNL     1       3.199   4.284  17.524  0.00  0.00    +0.000 A 
ATOM      9  C   UNL     1       4.217   4.091  16.590  0.00  0.00    +0.000 A 
ATOM     10  C   UNL     1       5.231   5.054  16.415  0.00  0.00    +0.000 A 
BRANCH  10  11
ATOM     11  C   UNL     1       6.283   4.713  15.408  0.00  0.00    +0.000 C 
ATOM     12  O   UNL     1       7.468   4.887  15.674  0.00  0.00    +0.000 OA
ATOM     13  N   UNL     1       5.839   4.163  14.217  0.00  0.00    +0.000 N 
ATOM     14  H   UNL     1       4.898   3.804  14.214  0.00  0.00    +0.000 HD
BRANCH  13  15
ATOM     15  C   UNL     1       6.744   3.657  13.224  0.00  0.00    +0.000 C 
ATOM     16  C   UNL     1       6.202   3.279  11.870  0.00  0.00    +0.000 C 
ATOM     17  C   UNL     1       7.112   4.462  12.009  0.00  0.00    +0.000 C 
ENDBRANCH  13  15
ENDBRANCH  10  11
ENDBRANCH   3   5
BRANCH   2  18
ATOM     18  C   UNL     1       8.133   8.574  17.663  0.00  0.00    +0.000 C 
BRANCH  18  19
ATOM     19  O   UNL     1       8.872   8.869  18.841  0.00  0.00    +0.000 OA
BRANCH  19  20
ATOM     20  C   UNL     1       9.138  10.200  19.048  0.00  0.00    +0.000 A 
ATOM     21  C   UNL     1       9.076  11.025  17.918  0.00  0.00    +0.000 A 
ATOM     22  C   UNL     1       9.287  12.407  18.032  0.00  0.00    +0.000 A 
ATOM     23  C   UNL     1       9.547  12.962  19.286  0.00  0.00    +0.000 A 
ATOM     24  C   UNL     1       9.609  12.149  20.423  0.00  0.00    +0.000 A 
ATOM     25  C   UNL     1       9.401  10.771  20.296  0.00  0.00    +0.000 A 
BRANCH  23  26
ATOM     26  N   UNL     1       9.745  14.414  19.435  0.00  0.00    +0.000 N 
ATOM     27  O   UNL     1       9.425  15.125  18.475  0.00  0.00    +0.000 OA
ATOM     28  O   UNL     1      10.217  14.827  20.497  0.00  0.00    +0.000 OA
ENDBRANCH  23  26
ENDBRANCH  19  20
ENDBRANCH  18  19
ENDBRANCH   2  18
TORSDOF 7
ENDMDL
MODEL 3
REMARK VINA RESULT:      -7.9      0.404      1.030
REMARK  Name = 
REMARK  7 active torsions:
REMARK  status: ('A' for Active; 'I' for Inactive)
REMARK    1  A    between atoms: C_2  and  C_3
REMARK    2  A    between atoms: C_3  and  O_4
REMARK    3  A    between atoms: O_4  and  C_5
REMARK    4  A    between atoms: C_8  and  N_9
REMARK    5  A    between atoms: N_14  and  C_15
REMARK    6  A    between atoms: C_20  and  C_21
REMARK    7  A    between atoms: N_23  and  C_24
REMARK                            x       y       z     vdW  Elec       q    Type
REMARK                         _______ _______ _______ _____ _____    ______ ____
ROOT
ATOM      1  O   UNL     1       6.021   5.082  19.754  0.00  0.00    +0.000 OA
ATOM      2  C   UNL     1       5.560   5.471  18.683  0.00  0.00    +0.000 C 
ATOM      3  N   UNL     1       4.236   5.286  18.280  0.00  0.00    +0.000 N 
ATOM      4  H   UNL     1       3.877   5.829  17.501  0.00  0.00    +0.000 HD
ENDROOT
BRANCH   3   5
ATOM      5  C   UNL     1       3.280   4.651  19.114  0.00  0.00    +0.000 A 
ATOM      6  C   UNL     1       3.245   3.249  19.122  0.00  0.00    +0.000 A 
ATOM      7  C   UNL     1       2.301   2.557  19.884  0.00  0.00    +0.000 A 
ATOM      8  C   UNL     1       1.406   3.257  20.684  0.00  0.00    +0.000 A 
ATOM      9  C   UNL     1       1.420   4.652  20.679  0.00  0.00    +0.000 A 
ATOM     10  C   UNL     1       2.327   5.365  19.871  0.00  0.00    +0.000 A 
BRANCH  10  11
ATOM     11  C   UNL     1       2.217   6.856  19.930  0.00  0.00    +0.000 C 
ATOM     12  O   UNL     1       2.550   7.536  18.964  0.00  0.00    +0.000 OA
ATOM     13  N   UNL     1       1.688   7.387  21.094  0.00  0.00    +0.000 N 
ATOM     14  H   UNL     1       1.192   6.746  21.693  0.00  0.00    +0.000 HD
BRANCH  13  15
ATOM     15  C   UNL     1       1.392   8.785  21.231  0.00  0.00    +0.000 C 
ATOM     16  C   UNL     1      -0.009   9.263  20.953  0.00  0.00    +0.000 C 
ATOM     17  C   UNL     1       0.531   9.304  22.350  0.00  0.00    +0.000 C 
ENDBRANCH  13  15
ENDBRANCH  10  11
ENDBRANCH   3   5
BRANCH   2  18
ATOM     18  C   UNL     1       6.391   6.331  17.727  0.00  0.00    +0.000 C 
BRANCH  18  19
ATOM     19  O   UNL     1       7.365   5.570  17.024  0.00  0.00    +0.000 OA
BRANCH  19  20
ATOM     20  C   UNL     1       6.919   4.967  15.874  0.00  0.00    +0.000 A 
ATOM     21  C   UNL     1       7.452   5.455  14.674  0.00  0.00    +0.000 A 
ATOM     22  C   UNL     1       7.095   4.876  13.447  0.00  0.00    +0.000 A 
ATOM     23  C   UNL     1       6.211   3.796  13.428  0.00  0.00    +0.000 A 
ATOM     24  C   UNL     1       5.673   3.298  14.620  0.00  0.00    +0.000 A 
ATOM     25  C   UNL     1       6.033   3.887  15.838  0.00  0.00    +0.000 A 
BRANCH  23  26
ATOM     26  N   UNL     1       5.841   3.155  12.156  0.00  0.00    +0.000 N 
ATOM     27  O   UNL     1       4.703   3.379  11.725  0.00  0.00    +0.000 OA
ATOM     28  O   UNL     1       6.679   2.438  11.604  0.00  0.00    +0.000 OA
ENDBRANCH  23  26
ENDBRANCH  19  20
ENDBRANCH  18  19
ENDBRANCH   2  18
TORSDOF 7
ENDMDL
MODEL 4
REMARK VINA RESULT:      -7.7      4.986      8.515
REMARK  Name = 
REMARK  7 active torsions:
REMARK  status: ('A' for Active; 'I' for Inactive)
REMARK    1  A    between atoms: C_2  and  C_3
REMARK    2  A    between atoms: C_3  and  O_4
REMARK    3  A    between atoms: O_4  and  C_5
REMARK    4  A    between atoms: C_8  and  N_9
REMARK    5  A    between atoms: N_14  and  C_15
REMARK    6  A    between atoms: C_20  and  C_21
REMARK    7  A    between atoms: N_23  and  C_24
REMARK                            x       y       z     vdW  Elec       q    Type
REMARK                         _______ _______ _______ _____ _____    ______ ____
ROOT
ATOM      1  O   UNL     1       8.009   6.250  18.542  0.00  0.00    +0.000 OA
ATOM      2  C   UNL     1       7.414   7.110  17.895  0.00  0.00    +0.000 C 
ATOM      3  N   UNL     1       6.148   6.938  17.332  0.00  0.00    +0.000 N 
ATOM      4  H   UNL     1       5.633   7.756  17.018  0.00  0.00    +0.000 HD
ENDROOT
BRANCH   3   5
ATOM      5  C   UNL     1       5.409   5.739  17.498  0.00  0.00    +0.000 A 
ATOM      6  C   UNL     1       4.886   5.461  18.769  0.00  0.00    +0.000 A 
ATOM      7  C   UNL     1       4.188   4.278  19.018  0.00  0.00    +0.000 A 
ATOM      8  C   UNL     1       3.964   3.374  17.986  0.00  0.00    +0.000 A 
ATOM      9  C   UNL     1       4.488   3.629  16.718  0.00  0.00    +0.000 A 
ATOM     10  C   UNL     1       5.244   4.790  16.466  0.00  0.00    +0.000 A 
BRANCH  10  11
ATOM     11  C   UNL     1       5.777   4.930  15.076  0.00  0.00    +0.000 C 
ATOM     12  O   UNL     1       6.670   5.738  14.838  0.00  0.00    +0.000 OA
ATOM     13  N   UNL     1       5.243   4.078  14.124  0.00  0.00    +0.000 N 
ATOM     14  H   UNL     1       4.739   3.278  14.473  0.00  0.00    +0.000 HD
BRANCH  13  15
ATOM     15  C   UNL     1       5.760   4.003  12.788  0.00  0.00    +0.000 C 
ATOM     16  C   UNL     1       6.196   2.664  12.250  0.00  0.00    +0.000 C 
ATOM     17  C   UNL     1       4.989   3.343  11.678  0.00  0.00    +0.000 C 
ENDBRANCH  13  15
ENDBRANCH  10  11
ENDBRANCH   3   5
BRANCH   2  18
ATOM     18  C   UNL     1       7.973   8.529  17.759  0.00  0.00    +0.000 C 
BRANCH  18  19
ATOM     19  O   UNL     1       8.810   8.887  18.851  0.00  0.00    +0.000 OA
BRANCH  19  20
ATOM     20  C   UNL     1       9.139  10.218  18.926  0.00  0.00    +0.000 A 
ATOM     21  C   UNL     1       9.685  10.651  20.140  0.00  0.00    +0.000 A 
ATOM     22  C   UNL     1      10.097  11.983  20.302  0.00  0.00    +0.000 A 
ATOM     23  C   UNL     1       9.971  12.876  19.236  0.00  0.00    +0.000 A 
ATOM     24  C   UNL     1       9.429  12.454  18.017  0.00  0.00    +0.000 A 
ATOM     25  C   UNL     1       9.018  11.124  17.869  0.00  0.00    +0.000 A 
BRANCH  23  26
ATOM     26  N   UNL     1      10.420  14.271  19.373  0.00  0.00    +0.000 N 
ATOM     27  O   UNL     1      10.115  15.050  18.461  0.00  0.00    +0.000 OA
ATOM     28  O   UNL     1      11.068  14.575  20.377  0.00  0.00    +0.000 OA
ENDBRANCH  23  26
ENDBRANCH  19  20
ENDBRANCH  18  19
ENDBRANCH   2  18
TORSDOF 7
ENDMDL
MODEL 5
REMARK VINA RESULT:      -7.7      5.076      7.717
REMARK  Name = 
REMARK  7 active torsions:
REMARK  status: ('A' for Active; 'I' for Inactive)
REMARK    1  A    between atoms: C_2  and  C_3
REMARK    2  A    between atoms: C_3  and  O_4
REMARK    3  A    between atoms: O_4  and  C_5
REMARK    4  A    between atoms: C_8  and  N_9
REMARK    5  A    between atoms: N_14  and  C_15
REMARK    6  A    between atoms: C_20  and  C_21
REMARK    7  A    between atoms: N_23  and  C_24
REMARK                            x       y       z     vdW  Elec       q    Type
REMARK                         _______ _______ _______ _____ _____    ______ ____
ROOT
ATOM      1  O   UNL     1       8.066   6.482  18.355  0.00  0.00    +0.000 OA
ATOM      2  C   UNL     1       7.599   7.381  17.659  0.00  0.00    +0.000 C 
ATOM      3  N   UNL     1       6.710   7.179  16.601  0.00  0.00    +0.000 N 
ATOM      4  H   UNL     1       6.196   7.972  16.230  0.00  0.00    +0.000 HD
ENDROOT
BRANCH   3   5
ATOM      5  C   UNL     1       6.233   5.888  16.258  0.00  0.00    +0.000 A 
ATOM      6  C   UNL     1       6.915   5.181  15.256  0.00  0.00    +0.000 A 
ATOM      7  C   UNL     1       6.475   3.925  14.835  0.00  0.00    +0.000 A 
ATOM      8  C   UNL     1       5.372   3.336  15.444  0.00  0.00    +0.000 A 
ATOM      9  C   UNL     1       4.676   4.029  16.435  0.00  0.00    +0.000 A 
ATOM     10  C   UNL     1       5.073   5.322  16.828  0.00  0.00    +0.000 A 
BRANCH  10  11
ATOM     11  C   UNL     1       4.225   5.971  17.875  0.00  0.00    +0.000 C 
ATOM     12  O   UNL     1       3.948   7.164  17.790  0.00  0.00    +0.000 OA
ATOM     13  N   UNL     1       3.754   5.147  18.883  0.00  0.00    +0.000 N 
ATOM     14  H   UNL     1       3.798   4.156  18.706  0.00  0.00    +0.000 HD
BRANCH  13  15
ATOM     15  C   UNL     1       2.815   5.603  19.868  0.00  0.00    +0.000 C 
ATOM     16  C   UNL     1       1.443   4.981  19.910  0.00  0.00    +0.000 C 
ATOM     17  C   UNL     1       2.408   4.739  21.030  0.00  0.00    +0.000 C 
ENDBRANCH  13  15
ENDBRANCH  10  11
ENDBRANCH   3   5
BRANCH   2  18
ATOM     18  C   UNL     1       7.857   8.855  17.987  0.00  0.00    +0.000 C 
BRANCH  18  19
ATOM     19  O   UNL     1       8.843   9.018  18.998  0.00  0.00    +0.000 OA
BRANCH  19  20
ATOM     20  C   UNL     1       9.293  10.303  19.175  0.00  0.00    +0.000 A 
ATOM     21  C   UNL     1       9.545  11.035  18.008  0.00  0.00    +0.000 A 
ATOM     22  C   UNL     1       9.965  12.371  18.080  0.00  0.00    +0.000 A 
ATOM     23  C   UNL     1      10.120  12.976  19.329  0.00  0.00    +0.000 A 
ATOM     24  C   UNL     1       9.869  12.256  20.503  0.00  0.00    +0.000 A 
ATOM     25  C   UNL     1       9.454  10.922  20.417  0.00  0.00    +0.000 A 
BRANCH  23  26
ATOM     26  N   UNL     1      10.534  14.386  19.431  0.00  0.00    +0.000 N 
ATOM     27  O   UNL     1      10.388  15.087  18.422  0.00  0.00    +0.000 OA
ATOM     28  O   UNL     1      10.999  14.775  20.505  0.00  0.00    +0.000 OA
ENDBRANCH  23  26
ENDBRANCH  19  20
ENDBRANCH  18  19
ENDBRANCH   2  18
TORSDOF 7
ENDMDL
MODEL 6
REMARK VINA RESULT:      -7.6      3.047      8.671
REMARK  Name = 
REMARK  7 active torsions:
REMARK  status: ('A' for Active; 'I' for Inactive)
REMARK    1  A    between atoms: C_2  and  C_3
REMARK    2  A    between atoms: C_3  and  O_4
REMARK    3  A    between atoms: O_4  and  C_5
REMARK    4  A    between atoms: C_8  and  N_9
REMARK    5  A    between atoms: N_14  and  C_15
REMARK    6  A    between atoms: C_20  and  C_21
REMARK    7  A    between atoms: N_23  and  C_24
REMARK                            x       y       z     vdW  Elec       q    Type
REMARK                         _______ _______ _______ _____ _____    ______ ____
ROOT
ATOM      1  O   UNL     1       1.978   6.121  17.664  0.00  0.00    +0.000 OA
ATOM      2  C   UNL     1       2.793   6.916  18.128  0.00  0.00    +0.000 C 
ATOM      3  N   UNL     1       4.167   6.872  17.883  0.00  0.00    +0.000 N 
ATOM      4  H   UNL     1       4.734   7.685  18.107  0.00  0.00    +0.000 HD
ENDROOT
BRANCH   3   5
ATOM      5  C   UNL     1       4.744   5.903  17.024  0.00  0.00    +0.000 A 
ATOM      6  C   UNL     1       5.076   6.297  15.719  0.00  0.00    +0.000 A 
ATOM      7  C   UNL     1       5.606   5.385  14.804  0.00  0.00    +0.000 A 
ATOM      8  C   UNL     1       5.854   4.074  15.196  0.00  0.00    +0.000 A 
ATOM      9  C   UNL     1       5.520   3.662  16.486  0.00  0.00    +0.000 A 
ATOM     10  C   UNL     1       4.931   4.556  17.402  0.00  0.00    +0.000 A 
BRANCH  10  11
ATOM     11  C   UNL     1       4.589   3.983  18.741  0.00  0.00    +0.000 C 
ATOM     12  O   UNL     1       5.479   3.740  19.550  0.00  0.00    +0.000 OA
ATOM     13  N   UNL     1       3.243   3.799  19.005  0.00  0.00    +0.000 N 
ATOM     14  H   UNL     1       2.599   4.287  18.403  0.00  0.00    +0.000 HD
BRANCH  13  15
ATOM     15  C   UNL     1       2.765   3.395  20.297  0.00  0.00    +0.000 C 
ATOM     16  C   UNL     1       1.467   3.966  20.805  0.00  0.00    +0.000 C 
ATOM     17  C   UNL     1       1.557   2.512  20.451  0.00  0.00    +0.000 C 
ENDBRANCH  13  15
ENDBRANCH  10  11
ENDBRANCH   3   5
BRANCH   2  18
ATOM     18  C   UNL     1       2.339   8.137  18.934  0.00  0.00    +0.000 C 
BRANCH  18  19
ATOM     19  O   UNL     1       1.689   7.774  20.145  0.00  0.00    +0.000 OA
BRANCH  19  20
ATOM     20  C   UNL     1       0.969   8.776  20.747  0.00  0.00    +0.000 A 
ATOM     21  C   UNL     1       0.581   8.547  22.072  0.00  0.00    +0.000 A 
ATOM     22  C   UNL     1      -0.118   9.527  22.791  0.00  0.00    +0.000 A 
ATOM     23  C   UNL     1      -0.418  10.746  22.179  0.00  0.00    +0.000 A 
ATOM     24  C   UNL     1      -0.034  10.988  20.855  0.00  0.00    +0.000 A 
ATOM     25  C   UNL     1       0.660  10.000  20.147  0.00  0.00    +0.000 A 
BRANCH  23  26
ATOM     26  N   UNL     1      -1.128  11.801  22.920  0.00  0.00    +0.000 N 
ATOM     27  O   UNL     1      -0.527  12.870  23.088  0.00  0.00    +0.000 OA
ATOM     28  O   UNL     1      -2.266  11.557  23.327  0.00  0.00    +0.000 OA
ENDBRANCH  23  26
ENDBRANCH  19  20
ENDBRANCH  18  19
ENDBRANCH   2  18
TORSDOF 7
ENDMDL
MODEL 7
REMARK VINA RESULT:      -7.5      4.113      7.201
REMARK  Name = 
REMARK  7 active torsions:
REMARK  status: ('A' for Active; 'I' for Inactive)
REMARK    1  A    between atoms: C_2  and  C_3
REMARK    2  A    between atoms: C_3  and  O_4
REMARK    3  A    between atoms: O_4  and  C_5
REMARK    4  A    between atoms: C_8  and  N_9
REMARK    5  A    between atoms: N_14  and  C_15
REMARK    6  A    between atoms: C_20  and  C_21
REMARK    7  A    between atoms: N_23  and  C_24
REMARK                            x       y       z     vdW  Elec       q    Type
REMARK                         _______ _______ _______ _____ _____    ______ ____
ROOT
ATOM      1  O   UNL     1       2.250   9.921  17.560  0.00  0.00    +0.000 OA
ATOM      2  C   UNL     1       1.852   9.554  18.664  0.00  0.00    +0.000 C 
ATOM      3  N   UNL     1       1.228  10.387  19.595  0.00  0.00    +0.000 N 
ATOM      4  H   UNL     1       0.726   9.969  20.373  0.00  0.00    +0.000 HD
ENDROOT
BRANCH   3   5
ATOM      5  C   UNL     1       0.961  11.753  19.319  0.00  0.00    +0.000 A 
ATOM      6  C   UNL     1       1.881  12.707  19.778  0.00  0.00    +0.000 A 
ATOM      7  C   UNL     1       1.661  14.072  19.583  0.00  0.00    +0.000 A 
ATOM      8  C   UNL     1       0.538  14.500  18.885  0.00  0.00    +0.000 A 
ATOM      9  C   UNL     1      -0.393  13.566  18.431  0.00  0.00    +0.000 A 
ATOM     10  C   UNL     1      -0.214  12.190  18.671  0.00  0.00    +0.000 A 
BRANCH  10  11
ATOM     11  C   UNL     1      -1.300  11.295  18.164  0.00  0.00    +0.000 C 
ATOM     12  O   UNL     1      -1.634  10.306  18.809  0.00  0.00    +0.000 OA
ATOM     13  N   UNL     1      -1.908  11.677  16.980  0.00  0.00    +0.000 N 
ATOM     14  H   UNL     1      -1.762  12.631  16.690  0.00  0.00    +0.000 HD
BRANCH  13  15
ATOM     15  C   UNL     1      -3.056  10.995  16.455  0.00  0.00    +0.000 C 
ATOM     16  C   UNL     1      -3.141  10.747  14.971  0.00  0.00    +0.000 C 
ATOM     17  C   UNL     1      -2.963   9.595  15.912  0.00  0.00    +0.000 C 
ENDBRANCH  13  15
ENDBRANCH  10  11
ENDBRANCH   3   5
BRANCH   2  18
ATOM     18  C   UNL     1       1.891   8.078  19.072  0.00  0.00    +0.000 C 
BRANCH  18  19
ATOM     19  O   UNL     1       2.259   7.230  17.992  0.00  0.00    +0.000 OA
BRANCH  19  20
ATOM     20  C   UNL     1       3.492   6.637  18.107  0.00  0.00    +0.000 A 
ATOM     21  C   UNL     1       4.466   7.058  17.195  0.00  0.00    +0.000 A 
ATOM     22  C   UNL     1       5.771   6.547  17.257  0.00  0.00    +0.000 A 
ATOM     23  C   UNL     1       6.099   5.620  18.249  0.00  0.00    +0.000 A 
ATOM     24  C   UNL     1       5.135   5.193  19.168  0.00  0.00    +0.000 A 
ATOM     25  C   UNL     1       3.835   5.707  19.092  0.00  0.00    +0.000 A 
BRANCH  23  26
ATOM     26  N   UNL     1       7.468   5.088  18.352  0.00  0.00    +0.000 N 
ATOM     27  O   UNL     1       7.894   4.443  17.385  0.00  0.00    +0.000 OA
ATOM     28  O   UNL     1       8.100   5.314  19.386  0.00  0.00    +0.000 OA
ENDBRANCH  23  26
ENDBRANCH  19  20
ENDBRANCH  18  19
ENDBRANCH   2  18
TORSDOF 7
ENDMDL
MODEL 8
REMARK VINA RESULT:      -7.5      4.674      8.279
REMARK  Name = 
REMARK  7 active torsions:
REMARK  status: ('A' for Active; 'I' for Inactive)
REMARK    1  A    between atoms: C_2  and  C_3
REMARK    2  A    between atoms: C_3  and  O_4
REMARK    3  A    between atoms: O_4  and  C_5
REMARK    4  A    between atoms: C_8  and  N_9
REMARK    5  A    between atoms: N_14  and  C_15
REMARK    6  A    between atoms: C_20  and  C_21
REMARK    7  A    between atoms: N_23  and  C_24
REMARK                            x       y       z     vdW  Elec       q    Type
REMARK                         _______ _______ _______ _____ _____    ______ ____
ROOT
ATOM      1  O   UNL     1       7.320   5.723  18.954  0.00  0.00    +0.000 OA
ATOM      2  C   UNL     1       7.216   6.664  18.169  0.00  0.00    +0.000 C 
ATOM      3  N   UNL     1       6.113   6.884  17.342  0.00  0.00    +0.000 N 
ATOM      4  H   UNL     1       6.001   7.792  16.901  0.00  0.00    +0.000 HD
ENDROOT
BRANCH   3   5
ATOM      5  C   UNL     1       4.975   6.038  17.370  0.00  0.00    +0.000 A 
ATOM      6  C   UNL     1       3.931   6.371  18.246  0.00  0.00    +0.000 A 
ATOM      7  C   UNL     1       2.800   5.560  18.360  0.00  0.00    +0.000 A 
ATOM      8  C   UNL     1       2.677   4.426  17.565  0.00  0.00    +0.000 A 
ATOM      9  C   UNL     1       3.711   4.073  16.697  0.00  0.00    +0.000 A 
ATOM     10  C   UNL     1       4.883   4.850  16.614  0.00  0.00    +0.000 A 
BRANCH  10  11
ATOM     11  C   UNL     1       5.929   4.347  15.671  0.00  0.00    +0.000 C 
ATOM     12  O   UNL     1       7.046   4.058  16.090  0.00  0.00    +0.000 OA
ATOM     13  N   UNL     1       5.544   4.193  14.350  0.00  0.00    +0.000 N 
ATOM     14  H   UNL     1       4.552   4.183  14.173  0.00  0.00    +0.000 HD
BRANCH  13  15
ATOM     15  C   UNL     1       6.398   3.586  13.370  0.00  0.00    +0.000 C 
ATOM     16  C   UNL     1       5.810   3.176  12.045  0.00  0.00    +0.000 C 
ATOM     17  C   UNL     1       6.791   4.307  12.110  0.00  0.00    +0.000 C 
ENDBRANCH  13  15
ENDBRANCH  10  11
ENDBRANCH   3   5
BRANCH   2  18
ATOM     18  C   UNL     1       8.265   7.780  18.125  0.00  0.00    +0.000 C 
BRANCH  18  19
ATOM     19  O   UNL     1       7.708   9.028  17.733  0.00  0.00    +0.000 OA
BRANCH  19  20
ATOM     20  C   UNL     1       8.384  10.136  18.178  0.00  0.00    +0.000 A 
ATOM     21  C   UNL     1       9.205   9.951  19.297  0.00  0.00    +0.000 A 
ATOM     22  C   UNL     1       9.973  11.011  19.803  0.00  0.00    +0.000 A 
ATOM     23  C   UNL     1       9.925  12.256  19.172  0.00  0.00    +0.000 A 
ATOM     24  C   UNL     1       9.111  12.453  18.051  0.00  0.00    +0.000 A 
ATOM     25  C   UNL     1       8.346  11.389  17.560  0.00  0.00    +0.000 A 
BRANCH  23  26
ATOM     26  N   UNL     1      10.742  13.377  19.667  0.00  0.00    +0.000 N 
ATOM     27  O   UNL     1      11.965  13.194  19.730  0.00  0.00    +0.000 OA
ATOM     28  O   UNL     1      10.163  14.417  19.988  0.00  0.00    +0.000 OA
ENDBRANCH  23  26
ENDBRANCH  19  20
ENDBRANCH  18  19
ENDBRANCH   2  18
TORSDOF 7
ENDMDL
MODEL 9
REMARK VINA RESULT:      -7.4      3.477      8.174
REMARK  Name = 
REMARK  7 active torsions:
REMARK  status: ('A' for Active; 'I' for Inactive)
REMARK    1  A    between atoms: C_2  and  C_3
REMARK    2  A    between atoms: C_3  and  O_4
REMARK    3  A    between atoms: O_4  and  C_5
REMARK    4  A    between atoms: C_8  and  N_9
REMARK    5  A    between atoms: N_14  and  C_15
REMARK    6  A    between atoms: C_20  and  C_21
REMARK    7  A    between atoms: N_23  and  C_24
REMARK                            x       y       z     vdW  Elec       q    Type
REMARK                         _______ _______ _______ _____ _____    ______ ____
ROOT
ATOM      1  O   UNL     1       2.227   7.545  20.099  0.00  0.00    +0.000 OA
ATOM      2  C   UNL     1       2.233   7.281  18.898  0.00  0.00    +0.000 C 
ATOM      3  N   UNL     1       2.325   5.990  18.374  0.00  0.00    +0.000 N 
ATOM      4  H   UNL     1       2.092   5.836  17.398  0.00  0.00    +0.000 HD
ENDROOT
BRANCH   3   5
ATOM      5  C   UNL     1       2.383   4.844  19.209  0.00  0.00    +0.000 A 
ATOM      6  C   UNL     1       1.286   4.585  20.045  0.00  0.00    +0.000 A 
ATOM      7  C   UNL     1       1.292   3.502  20.926  0.00  0.00    +0.000 A 
ATOM      8  C   UNL     1       2.378   2.635  20.952  0.00  0.00    +0.000 A 
ATOM      9  C   UNL     1       3.483   2.884  20.136  0.00  0.00    +0.000 A 
ATOM     10  C   UNL     1       3.515   4.006  19.284  0.00  0.00    +0.000 A 
BRANCH  10  11
ATOM     11  C   UNL     1       4.769   4.179  18.487  0.00  0.00    +0.000 C 
ATOM     12  O   UNL     1       4.778   3.909  17.290  0.00  0.00    +0.000 OA
ATOM     13  N   UNL     1       5.862   4.692  19.164  0.00  0.00    +0.000 N 
ATOM     14  H   UNL     1       5.671   5.139  20.047  0.00  0.00    +0.000 HD
BRANCH  13  15
ATOM     15  C   UNL     1       7.081   5.044  18.494  0.00  0.00    +0.000 C 
ATOM     16  C   UNL     1       7.224   6.432  17.924  0.00  0.00    +0.000 C 
ATOM     17  C   UNL     1       8.061   6.013  19.095  0.00  0.00    +0.000 C 
ENDBRANCH  13  15
ENDBRANCH  10  11
ENDBRANCH   3   5
BRANCH   2  18
ATOM     18  C   UNL     1       2.001   8.369  17.845  0.00  0.00    +0.000 C 
BRANCH  18  19
ATOM     19  O   UNL     1       1.849   9.657  18.425  0.00  0.00    +0.000 OA
BRANCH  19  20
ATOM     20  C   UNL     1       0.556  10.113  18.510  0.00  0.00    +0.000 A 
ATOM     21  C   UNL     1       0.323  11.142  19.430  0.00  0.00    +0.000 A 
ATOM     22  C   UNL     1      -0.954  11.708  19.560  0.00  0.00    +0.000 A 
ATOM     23  C   UNL     1      -1.995  11.246  18.753  0.00  0.00    +0.000 A 
ATOM     24  C   UNL     1      -1.775  10.220  17.828  0.00  0.00    +0.000 A 
ATOM     25  C   UNL     1      -0.497   9.660  17.711  0.00  0.00    +0.000 A 
BRANCH  23  26
ATOM     26  N   UNL     1      -3.338  11.842  18.852  0.00  0.00    +0.000 N 
ATOM     27  O   UNL     1      -4.081  11.716  17.869  0.00  0.00    +0.000 OA
ATOM     28  O   UNL     1      -3.637  12.427  19.895  0.00  0.00    +0.000 OA
ENDBRANCH  23  26
ENDBRANCH  19  20
ENDBRANCH  18  19
ENDBRANCH   2  18
TORSDOF 7
ENDMDL
