MODEL 1
REMARK VINA RESULT:      -8.0      0.000      0.000
REMARK  Name = 
REMARK  9 active torsions:
REMARK  status: ('A' for Active; 'I' for Inactive)
REMARK    1  A    between atoms: C_1  and  O_2
REMARK    2  A    between atoms: O_2  and  C_3
REMARK    3  A    between atoms: C_6  and  C_7
REMARK    4  A    between atoms: C_7  and  C_8
REMARK    5  A    between atoms: C_8  and  O_9
REMARK    6  A    between atoms: C_14  and  C_15
REMARK    7  A    between atoms: C_14  and  C_16
REMARK    8  A    between atoms: C_17  and  O_18
REMARK    9  A    between atoms: C_21  and  C_22
REMARK                            x       y       z     vdW  Elec       q    Type
REMARK                         _______ _______ _______ _____ _____    ______ ____
ROOT
ATOM      1  C   UNL     1       5.184   4.241  17.357  0.00  0.00    +0.000 C 
ATOM      2  C   UNL     1       4.744   5.514  16.591  0.00  0.00    +0.000 C 
ATOM      3  C   UNL     1       4.069   6.593  17.427  0.00  0.00    +0.000 C 
ATOM      4  C   UNL     1       2.898   6.079  18.257  0.00  0.00    +0.000 C 
ATOM      5  C   UNL     1       3.311   4.915  19.170  0.00  0.00    +0.000 C 
ATOM      6  C   UNL     1       2.160   4.434  20.177  0.00  0.00    +0.000 C 
ATOM      7  C   UNL     1       0.889   3.838  19.514  0.00  0.00    +0.000 C 
ATOM      8  C   UNL     1       1.619   5.624  21.017  0.00  0.00    +0.000 C 
ATOM      9  C   UNL     1       2.796   3.408  21.167  0.00  0.00    +0.000 C 
ATOM     10  C   UNL     1       3.578   2.278  20.482  0.00  0.00    +0.000 C 
ATOM     11  C   UNL     1       4.589   2.783  19.446  0.00  0.00    +0.000 C 
ATOM     12  C   UNL     1       4.011   3.742  18.361  0.00  0.00    +0.000 C 
ATOM     13  C   UNL     1       2.954   2.978  17.500  0.00  0.00    +0.000 C 
ENDROOT
BRANCH   1  14
ATOM     14  O   UNL     1       5.383   3.180  16.387  0.00  0.00    +0.000 OA
ATOM     15  H   UNL     1       6.184   2.681  16.620  0.00  0.00    +0.000 HD
ENDBRANCH   1  14
BRANCH   9  16
ATOM     16  O   UNL     1       1.809   2.820  22.016  0.00  0.00    +0.000 OA
ATOM     17  H   UNL     1       1.156   2.358  21.463  0.00  0.00    +0.000 HD
ENDBRANCH   9  16
BRANCH   1  18
ATOM     18  C   UNL     1       6.612   4.388  17.994  0.00  0.00    +0.000 C 
BRANCH  18  22
ATOM     19  C   UNL     1       8.276   8.425  18.134  0.00  0.00    +0.000 A 
ATOM     20  C   UNL     1       7.604   7.969  16.997  0.00  0.00    +0.000 A 
ATOM     21  C   UNL     1       7.084   6.667  16.938  0.00  0.00    +0.000 A 
ATOM     22  C   UNL     1       7.236   5.791  18.015  0.00  0.00    +0.000 A 
ATOM     23  C   UNL     1       7.952   6.248  19.146  0.00  0.00    +0.000 A 
ATOM     24  C   UNL     1       8.463   7.554  19.205  0.00  0.00    +0.000 A 
BRANCH  19  26
ATOM     25  C   UNL     1       9.279  10.235  19.281  0.00  0.00    +0.000 C 
ATOM     26  O   UNL     1       8.727   9.715  18.077  0.00  0.00    +0.000 OA
ENDBRANCH  19  26
ENDBRANCH  18  22
ENDBRANCH   1  18
TORSDOF 5
ENDMDL
MODEL 2
REMARK VINA RESULT:      -7.4      2.113      5.665
REMARK  Name = 
REMARK  9 active torsions:
REMARK  status: ('A' for Active; 'I' for Inactive)
REMARK    1  A    between atoms: C_1  and  O_2
REMARK    2  A    between atoms: O_2  and  C_3
REMARK    3  A    between atoms: C_6  and  C_7
REMARK    4  A    between atoms: C_7  and  C_8
REMARK    5  A    between atoms: C_8  and  O_9
REMARK    6  A    between atoms: C_14  and  C_15
REMARK    7  A    between atoms: C_14  and  C_16
REMARK    8  A    between atoms: C_17  and  O_18
REMARK    9  A    between atoms: C_21  and  C_22
REMARK                            x       y       z     vdW  Elec       q    Type
REMARK                         _______ _______ _______ _____ _____    ______ ____
ROOT
ATOM      1  C   UNL     1       3.066   3.464  17.415  0.00  0.00    +0.000 C 
ATOM      2  C   UNL     1       3.163   2.495  18.620  0.00  0.00    +0.000 C 
ATOM      3  C   UNL     1       3.918   3.018  19.835  0.00  0.00    +0.000 C 
ATOM      4  C   UNL     1       5.309   3.548  19.507  0.00  0.00    +0.000 C 
ATOM      5  C   UNL     1       5.265   4.641  18.428  0.00  0.00    +0.000 C 
ATOM      6  C   UNL     1       6.680   5.344  18.152  0.00  0.00    +0.000 C 
ATOM      7  C   UNL     1       7.790   4.424  17.579  0.00  0.00    +0.000 C 
ATOM      8  C   UNL     1       7.295   5.897  19.468  0.00  0.00    +0.000 C 
ATOM      9  C   UNL     1       6.427   6.558  17.203  0.00  0.00    +0.000 C 
ATOM     10  C   UNL     1       5.613   6.213  15.948  0.00  0.00    +0.000 C 
ATOM     11  C   UNL     1       4.323   5.443  16.255  0.00  0.00    +0.000 C 
ATOM     12  C   UNL     1       4.502   4.160  17.122  0.00  0.00    +0.000 C 
ATOM     13  C   UNL     1       5.373   3.122  16.343  0.00  0.00    +0.000 C 
ENDROOT
BRANCH   1  14
ATOM     14  O   UNL     1       2.731   2.684  16.238  0.00  0.00    +0.000 OA
ATOM     15  H   UNL     1       1.977   2.106  16.442  0.00  0.00    +0.000 HD
ENDBRANCH   1  14
BRANCH   9  16
ATOM     16  O   UNL     1       7.653   7.163  16.792  0.00  0.00    +0.000 OA
ATOM     17  H   UNL     1       8.366   6.505  16.860  0.00  0.00    +0.000 HD
ENDBRANCH   9  16
BRANCH   1  18
ATOM     18  C   UNL     1       1.843   4.443  17.530  0.00  0.00    +0.000 C 
BRANCH  18  22
ATOM     19  C   UNL     1       1.793   7.435  20.712  0.00  0.00    +0.000 A 
ATOM     20  C   UNL     1       2.209   7.772  19.422  0.00  0.00    +0.000 A 
ATOM     21  C   UNL     1       2.247   6.811  18.399  0.00  0.00    +0.000 A 
ATOM     22  C   UNL     1       1.877   5.489  18.653  0.00  0.00    +0.000 A 
ATOM     23  C   UNL     1       1.494   5.148  19.972  0.00  0.00    +0.000 A 
ATOM     24  C   UNL     1       1.451   6.114  20.990  0.00  0.00    +0.000 A 
BRANCH  19  26
ATOM     25  C   UNL     1       0.520   9.041  21.893  0.00  0.00    +0.000 C 
ATOM     26  O   UNL     1       1.789   8.458  21.619  0.00  0.00    +0.000 OA
ENDBRANCH  19  26
ENDBRANCH  18  22
ENDBRANCH   1  18
TORSDOF 5
ENDMDL
MODEL 3
REMARK VINA RESULT:      -6.9      8.807     11.788
REMARK  Name = 
REMARK  9 active torsions:
REMARK  status: ('A' for Active; 'I' for Inactive)
REMARK    1  A    between atoms: C_1  and  O_2
REMARK    2  A    between atoms: O_2  and  C_3
REMARK    3  A    between atoms: C_6  and  C_7
REMARK    4  A    between atoms: C_7  and  C_8
REMARK    5  A    between atoms: C_8  and  O_9
REMARK    6  A    between atoms: C_14  and  C_15
REMARK    7  A    between atoms: C_14  and  C_16
REMARK    8  A    between atoms: C_17  and  O_18
REMARK    9  A    between atoms: C_21  and  C_22
REMARK                            x       y       z     vdW  Elec       q    Type
REMARK                         _______ _______ _______ _____ _____    ______ ____
ROOT
ATOM      1  C   UNL     1       7.402  15.234  19.031  0.00  0.00    +0.000 C 
ATOM      2  C   UNL     1       7.708  16.706  19.405  0.00  0.00    +0.000 C 
ATOM      3  C   UNL     1       8.842  17.366  18.632  0.00  0.00    +0.000 C 
ATOM      4  C   UNL     1      10.140  16.566  18.649  0.00  0.00    +0.000 C 
ATOM      5  C   UNL     1       9.936  15.135  18.128  0.00  0.00    +0.000 C 
ATOM      6  C   UNL     1      11.294  14.295  17.978  0.00  0.00    +0.000 C 
ATOM      7  C   UNL     1      12.059  14.009  19.297  0.00  0.00    +0.000 C 
ATOM      8  C   UNL     1      12.329  15.056  17.103  0.00  0.00    +0.000 C 
ATOM      9  C   UNL     1      10.946  12.962  17.245  0.00  0.00    +0.000 C 
ATOM     10  C   UNL     1       9.768  12.195  17.863  0.00  0.00    +0.000 C 
ATOM     11  C   UNL     1       8.529  13.069  18.090  0.00  0.00    +0.000 C 
ATOM     12  C   UNL     1       8.774  14.378  18.900  0.00  0.00    +0.000 C 
ATOM     13  C   UNL     1       9.238  14.016  20.347  0.00  0.00    +0.000 C 
ENDROOT
BRANCH   1  14
ATOM     14  O   UNL     1       6.643  14.643  20.117  0.00  0.00    +0.000 OA
ATOM     15  H   UNL     1       5.980  14.035  19.750  0.00  0.00    +0.000 HD
ENDBRANCH   1  14
BRANCH   9  16
ATOM     16  O   UNL     1      12.073  12.086  17.190  0.00  0.00    +0.000 OA
ATOM     17  H   UNL     1      11.755  11.175  17.065  0.00  0.00    +0.000 HD
ENDBRANCH   9  16
BRANCH   1  18
ATOM     18  C   UNL     1       6.406  15.118  17.822  0.00  0.00    +0.000 C 
BRANCH  18  22
ATOM     19  C   UNL     1       2.118  15.566  18.526  0.00  0.00    +0.000 A 
ATOM     20  C   UNL     1       2.960  16.681  18.510  0.00  0.00    +0.000 A 
ATOM     21  C   UNL     1       4.341  16.543  18.305  0.00  0.00    +0.000 A 
ATOM     22  C   UNL     1       4.909  15.280  18.119  0.00  0.00    +0.000 A 
ATOM     23  C   UNL     1       4.055  14.154  18.175  0.00  0.00    +0.000 A 
ATOM     24  C   UNL     1       2.673  14.297  18.374  0.00  0.00    +0.000 A 
BRANCH  19  26
ATOM     25  C   UNL     1      -0.058  14.692  18.837  0.00  0.00    +0.000 C 
ATOM     26  O   UNL     1       0.791  15.828  18.724  0.00  0.00    +0.000 OA
ENDBRANCH  19  26
ENDBRANCH  18  22
ENDBRANCH   1  18
TORSDOF 5
ENDMDL
MODEL 4
REMARK VINA RESULT:      -6.8      8.089     10.590
REMARK  Name = 
REMARK  9 active torsions:
REMARK  status: ('A' for Active; 'I' for Inactive)
REMARK    1  A    between atoms: C_1  and  O_2
REMARK    2  A    between atoms: O_2  and  C_3
REMARK    3  A    between atoms: C_6  and  C_7
REMARK    4  A    between atoms: C_7  and  C_8
REMARK    5  A    between atoms: C_8  and  O_9
REMARK    6  A    between atoms: C_14  and  C_15
REMARK    7  A    between atoms: C_14  and  C_16
REMARK    8  A    between atoms: C_17  and  O_18
REMARK    9  A    between atoms: C_21  and  C_22
REMARK                            x       y       z     vdW  Elec       q    Type
REMARK                         _______ _______ _______ _____ _____    ______ ____
ROOT
ATOM      1  C   UNL     1      -1.514  12.665  20.078  0.00  0.00    +0.000 C 
ATOM      2  C   UNL     1      -0.272  12.722  21.004  0.00  0.00    +0.000 C 
ATOM      3  C   UNL     1      -0.479  12.215  22.425  0.00  0.00    +0.000 C 
ATOM      4  C   UNL     1      -1.663  12.860  23.137  0.00  0.00    +0.000 C 
ATOM      5  C   UNL     1      -2.968  12.691  22.344  0.00  0.00    +0.000 C 
ATOM      6  C   UNL     1      -4.273  13.214  23.115  0.00  0.00    +0.000 C 
ATOM      7  C   UNL     1      -4.317  14.736  23.412  0.00  0.00    +0.000 C 
ATOM      8  C   UNL     1      -4.395  12.556  24.517  0.00  0.00    +0.000 C 
ATOM      9  C   UNL     1      -5.520  12.781  22.280  0.00  0.00    +0.000 C 
ATOM     10  C   UNL     1      -5.443  13.161  20.795  0.00  0.00    +0.000 C 
ATOM     11  C   UNL     1      -4.128  12.738  20.129  0.00  0.00    +0.000 C 
ATOM     12  C   UNL     1      -2.831  13.214  20.851  0.00  0.00    +0.000 C 
ATOM     13  C   UNL     1      -2.766  14.774  20.832  0.00  0.00    +0.000 C 
ENDROOT
BRANCH   1  14
ATOM     14  O   UNL     1      -1.281  13.561  18.960  0.00  0.00    +0.000 OA
ATOM     15  H   UNL     1      -2.106  13.665  18.458  0.00  0.00    +0.000 HD
ENDBRANCH   1  14
BRANCH   9  16
ATOM     16  O   UNL     1      -6.725  13.324  22.821  0.00  0.00    +0.000 OA
ATOM     17  H   UNL     1      -6.871  12.943  23.704  0.00  0.00    +0.000 HD
ENDBRANCH   9  16
BRANCH   1  18
ATOM     18  C   UNL     1      -1.668  11.273  19.368  0.00  0.00    +0.000 C 
BRANCH  18  22
ATOM     19  C   UNL     1       1.622   8.404  19.537  0.00  0.00    +0.000 A 
ATOM     20  C   UNL     1       0.750   8.555  20.618  0.00  0.00    +0.000 A 
ATOM     21  C   UNL     1      -0.297   9.489  20.579  0.00  0.00    +0.000 A 
ATOM     22  C   UNL     1      -0.485  10.298  19.456  0.00  0.00    +0.000 A 
ATOM     23  C   UNL     1       0.426  10.166  18.382  0.00  0.00    +0.000 A 
ATOM     24  C   UNL     1       1.467   9.225  18.423  0.00  0.00    +0.000 A 
BRANCH  19  26
ATOM     25  C   UNL     1       2.858   6.645  18.549  0.00  0.00    +0.000 C 
ATOM     26  O   UNL     1       2.595   7.456  19.689  0.00  0.00    +0.000 OA
ENDBRANCH  19  26
ENDBRANCH  18  22
ENDBRANCH   1  18
TORSDOF 5
ENDMDL
MODEL 5
REMARK VINA RESULT:      -6.7      5.270      8.167
REMARK  Name = 
REMARK  9 active torsions:
REMARK  status: ('A' for Active; 'I' for Inactive)
REMARK    1  A    between atoms: C_1  and  O_2
REMARK    2  A    between atoms: O_2  and  C_3
REMARK    3  A    between atoms: C_6  and  C_7
REMARK    4  A    between atoms: C_7  and  C_8
REMARK    5  A    between atoms: C_8  and  O_9
REMARK    6  A    between atoms: C_14  and  C_15
REMARK    7  A    between atoms: C_14  and  C_16
REMARK    8  A    between atoms: C_17  and  O_18
REMARK    9  A    between atoms: C_21  and  C_22
REMARK                            x       y       z     vdW  Elec       q    Type
REMARK                         _______ _______ _______ _____ _____    ______ ____
ROOT
ATOM      1  C   UNL     1       0.860   9.186  21.677  0.00  0.00    +0.000 C 
ATOM      2  C   UNL     1       0.382   9.502  23.117  0.00  0.00    +0.000 C 
ATOM      3  C   UNL     1      -1.017  10.093  23.238  0.00  0.00    +0.000 C 
ATOM      4  C   UNL     1      -1.241  11.317  22.357  0.00  0.00    +0.000 C 
ATOM      5  C   UNL     1      -0.942  11.021  20.880  0.00  0.00    +0.000 C 
ATOM      6  C   UNL     1      -1.307  12.224  19.885  0.00  0.00    +0.000 C 
ATOM      7  C   UNL     1      -0.494  13.532  20.083  0.00  0.00    +0.000 C 
ATOM      8  C   UNL     1      -2.784  12.672  20.068  0.00  0.00    +0.000 C 
ATOM      9  C   UNL     1      -1.151  11.695  18.425  0.00  0.00    +0.000 C 
ATOM     10  C   UNL     1       0.192  11.003  18.149  0.00  0.00    +0.000 C 
ATOM     11  C   UNL     1       0.550   9.937  19.191  0.00  0.00    +0.000 C 
ATOM     12  C   UNL     1       0.510  10.413  20.675  0.00  0.00    +0.000 C 
ATOM     13  C   UNL     1       1.591  11.518  20.896  0.00  0.00    +0.000 C 
ENDROOT
BRANCH   1  14
ATOM     14  O   UNL     1       2.306   9.064  21.701  0.00  0.00    +0.000 OA
ATOM     15  H   UNL     1       2.555   8.163  21.435  0.00  0.00    +0.000 HD
ENDBRANCH   1  14
BRANCH   9  16
ATOM     16  O   UNL     1      -1.322  12.741  17.469  0.00  0.00    +0.000 OA
ATOM     17  H   UNL     1      -0.582  12.713  16.838  0.00  0.00    +0.000 HD
ENDBRANCH   9  16
BRANCH   1  18
ATOM     18  C   UNL     1       0.409   7.760  21.196  0.00  0.00    +0.000 C 
BRANCH  18  22
ATOM     19  C   UNL     1       3.362   5.141  19.323  0.00  0.00    +0.000 A 
ATOM     20  C   UNL     1       2.636   4.716  20.439  0.00  0.00    +0.000 A 
ATOM     21  C   UNL     1       1.700   5.560  21.058  0.00  0.00    +0.000 A 
ATOM     22  C   UNL     1       1.480   6.852  20.576  0.00  0.00    +0.000 A 
ATOM     23  C   UNL     1       2.248   7.287  19.470  0.00  0.00    +0.000 A 
ATOM     24  C   UNL     1       3.177   6.437  18.849  0.00  0.00    +0.000 A 
BRANCH  19  26
ATOM     25  C   UNL     1       3.881   2.859  18.974  0.00  0.00    +0.000 C 
ATOM     26  O   UNL     1       4.235   4.227  18.802  0.00  0.00    +0.000 OA
ENDBRANCH  19  26
ENDBRANCH  18  22
ENDBRANCH   1  18
TORSDOF 5
ENDMDL
MODEL 6
REMARK VINA RESULT:      -6.7      7.016      8.618
REMARK  Name = 
REMARK  9 active torsions:
REMARK  status: ('A' for Active; 'I' for Inactive)
REMARK    1  A    between atoms: C_1  and  O_2
REMARK    2  A    between atoms: O_2  and  C_3
REMARK    3  A    between atoms: C_6  and  C_7
REMARK    4  A    between atoms: C_7  and  C_8
REMARK    5  A    between atoms: C_8  and  O_9
REMARK    6  A    between atoms: C_14  and  C_15
REMARK    7  A    between atoms: C_14  and  C_16
REMARK    8  A    between atoms: C_17  and  O_18
REMARK    9  A    between atoms: C_21  and  C_22
REMARK                            x       y       z     vdW  Elec       q    Type
REMARK                         _______ _______ _______ _____ _____    ______ ____
ROOT
ATOM      1  C   UNL     1      -0.464  12.613  18.819  0.00  0.00    +0.000 C 
ATOM      2  C   UNL     1      -1.350  13.338  19.864  0.00  0.00    +0.000 C 
ATOM      3  C   UNL     1      -0.963  13.130  21.322  0.00  0.00    +0.000 C 
ATOM      4  C   UNL     1      -0.825  11.663  21.714  0.00  0.00    +0.000 C 
ATOM      5  C   UNL     1       0.174  10.921  20.814  0.00  0.00    +0.000 C 
ATOM      6  C   UNL     1       0.475   9.415  21.273  0.00  0.00    +0.000 C 
ATOM      7  C   UNL     1      -0.731   8.440  21.221  0.00  0.00    +0.000 C 
ATOM      8  C   UNL     1       0.932   9.364  22.758  0.00  0.00    +0.000 C 
ATOM      9  C   UNL     1       1.652   8.880  20.398  0.00  0.00    +0.000 C 
ATOM     10  C   UNL     1       1.450   9.074  18.889  0.00  0.00    +0.000 C 
ATOM     11  C   UNL     1       1.054  10.506  18.510  0.00  0.00    +0.000 C 
ATOM     12  C   UNL     1      -0.177  11.083  19.274  0.00  0.00    +0.000 C 
ATOM     13  C   UNL     1      -1.448  10.245  18.922  0.00  0.00    +0.000 C 
ENDROOT
BRANCH   1  14
ATOM     14  O   UNL     1      -1.204  12.548  17.573  0.00  0.00    +0.000 OA
ATOM     15  H   UNL     1      -0.594  12.696  16.831  0.00  0.00    +0.000 HD
ENDBRANCH   1  14
BRANCH   9  16
ATOM     16  O   UNL     1       1.899   7.495  20.644  0.00  0.00    +0.000 OA
ATOM     17  H   UNL     1       1.945   7.029  19.792  0.00  0.00    +0.000 HD
ENDBRANCH   9  16
BRANCH   1  18
ATOM     18  C   UNL     1       0.799  13.456  18.418  0.00  0.00    +0.000 C 
BRANCH  18  22
ATOM     19  C   UNL     1       3.119  15.458  21.532  0.00  0.00    +0.000 A 
ATOM     20  C   UNL     1       3.290  14.095  21.279  0.00  0.00    +0.000 A 
ATOM     21  C   UNL     1       2.534  13.441  20.293  0.00  0.00    +0.000 A 
ATOM     22  C   UNL     1       1.582  14.139  19.547  0.00  0.00    +0.000 A 
ATOM     23  C   UNL     1       1.388  15.510  19.837  0.00  0.00    +0.000 A 
ATOM     24  C   UNL     1       2.152  16.162  20.818  0.00  0.00    +0.000 A 
BRANCH  19  26
ATOM     25  C   UNL     1       4.785  15.065  23.164  0.00  0.00    +0.000 C 
ATOM     26  O   UNL     1       3.920  15.984  22.507  0.00  0.00    +0.000 OA
ENDBRANCH  19  26
ENDBRANCH  18  22
ENDBRANCH   1  18
TORSDOF 5
ENDMDL
MODEL 7
REMARK VINA RESULT:      -6.6      7.149      8.672
REMARK  Name = 
REMARK  9 active torsions:
REMARK  status: ('A' for Active; 'I' for Inactive)
REMARK    1  A    between atoms: C_1  and  O_2
REMARK    2  A    between atoms: O_2  and  C_3
REMARK    3  A    between atoms: C_6  and  C_7
REMARK    4  A    between atoms: C_7  and  C_8
REMARK    5  A    between atoms: C_8  and  O_9
REMARK    6  A    between atoms: C_14  and  C_15
REMARK    7  A    between atoms: C_14  and  C_16
REMARK    8  A    between atoms: C_17  and  O_18
REMARK    9  A    between atoms: C_21  and  C_22
REMARK                            x       y       z     vdW  Elec       q    Type
REMARK                         _______ _______ _______ _____ _____    ______ ____
ROOT
ATOM      1  C   UNL     1      -0.390  12.531  18.736  0.00  0.00    +0.000 C 
ATOM      2  C   UNL     1      -1.244  13.284  19.788  0.00  0.00    +0.000 C 
ATOM      3  C   UNL     1      -0.826  13.096  21.240  0.00  0.00    +0.000 C 
ATOM      4  C   UNL     1      -0.696  11.635  21.655  0.00  0.00    +0.000 C 
ATOM      5  C   UNL     1       0.274  10.867  20.745  0.00  0.00    +0.000 C 
ATOM      6  C   UNL     1       0.569   9.365  21.224  0.00  0.00    +0.000 C 
ATOM      7  C   UNL     1      -0.648   8.403  21.216  0.00  0.00    +0.000 C 
ATOM      8  C   UNL     1       1.060   9.335  22.699  0.00  0.00    +0.000 C 
ATOM      9  C   UNL     1       1.720   8.802  20.332  0.00  0.00    +0.000 C 
ATOM     10  C   UNL     1       1.486   8.972  18.825  0.00  0.00    +0.000 C 
ATOM     11  C   UNL     1       1.097  10.402  18.430  0.00  0.00    +0.000 C 
ATOM     12  C   UNL     1      -0.109  11.006  19.211  0.00  0.00    +0.000 C 
ATOM     13  C   UNL     1      -1.397  10.177  18.902  0.00  0.00    +0.000 C 
ENDROOT
BRANCH   1  14
ATOM     14  O   UNL     1      -1.159  12.453  17.508  0.00  0.00    +0.000 OA
ATOM     15  H   UNL     1      -2.090  12.657  17.700  0.00  0.00    +0.000 HD
ENDBRANCH   1  14
BRANCH   9  16
ATOM     16  O   UNL     1       1.957   7.419  20.597  0.00  0.00    +0.000 OA
ATOM     17  H   UNL     1       2.915   7.254  20.567  0.00  0.00    +0.000 HD
ENDBRANCH   9  16
BRANCH   1  18
ATOM     18  C   UNL     1       0.872  13.352  18.291  0.00  0.00    +0.000 C 
BRANCH  18  22
ATOM     19  C   UNL     1       2.921  15.531  21.476  0.00  0.00    +0.000 A 
ATOM     20  C   UNL     1       2.040  16.188  20.614  0.00  0.00    +0.000 A 
ATOM     21  C   UNL     1       1.394  15.499  19.576  0.00  0.00    +0.000 A 
ATOM     22  C   UNL     1       1.625  14.136  19.376  0.00  0.00    +0.000 A 
ATOM     23  C   UNL     1       2.548  13.487  20.230  0.00  0.00    +0.000 A 
ATOM     24  C   UNL     1       3.186  14.179  21.272  0.00  0.00    +0.000 A 
BRANCH  19  26
ATOM     25  C   UNL     1       2.569  17.050  23.256  0.00  0.00    +0.000 C 
ATOM     26  O   UNL     1       3.480  16.306  22.454  0.00  0.00    +0.000 OA
ENDBRANCH  19  26
ENDBRANCH  18  22
ENDBRANCH   1  18
TORSDOF 5
ENDMDL
MODEL 8
REMARK VINA RESULT:      -6.6      9.287     11.928
REMARK  Name = 
REMARK  9 active torsions:
REMARK  status: ('A' for Active; 'I' for Inactive)
REMARK    1  A    between atoms: C_1  and  O_2
REMARK    2  A    between atoms: O_2  and  C_3
REMARK    3  A    between atoms: C_6  and  C_7
REMARK    4  A    between atoms: C_7  and  C_8
REMARK    5  A    between atoms: C_8  and  O_9
REMARK    6  A    between atoms: C_14  and  C_15
REMARK    7  A    between atoms: C_14  and  C_16
REMARK    8  A    between atoms: C_17  and  O_18
REMARK    9  A    between atoms: C_21  and  C_22
REMARK                            x       y       z     vdW  Elec       q    Type
REMARK                         _______ _______ _______ _____ _____    ______ ____
ROOT
ATOM      1  C   UNL     1      -2.076  12.069  19.985  0.00  0.00    +0.000 C 
ATOM      2  C   UNL     1      -0.723  11.860  20.711  0.00  0.00    +0.000 C 
ATOM      3  C   UNL     1      -0.811  11.425  22.168  0.00  0.00    +0.000 C 
ATOM      4  C   UNL     1      -1.703  12.320  23.020  0.00  0.00    +0.000 C 
ATOM      5  C   UNL     1      -3.120  12.435  22.439  0.00  0.00    +0.000 C 
ATOM      6  C   UNL     1      -4.147  13.239  23.373  0.00  0.00    +0.000 C 
ATOM      7  C   UNL     1      -3.814  14.736  23.607  0.00  0.00    +0.000 C 
ATOM      8  C   UNL     1      -4.188  12.636  24.805  0.00  0.00    +0.000 C 
ATOM      9  C   UNL     1      -5.571  13.082  22.754  0.00  0.00    +0.000 C 
ATOM     10  C   UNL     1      -5.646  13.422  21.258  0.00  0.00    +0.000 C 
ATOM     11  C   UNL     1      -4.572  12.714  20.422  0.00  0.00    +0.000 C 
ATOM     12  C   UNL     1      -3.107  12.900  20.921  0.00  0.00    +0.000 C 
ATOM     13  C   UNL     1      -2.712  14.408  20.826  0.00  0.00    +0.000 C 
ENDROOT
BRANCH   1  14
ATOM     14  O   UNL     1      -1.832  12.881  18.807  0.00  0.00    +0.000 OA
ATOM     15  H   UNL     1      -2.633  12.895  18.257  0.00  0.00    +0.000 HD
ENDBRANCH   1  14
BRANCH   9  16
ATOM     16  O   UNL     1      -6.532  13.881  23.444  0.00  0.00    +0.000 OA
ATOM     17  H   UNL     1      -7.420  13.655  23.118  0.00  0.00    +0.000 HD
ENDBRANCH   9  16
BRANCH   1  18
ATOM     18  C   UNL     1      -2.635  10.738  19.367  0.00  0.00    +0.000 C 
BRANCH  18  22
ATOM     19  C   UNL     1      -3.273  10.495  15.052  0.00  0.00    +0.000 A 
ATOM     20  C   UNL     1      -2.169   9.879  15.646  0.00  0.00    +0.000 A 
ATOM     21  C   UNL     1      -1.947   9.970  17.029  0.00  0.00    +0.000 A 
ATOM     22  C   UNL     1      -2.823  10.689  17.844  0.00  0.00    +0.000 A 
ATOM     23  C   UNL     1      -3.918  11.341  17.228  0.00  0.00    +0.000 A 
ATOM     24  C   UNL     1      -4.141  11.242  15.846  0.00  0.00    +0.000 A 
BRANCH  19  26
ATOM     25  C   UNL     1      -4.581   9.692  13.251  0.00  0.00    +0.000 C 
ATOM     26  O   UNL     1      -3.388  10.326  13.700  0.00  0.00    +0.000 OA
ENDBRANCH  19  26
ENDBRANCH  18  22
ENDBRANCH   1  18
TORSDOF 5
ENDMDL
MODEL 9
REMARK VINA RESULT:      -6.5      8.192     11.268
REMARK  Name = 
REMARK  9 active torsions:
REMARK  status: ('A' for Active; 'I' for Inactive)
REMARK    1  A    between atoms: C_1  and  O_2
REMARK    2  A    between atoms: O_2  and  C_3
REMARK    3  A    between atoms: C_6  and  C_7
REMARK    4  A    between atoms: C_7  and  C_8
REMARK    5  A    between atoms: C_8  and  O_9
REMARK    6  A    between atoms: C_14  and  C_15
REMARK    7  A    between atoms: C_14  and  C_16
REMARK    8  A    between atoms: C_17  and  O_18
REMARK    9  A    between atoms: C_21  and  C_22
REMARK                            x       y       z     vdW  Elec       q    Type
REMARK                         _______ _______ _______ _____ _____    ______ ____
ROOT
ATOM      1  C   UNL     1       8.154  15.719  18.739  0.00  0.00    +0.000 C 
ATOM      2  C   UNL     1       7.153  15.294  17.635  0.00  0.00    +0.000 C 
ATOM      3  C   UNL     1       6.813  13.810  17.582  0.00  0.00    +0.000 C 
ATOM      4  C   UNL     1       8.038  12.905  17.520  0.00  0.00    +0.000 C 
ATOM      5  C   UNL     1       8.999  13.163  18.690  0.00  0.00    +0.000 C 
ATOM      6  C   UNL     1      10.229  12.137  18.764  0.00  0.00    +0.000 C 
ATOM      7  C   UNL     1      11.218  12.182  17.569  0.00  0.00    +0.000 C 
ATOM      8  C   UNL     1       9.728  10.665  18.779  0.00  0.00    +0.000 C 
ATOM      9  C   UNL     1      10.979  12.394  20.109  0.00  0.00    +0.000 C 
ATOM     10  C   UNL     1      11.341  13.865  20.353  0.00  0.00    +0.000 C 
ATOM     11  C   UNL     1      10.157  14.820  20.161  0.00  0.00    +0.000 C 
ATOM     12  C   UNL     1       9.410  14.693  18.800  0.00  0.00    +0.000 C 
ATOM     13  C   UNL     1      10.379  15.072  17.635  0.00  0.00    +0.000 C 
ENDROOT
BRANCH   1  14
ATOM     14  O   UNL     1       8.693  17.018  18.380  0.00  0.00    +0.000 OA
ATOM     15  H   UNL     1       9.461  16.895  17.797  0.00  0.00    +0.000 HD
ENDBRANCH   1  14
BRANCH   9  16
ATOM     16  O   UNL     1      12.173  11.616  20.197  0.00  0.00    +0.000 OA
ATOM     17  H   UNL     1      12.155  10.934  19.504  0.00  0.00    +0.000 HD
ENDBRANCH   9  16
BRANCH   1  18
ATOM     18  C   UNL     1       7.446  16.015  20.109  0.00  0.00    +0.000 C 
BRANCH  18  22
ATOM     19  C   UNL     1       3.080  15.891  20.050  0.00  0.00    +0.000 A 
ATOM     20  C   UNL     1       3.769  17.006  19.568  0.00  0.00    +0.000 A 
ATOM     21  C   UNL     1       5.171  17.061  19.602  0.00  0.00    +0.000 A 
ATOM     22  C   UNL     1       5.911  16.001  20.130  0.00  0.00    +0.000 A 
ATOM     23  C   UNL     1       5.203  14.893  20.652  0.00  0.00    +0.000 A 
ATOM     24  C   UNL     1       3.801  14.839  20.609  0.00  0.00    +0.000 A 
BRANCH  19  26
ATOM     25  C   UNL     1       1.106  14.942  19.157  0.00  0.00    +0.000 C 
ATOM     26  O   UNL     1       1.717  15.950  19.954  0.00  0.00    +0.000 OA
ENDBRANCH  19  26
ENDBRANCH  18  22
ENDBRANCH   1  18
TORSDOF 5
ENDMDL
