MODEL 1
REMARK VINA RESULT:      -8.5      0.000      0.000
REMARK  Name = 
REMARK  3 active torsions:
REMARK  status: ('A' for Active; 'I' for Inactive)
REMARK    1  A    between atoms: C_5  and  O_6
REMARK    2  A    between atoms: C_12  and  C_13
REMARK    3  A    between atoms: N_15  and  C_16
REMARK                            x       y       z     vdW  Elec       q    Type
REMARK                         _______ _______ _______ _____ _____    ______ ____
ROOT
ATOM      1  N   UNL     1       7.340   6.598  17.391  0.00  0.00    +0.000 NA
ATOM      2  C   UNL     1       6.997   5.762  16.464  0.00  0.00    +0.000 A 
ATOM      3  O   UNL     1       7.718   5.796  15.281  0.00  0.00    +0.000 OA
ATOM      4  C   UNL     1       7.298   5.038  14.168  0.00  0.00    +0.000 A 
ATOM      5  C   UNL     1       7.969   5.191  12.958  0.00  0.00    +0.000 A 
ATOM      6  C   UNL     1       7.527   4.518  11.825  0.00  0.00    +0.000 A 
ATOM      7  C   UNL     1       6.420   3.670  11.910  0.00  0.00    +0.000 A 
ATOM      8  C   UNL     1       5.768   3.491  13.133  0.00  0.00    +0.000 A 
ATOM      9  C   UNL     1       6.208   4.182  14.265  0.00  0.00    +0.000 A 
ATOM     10  C   UNL     1       5.547   4.034  15.545  0.00  0.00    +0.000 A 
ATOM     11  C   UNL     1       5.906   4.782  16.600  0.00  0.00    +0.000 A 
ATOM     12  H   UNL     1       8.126   7.149  17.018  0.00  0.00    +0.000 HD
ENDROOT
BRANCH  11  13
ATOM     13  C   UNL     1       5.125   4.535  17.852  0.00  0.00    +0.000 C 
ATOM     14  O   UNL     1       5.733   4.292  18.897  0.00  0.00    +0.000 OA
ATOM     15  N   UNL     1       3.753   4.563  17.729  0.00  0.00    +0.000 N 
ATOM     16  H   UNL     1       3.378   4.662  16.782  0.00  0.00    +0.000 HD
BRANCH  15  17
ATOM     17  C   UNL     1       2.830   4.404  18.789  0.00  0.00    +0.000 A 
ATOM     18  C   UNL     1       2.318   3.157  19.169  0.00  0.00    +0.000 A 
ATOM     19  C   UNL     1       1.401   3.040  20.214  0.00  0.00    +0.000 A 
ATOM     20  C   UNL     1       0.978   4.175  20.894  0.00  0.00    +0.000 A 
ATOM     21  C   UNL     1       1.488   5.420  20.529  0.00  0.00    +0.000 A 
ATOM     22 CL   UNL     1       0.943   6.826  21.360  0.00  0.00    +0.000 Cl
ATOM     23  C   UNL     1       2.419   5.542  19.492  0.00  0.00    +0.000 A 
ENDBRANCH  15  17
ENDBRANCH  11  13
BRANCH   5  24
ATOM     24  O   UNL     1       9.064   5.997  12.843  0.00  0.00    +0.000 OA
ATOM     25  H   UNL     1       9.417   6.128  13.741  0.00  0.00    +0.000 HD
ENDBRANCH   5  24
TORSDOF 3
ENDMDL
MODEL 2
REMARK VINA RESULT:      -8.1      1.329      1.590
REMARK  Name = 
REMARK  3 active torsions:
REMARK  status: ('A' for Active; 'I' for Inactive)
REMARK    1  A    between atoms: C_5  and  O_6
REMARK    2  A    between atoms: C_12  and  C_13
REMARK    3  A    between atoms: N_15  and  C_16
REMARK                            x       y       z     vdW  Elec       q    Type
REMARK                         _______ _______ _______ _____ _____    ______ ____
ROOT
ATOM      1  N   UNL     1       7.378   6.591  17.539  0.00  0.00    +0.000 NA
ATOM      2  C   UNL     1       7.022   5.756  16.617  0.00  0.00    +0.000 A 
ATOM      3  O   UNL     1       7.706   5.810  15.413  0.00  0.00    +0.000 OA
ATOM      4  C   UNL     1       7.265   5.053  14.308  0.00  0.00    +0.000 A 
ATOM      5  C   UNL     1       7.897   5.227  13.079  0.00  0.00    +0.000 A 
ATOM      6  C   UNL     1       7.432   4.554  11.955  0.00  0.00    +0.000 A 
ATOM      7  C   UNL     1       6.342   3.686  12.067  0.00  0.00    +0.000 A 
ATOM      8  C   UNL     1       5.731   3.488  13.307  0.00  0.00    +0.000 A 
ATOM      9  C   UNL     1       6.192   4.179  14.430  0.00  0.00    +0.000 A 
ATOM     10  C   UNL     1       5.573   4.010  15.728  0.00  0.00    +0.000 A 
ATOM     11  C   UNL     1       5.951   4.757  16.778  0.00  0.00    +0.000 A 
ATOM     12  H   UNL     1       8.143   7.158  17.146  0.00  0.00    +0.000 HD
ENDROOT
BRANCH  11  13
ATOM     13  C   UNL     1       5.213   4.488  18.051  0.00  0.00    +0.000 C 
ATOM     14  O   UNL     1       5.838   4.477  19.114  0.00  0.00    +0.000 OA
ATOM     15  N   UNL     1       3.865   4.231  17.929  0.00  0.00    +0.000 N 
ATOM     16  H   UNL     1       3.493   4.158  16.979  0.00  0.00    +0.000 HD
BRANCH  15  17
ATOM     17  C   UNL     1       2.973   4.001  19.002  0.00  0.00    +0.000 A 
ATOM     18  C   UNL     1       1.833   4.785  19.223  0.00  0.00    +0.000 A 
ATOM     19  C   UNL     1       0.979   4.535  20.299  0.00  0.00    +0.000 A 
ATOM     20  C   UNL     1       1.258   3.494  21.175  0.00  0.00    +0.000 A 
ATOM     21  C   UNL     1       2.385   2.703  20.960  0.00  0.00    +0.000 A 
ATOM     22 CL   UNL     1       2.738   1.428  22.063  0.00  0.00    +0.000 Cl
ATOM     23  C   UNL     1       3.236   2.939  19.875  0.00  0.00    +0.000 A 
ENDBRANCH  15  17
ENDBRANCH  11  13
BRANCH   5  24
ATOM     24  O   UNL     1       8.974   6.051  12.937  0.00  0.00    +0.000 OA
ATOM     25  H   UNL     1       9.559   5.644  12.272  0.00  0.00    +0.000 HD
ENDBRANCH   5  24
TORSDOF 3
ENDMDL
MODEL 3
REMARK VINA RESULT:      -8.0      4.408      7.132
REMARK  Name = 
REMARK  3 active torsions:
REMARK  status: ('A' for Active; 'I' for Inactive)
REMARK    1  A    between atoms: C_5  and  O_6
REMARK    2  A    between atoms: C_12  and  C_13
REMARK    3  A    between atoms: N_15  and  C_16
REMARK                            x       y       z     vdW  Elec       q    Type
REMARK                         _______ _______ _______ _____ _____    ______ ____
ROOT
ATOM      1  N   UNL     1       4.514   6.876  16.919  0.00  0.00    +0.000 NA
ATOM      2  C   UNL     1       3.866   6.406  17.936  0.00  0.00    +0.000 A 
ATOM      3  O   UNL     1       4.313   5.209  18.474  0.00  0.00    +0.000 OA
ATOM      4  C   UNL     1       3.561   4.551  19.469  0.00  0.00    +0.000 A 
ATOM      5  C   UNL     1       3.971   3.290  19.897  0.00  0.00    +0.000 A 
ATOM      6  C   UNL     1       3.205   2.584  20.818  0.00  0.00    +0.000 A 
ATOM      7  C   UNL     1       2.035   3.153  21.329  0.00  0.00    +0.000 A 
ATOM      8  C   UNL     1       1.644   4.431  20.923  0.00  0.00    +0.000 A 
ATOM      9  C   UNL     1       2.409   5.130  19.986  0.00  0.00    +0.000 A 
ATOM     10  C   UNL     1       2.026   6.450  19.532  0.00  0.00    +0.000 A 
ATOM     11  C   UNL     1       2.704   7.069  18.552  0.00  0.00    +0.000 A 
ATOM     12  H   UNL     1       5.270   6.208  16.713  0.00  0.00    +0.000 HD
ENDROOT
BRANCH  11  13
ATOM     13  C   UNL     1       2.185   8.420  18.172  0.00  0.00    +0.000 C 
ATOM     14  O   UNL     1       2.553   8.924  17.108  0.00  0.00    +0.000 OA
ATOM     15  N   UNL     1       1.346   9.026  19.080  0.00  0.00    +0.000 N 
ATOM     16  H   UNL     1       1.213   8.548  19.975  0.00  0.00    +0.000 HD
BRANCH  15  17
ATOM     17  C   UNL     1       0.707  10.275  18.901  0.00  0.00    +0.000 A 
ATOM     18  C   UNL     1       1.350  11.497  19.133  0.00  0.00    +0.000 A 
ATOM     19  C   UNL     1       0.685  12.711  18.954  0.00  0.00    +0.000 A 
ATOM     20  C   UNL     1      -0.642  12.718  18.544  0.00  0.00    +0.000 A 
ATOM     21  C   UNL     1      -1.289  11.508  18.303  0.00  0.00    +0.000 A 
ATOM     22 CL   UNL     1      -2.941  11.523  17.816  0.00  0.00    +0.000 Cl
ATOM     23  C   UNL     1      -0.623  10.289  18.465  0.00  0.00    +0.000 A 
ENDBRANCH  15  17
ENDBRANCH  11  13
BRANCH   5  24
ATOM     24  O   UNL     1       5.116   2.714  19.434  0.00  0.00    +0.000 OA
ATOM     25  H   UNL     1       5.785   3.418  19.371  0.00  0.00    +0.000 HD
ENDBRANCH   5  24
TORSDOF 3
ENDMDL
MODEL 4
REMARK VINA RESULT:      -7.9      4.449      7.114
REMARK  Name = 
REMARK  3 active torsions:
REMARK  status: ('A' for Active; 'I' for Inactive)
REMARK    1  A    between atoms: C_5  and  O_6
REMARK    2  A    between atoms: C_12  and  C_13
REMARK    3  A    between atoms: N_15  and  C_16
REMARK                            x       y       z     vdW  Elec       q    Type
REMARK                         _______ _______ _______ _____ _____    ______ ____
ROOT
ATOM      1  N   UNL     1       4.515   6.878  16.911  0.00  0.00    +0.000 NA
ATOM      2  C   UNL     1       3.870   6.406  17.929  0.00  0.00    +0.000 A 
ATOM      3  O   UNL     1       4.325   5.214  18.470  0.00  0.00    +0.000 OA
ATOM      4  C   UNL     1       3.578   4.552  19.467  0.00  0.00    +0.000 A 
ATOM      5  C   UNL     1       3.996   3.296  19.898  0.00  0.00    +0.000 A 
ATOM      6  C   UNL     1       3.235   2.587  20.820  0.00  0.00    +0.000 A 
ATOM      7  C   UNL     1       2.061   3.148  21.329  0.00  0.00    +0.000 A 
ATOM      8  C   UNL     1       1.661   4.423  20.920  0.00  0.00    +0.000 A 
ATOM      9  C   UNL     1       2.421   5.124  19.982  0.00  0.00    +0.000 A 
ATOM     10  C   UNL     1       2.029   6.441  19.524  0.00  0.00    +0.000 A 
ATOM     11  C   UNL     1       2.703   7.062  18.543  0.00  0.00    +0.000 A 
ATOM     12  H   UNL     1       5.276   6.215  16.707  0.00  0.00    +0.000 HD
ENDROOT
BRANCH  11  13
ATOM     13  C   UNL     1       2.175   8.408  18.159  0.00  0.00    +0.000 C 
ATOM     14  O   UNL     1       2.564   8.926  17.109  0.00  0.00    +0.000 OA
ATOM     15  N   UNL     1       1.303   8.995  19.049  0.00  0.00    +0.000 N 
ATOM     16  H   UNL     1       1.153   8.509  19.937  0.00  0.00    +0.000 HD
BRANCH  15  17
ATOM     17  C   UNL     1       0.650  10.236  18.862  0.00  0.00    +0.000 A 
ATOM     18  C   UNL     1      -0.690  10.337  18.467  0.00  0.00    +0.000 A 
ATOM     19  C   UNL     1      -1.299  11.579  18.283  0.00  0.00    +0.000 A 
ATOM     20  C   UNL     1      -0.570  12.744  18.489  0.00  0.00    +0.000 A 
ATOM     21  C   UNL     1       0.762  12.654  18.890  0.00  0.00    +0.000 A 
ATOM     22 CL   UNL     1       1.667  14.101  19.122  0.00  0.00    +0.000 Cl
ATOM     23  C   UNL     1       1.373  11.412  19.091  0.00  0.00    +0.000 A 
ENDBRANCH  15  17
ENDBRANCH  11  13
BRANCH   5  24
ATOM     24  O   UNL     1       5.145   2.726  19.436  0.00  0.00    +0.000 OA
ATOM     25  H   UNL     1       5.428   2.074  20.103  0.00  0.00    +0.000 HD
ENDBRANCH   5  24
TORSDOF 3
ENDMDL
MODEL 5
REMARK VINA RESULT:      -7.8      3.158      7.620
REMARK  Name = 
REMARK  3 active torsions:
REMARK  status: ('A' for Active; 'I' for Inactive)
REMARK    1  A    between atoms: C_5  and  O_6
REMARK    2  A    between atoms: C_12  and  C_13
REMARK    3  A    between atoms: N_15  and  C_16
REMARK                            x       y       z     vdW  Elec       q    Type
REMARK                         _______ _______ _______ _____ _____    ______ ____
ROOT
ATOM      1  N   UNL     1       6.407   5.774  19.091  0.00  0.00    +0.000 NA
ATOM      2  C   UNL     1       5.293   5.174  18.821  0.00  0.00    +0.000 A 
ATOM      3  O   UNL     1       4.275   5.275  19.755  0.00  0.00    +0.000 OA
ATOM      4  C   UNL     1       3.097   4.512  19.612  0.00  0.00    +0.000 A 
ATOM      5  C   UNL     1       2.149   4.541  20.632  0.00  0.00    +0.000 A 
ATOM      6  C   UNL     1       1.018   3.737  20.554  0.00  0.00    +0.000 A 
ATOM      7  C   UNL     1       0.823   2.918  19.439  0.00  0.00    +0.000 A 
ATOM      8  C   UNL     1       1.759   2.916  18.402  0.00  0.00    +0.000 A 
ATOM      9  C   UNL     1       2.902   3.714  18.492  0.00  0.00    +0.000 A 
ATOM     10  C   UNL     1       3.900   3.726  17.443  0.00  0.00    +0.000 A 
ATOM     11  C   UNL     1       5.047   4.409  17.586  0.00  0.00    +0.000 A 
ATOM     12  H   UNL     1       6.287   6.223  20.010  0.00  0.00    +0.000 HD
ENDROOT
BRANCH  11  13
ATOM     13  C   UNL     1       5.993   4.317  16.431  0.00  0.00    +0.000 C 
ATOM     14  O   UNL     1       7.203   4.245  16.654  0.00  0.00    +0.000 OA
ATOM     15  N   UNL     1       5.426   4.358  15.176  0.00  0.00    +0.000 N 
ATOM     16  H   UNL     1       4.419   4.536  15.131  0.00  0.00    +0.000 HD
BRANCH  15  17
ATOM     17  C   UNL     1       6.127   4.238  13.953  0.00  0.00    +0.000 A 
ATOM     18  C   UNL     1       7.039   5.201  13.503  0.00  0.00    +0.000 A 
ATOM     19  C   UNL     1       7.707   5.053  12.287  0.00  0.00    +0.000 A 
ATOM     20  C   UNL     1       7.465   3.936  11.497  0.00  0.00    +0.000 A 
ATOM     21  C   UNL     1       6.565   2.968  11.939  0.00  0.00    +0.000 A 
ATOM     22 CL   UNL     1       6.254   1.596  10.946  0.00  0.00    +0.000 Cl
ATOM     23  C   UNL     1       5.905   3.103  13.165  0.00  0.00    +0.000 A 
ENDBRANCH  15  17
ENDBRANCH  11  13
BRANCH   5  24
ATOM     24  O   UNL     1       2.298   5.341  21.726  0.00  0.00    +0.000 OA
ATOM     25  H   UNL     1       1.936   6.215  21.491  0.00  0.00    +0.000 HD
ENDBRANCH   5  24
TORSDOF 3
ENDMDL
MODEL 6
REMARK VINA RESULT:      -7.8      4.539      6.308
REMARK  Name = 
REMARK  3 active torsions:
REMARK  status: ('A' for Active; 'I' for Inactive)
REMARK    1  A    between atoms: C_5  and  O_6
REMARK    2  A    between atoms: C_12  and  C_13
REMARK    3  A    between atoms: N_15  and  C_16
REMARK                            x       y       z     vdW  Elec       q    Type
REMARK                         _______ _______ _______ _____ _____    ______ ____
ROOT
ATOM      1  N   UNL     1       2.008   5.786  20.781  0.00  0.00    +0.000 NA
ATOM      2  C   UNL     1       2.583   5.990  19.640  0.00  0.00    +0.000 A 
ATOM      3  O   UNL     1       3.273   4.928  19.077  0.00  0.00    +0.000 OA
ATOM      4  C   UNL     1       4.063   5.121  17.926  0.00  0.00    +0.000 A 
ATOM      5  C   UNL     1       4.843   4.064  17.461  0.00  0.00    +0.000 A 
ATOM      6  C   UNL     1       5.692   4.250  16.376  0.00  0.00    +0.000 A 
ATOM      7  C   UNL     1       5.744   5.493  15.740  0.00  0.00    +0.000 A 
ATOM      8  C   UNL     1       4.937   6.542  16.187  0.00  0.00    +0.000 A 
ATOM      9  C   UNL     1       4.096   6.354  17.288  0.00  0.00    +0.000 A 
ATOM     10  C   UNL     1       3.257   7.423  17.788  0.00  0.00    +0.000 A 
ATOM     11  C   UNL     1       2.536   7.269  18.910  0.00  0.00    +0.000 A 
ATOM     12  H   UNL     1       2.208   4.810  21.044  0.00  0.00    +0.000 HD
ENDROOT
BRANCH  11  13
ATOM     13  C   UNL     1       1.729   8.461  19.319  0.00  0.00    +0.000 C 
ATOM     14  O   UNL     1       1.460   8.620  20.511  0.00  0.00    +0.000 OA
ATOM     15  N   UNL     1       1.308   9.288  18.300  0.00  0.00    +0.000 N 
ATOM     16  H   UNL     1       1.503   8.979  17.345  0.00  0.00    +0.000 HD
BRANCH  15  17
ATOM     17  C   UNL     1       0.581  10.489  18.466  0.00  0.00    +0.000 A 
ATOM     18  C   UNL     1       1.188  11.703  18.814  0.00  0.00    +0.000 A 
ATOM     19  C   UNL     1       0.438  12.868  18.978  0.00  0.00    +0.000 A 
ATOM     20  C   UNL     1      -0.939  12.833  18.800  0.00  0.00    +0.000 A 
ATOM     21  C   UNL     1      -1.553  11.633  18.446  0.00  0.00    +0.000 A 
ATOM     22 CL   UNL     1      -3.263  11.592  18.247  0.00  0.00    +0.000 Cl
ATOM     23  C   UNL     1      -0.803  10.466  18.264  0.00  0.00    +0.000 A 
ENDBRANCH  15  17
ENDBRANCH  11  13
BRANCH   5  24
ATOM     24  O   UNL     1       4.804   2.833  18.045  0.00  0.00    +0.000 OA
ATOM     25  H   UNL     1       5.723   2.586  18.251  0.00  0.00    +0.000 HD
ENDBRANCH   5  24
TORSDOF 3
ENDMDL
MODEL 7
REMARK VINA RESULT:      -7.7      3.050      7.541
REMARK  Name = 
REMARK  3 active torsions:
REMARK  status: ('A' for Active; 'I' for Inactive)
REMARK    1  A    between atoms: C_5  and  O_6
REMARK    2  A    between atoms: C_12  and  C_13
REMARK    3  A    between atoms: N_15  and  C_16
REMARK                            x       y       z     vdW  Elec       q    Type
REMARK                         _______ _______ _______ _____ _____    ______ ____
ROOT
ATOM      1  N   UNL     1       6.440   5.112  19.500  0.00  0.00    +0.000 NA
ATOM      2  C   UNL     1       5.276   4.682  19.133  0.00  0.00    +0.000 A 
ATOM      3  O   UNL     1       4.274   4.670  20.090  0.00  0.00    +0.000 OA
ATOM      4  C   UNL     1       3.033   4.060  19.815  0.00  0.00    +0.000 A 
ATOM      5  C   UNL     1       2.094   3.953  20.839  0.00  0.00    +0.000 A 
ATOM      6  C   UNL     1       0.896   3.285  20.618  0.00  0.00    +0.000 A 
ATOM      7  C   UNL     1       0.626   2.741  19.360  0.00  0.00    +0.000 A 
ATOM      8  C   UNL     1       1.554   2.878  18.325  0.00  0.00    +0.000 A 
ATOM      9  C   UNL     1       2.764   3.537  18.557  0.00  0.00    +0.000 A 
ATOM     10  C   UNL     1       3.756   3.684  17.512  0.00  0.00    +0.000 A 
ATOM     11  C   UNL     1       4.959   4.220  17.771  0.00  0.00    +0.000 A 
ATOM     12  H   UNL     1       6.364   5.365  20.495  0.00  0.00    +0.000 HD
ENDROOT
BRANCH  11  13
ATOM     13  C   UNL     1       5.890   4.293  16.602  0.00  0.00    +0.000 C 
ATOM     14  O   UNL     1       7.098   4.432  16.807  0.00  0.00    +0.000 OA
ATOM     15  N   UNL     1       5.305   4.237  15.355  0.00  0.00    +0.000 N 
ATOM     16  H   UNL     1       4.283   4.238  15.325  0.00  0.00    +0.000 HD
BRANCH  15  17
ATOM     17  C   UNL     1       5.999   4.240  14.122  0.00  0.00    +0.000 A 
ATOM     18  C   UNL     1       5.635   3.421  13.045  0.00  0.00    +0.000 A 
ATOM     19  C   UNL     1       6.348   3.444  11.846  0.00  0.00    +0.000 A 
ATOM     20  C   UNL     1       7.444   4.286  11.709  0.00  0.00    +0.000 A 
ATOM     21  C   UNL     1       7.809   5.110  12.772  0.00  0.00    +0.000 A 
ATOM     22 CL   UNL     1       9.182   6.137  12.604  0.00  0.00    +0.000 Cl
ATOM     23  C   UNL     1       7.089   5.104  13.971  0.00  0.00    +0.000 A 
ENDBRANCH  15  17
ENDBRANCH  11  13
BRANCH   5  24
ATOM     24  O   UNL     1       2.317   4.488  22.073  0.00  0.00    +0.000 OA
ATOM     25  H   UNL     1       3.162   4.971  22.026  0.00  0.00    +0.000 HD
ENDBRANCH   5  24
TORSDOF 3
ENDMDL
MODEL 8
REMARK VINA RESULT:      -7.7      1.325      1.391
REMARK  Name = 
REMARK  3 active torsions:
REMARK  status: ('A' for Active; 'I' for Inactive)
REMARK    1  A    between atoms: C_5  and  O_6
REMARK    2  A    between atoms: C_12  and  C_13
REMARK    3  A    between atoms: N_15  and  C_16
REMARK                            x       y       z     vdW  Elec       q    Type
REMARK                         _______ _______ _______ _____ _____    ______ ____
ROOT
ATOM      1  N   UNL     1       6.745   6.866  17.258  0.00  0.00    +0.000 NA
ATOM      2  C   UNL     1       6.521   5.987  16.336  0.00  0.00    +0.000 A 
ATOM      3  O   UNL     1       7.421   5.927  15.284  0.00  0.00    +0.000 OA
ATOM      4  C   UNL     1       7.153   5.117  14.161  0.00  0.00    +0.000 A 
ATOM      5  C   UNL     1       8.014   5.177  13.068  0.00  0.00    +0.000 A 
ATOM      6  C   UNL     1       7.730   4.451  11.917  0.00  0.00    +0.000 A 
ATOM      7  C   UNL     1       6.591   3.644  11.869  0.00  0.00    +0.000 A 
ATOM      8  C   UNL     1       5.747   3.559  12.979  0.00  0.00    +0.000 A 
ATOM      9  C   UNL     1       6.028   4.303  14.127  0.00  0.00    +0.000 A 
ATOM     10  C   UNL     1       5.167   4.252  15.290  0.00  0.00    +0.000 A 
ATOM     11  C   UNL     1       5.383   5.051  16.347  0.00  0.00    +0.000 A 
ATOM     12  H   UNL     1       7.602   7.369  16.987  0.00  0.00    +0.000 HD
ENDROOT
BRANCH  11  13
ATOM     13  C   UNL     1       4.405   4.904  17.469  0.00  0.00    +0.000 C 
ATOM     14  O   UNL     1       4.359   5.775  18.341  0.00  0.00    +0.000 OA
ATOM     15  N   UNL     1       3.639   3.759  17.461  0.00  0.00    +0.000 N 
ATOM     16  H   UNL     1       3.857   3.063  16.743  0.00  0.00    +0.000 HD
BRANCH  15  17
ATOM     17  C   UNL     1       2.624   3.443  18.394  0.00  0.00    +0.000 A 
ATOM     18  C   UNL     1       1.313   3.130  18.013  0.00  0.00    +0.000 A 
ATOM     19  C   UNL     1       0.334   2.832  18.962  0.00  0.00    +0.000 A 
ATOM     20  C   UNL     1       0.654   2.848  20.313  0.00  0.00    +0.000 A 
ATOM     21  C   UNL     1       1.958   3.151  20.703  0.00  0.00    +0.000 A 
ATOM     22 CL   UNL     1       2.343   3.192  22.382  0.00  0.00    +0.000 Cl
ATOM     23  C   UNL     1       2.947   3.435  19.756  0.00  0.00    +0.000 A 
ENDBRANCH  15  17
ENDBRANCH  11  13
BRANCH   5  24
ATOM     24  O   UNL     1       9.144   5.940  13.086  0.00  0.00    +0.000 OA
ATOM     25  H   UNL     1       8.963   6.731  12.547  0.00  0.00    +0.000 HD
ENDBRANCH   5  24
TORSDOF 3
ENDMDL
MODEL 9
REMARK VINA RESULT:      -7.7      5.303      8.950
REMARK  Name = 
REMARK  3 active torsions:
REMARK  status: ('A' for Active; 'I' for Inactive)
REMARK    1  A    between atoms: C_5  and  O_6
REMARK    2  A    between atoms: C_12  and  C_13
REMARK    3  A    between atoms: N_15  and  C_16
REMARK                            x       y       z     vdW  Elec       q    Type
REMARK                         _______ _______ _______ _____ _____    ______ ____
ROOT
ATOM      1  N   UNL     1       2.094  11.129  17.674  0.00  0.00    +0.000 NA
ATOM      2  C   UNL     1       1.486  10.623  18.698  0.00  0.00    +0.000 A 
ATOM      3  O   UNL     1       0.716  11.482  19.467  0.00  0.00    +0.000 OA
ATOM      4  C   UNL     1       0.164  11.044  20.689  0.00  0.00    +0.000 A 
ATOM      5  C   UNL     1      -0.497  11.966  21.497  0.00  0.00    +0.000 A 
ATOM      6  C   UNL     1      -0.980  11.582  22.742  0.00  0.00    +0.000 A 
ATOM      7  C   UNL     1      -0.820  10.262  23.171  0.00  0.00    +0.000 A 
ATOM      8  C   UNL     1      -0.186   9.330  22.345  0.00  0.00    +0.000 A 
ATOM      9  C   UNL     1       0.311   9.726  21.101  0.00  0.00    +0.000 A 
ATOM     10  C   UNL     1       0.987   8.791  20.225  0.00  0.00    +0.000 A 
ATOM     11  C   UNL     1       1.558   9.203  19.081  0.00  0.00    +0.000 A 
ATOM     12  H   UNL     1       1.860  12.132  17.655  0.00  0.00    +0.000 HD
ENDROOT
BRANCH  11  13
ATOM     13  C   UNL     1       2.236   8.133  18.286  0.00  0.00    +0.000 C 
ATOM     14  O   UNL     1       2.618   8.390  17.142  0.00  0.00    +0.000 OA
ATOM     15  N   UNL     1       2.349   6.902  18.895  0.00  0.00    +0.000 N 
ATOM     16  H   UNL     1       1.887   6.792  19.801  0.00  0.00    +0.000 HD
BRANCH  15  17
ATOM     17  C   UNL     1       2.995   5.770  18.345  0.00  0.00    +0.000 A 
ATOM     18  C   UNL     1       2.295   4.688  17.798  0.00  0.00    +0.000 A 
ATOM     19  C   UNL     1       2.965   3.582  17.273  0.00  0.00    +0.000 A 
ATOM     20  C   UNL     1       4.354   3.543  17.292  0.00  0.00    +0.000 A 
ATOM     21  C   UNL     1       5.060   4.618  17.827  0.00  0.00    +0.000 A 
ATOM     22 CL   UNL     1       6.781   4.554  17.868  0.00  0.00    +0.000 Cl
ATOM     23  C   UNL     1       4.394   5.736  18.341  0.00  0.00    +0.000 A 
ENDBRANCH  15  17
ENDBRANCH  11  13
BRANCH   5  24
ATOM     24  O   UNL     1      -0.687  13.258  21.102  0.00  0.00    +0.000 OA
ATOM     25  H   UNL     1      -0.654  13.266  20.129  0.00  0.00    +0.000 HD
ENDBRANCH   5  24
TORSDOF 3
ENDMDL
