MODEL 1
REMARK VINA RESULT:      -6.6      0.000      0.000
REMARK  Name = 
REMARK  2 active torsions:
REMARK  status: ('A' for Active; 'I' for Inactive)
REMARK    1  A    between atoms: C_1  and  N_2
REMARK    2  A    between atoms: C_6  and  C_7
REMARK                            x       y       z     vdW  Elec       q    Type
REMARK                         _______ _______ _______ _____ _____    ______ ____
ROOT
ATOM      1  C   UNL     1       3.751   4.266  16.682  0.00  0.00    +0.000 C 
ATOM      2  C   UNL     1       3.422   3.865  17.923  0.00  0.00    +0.000 A 
ATOM      3  S   UNL     1       4.450   3.450  19.268  0.00  0.00    +0.000 S 
ATOM      4  C   UNL     1       3.105   3.080  20.267  0.00  0.00    +0.000 A 
ATOM      5  N   UNL     1       1.937   3.263  19.618  0.00  0.00    +0.000 N 
ATOM      6  C   UNL     1       1.979   3.691  18.328  0.00  0.00    +0.000 A 
ATOM      7  O   UNL     1       1.018   3.911  17.609  0.00  0.00    +0.000 OA
ATOM      8  C   UNL     1       0.855   2.962  20.496  0.00  0.00    +0.000 C 
ATOM      9  C   UNL     1       1.595   2.527  21.764  0.00  0.00    +0.000 C 
ATOM     10  N   UNL     1       3.062   2.676  21.492  0.00  0.00    +0.000 NA
ENDROOT
BRANCH   1  16
ATOM     11  C   UNL     1       5.220   6.836  17.303  0.00  0.00    +0.000 C 
ATOM     12  N   UNL     1       5.729   5.711  16.542  0.00  0.00    +0.000 N 
ATOM     13  C   UNL     1       6.999   5.706  16.008  0.00  0.00    +0.000 A 
ATOM     14  C   UNL     1       7.184   4.518  15.350  0.00  0.00    +0.000 A 
ATOM     15  C   UNL     1       5.988   3.781  15.487  0.00  0.00    +0.000 A 
ATOM     16  C   UNL     1       5.076   4.531  16.219  0.00  0.00    +0.000 A 
ENDBRANCH   1  16
TORSDOF 1
ENDMDL
MODEL 2
REMARK VINA RESULT:      -6.5      2.247      5.975
REMARK  Name = 
REMARK  2 active torsions:
REMARK  status: ('A' for Active; 'I' for Inactive)
REMARK    1  A    between atoms: C_1  and  N_2
REMARK    2  A    between atoms: C_6  and  C_7
REMARK                            x       y       z     vdW  Elec       q    Type
REMARK                         _______ _______ _______ _____ _____    ______ ____
ROOT
ATOM      1  C   UNL     1       4.541   4.010  19.532  0.00  0.00    +0.000 C 
ATOM      2  C   UNL     1       4.889   4.139  18.239  0.00  0.00    +0.000 A 
ATOM      3  S   UNL     1       3.922   3.940  16.802  0.00  0.00    +0.000 S 
ATOM      4  C   UNL     1       5.255   4.280  15.778  0.00  0.00    +0.000 A 
ATOM      5  N   UNL     1       6.375   4.535  16.486  0.00  0.00    +0.000 N 
ATOM      6  C   UNL     1       6.301   4.488  17.843  0.00  0.00    +0.000 A 
ATOM      7  O   UNL     1       7.216   4.700  18.624  0.00  0.00    +0.000 OA
ATOM      8  C   UNL     1       7.445   4.830  15.591  0.00  0.00    +0.000 C 
ATOM      9  C   UNL     1       6.766   4.662  14.229  0.00  0.00    +0.000 C 
ATOM     10  N   UNL     1       5.328   4.328  14.490  0.00  0.00    +0.000 NA
ENDROOT
BRANCH   1  16
ATOM     11  C   UNL     1       2.443   6.174  19.784  0.00  0.00    +0.000 C 
ATOM     12  N   UNL     1       2.277   4.768  20.098  0.00  0.00    +0.000 N 
ATOM     13  C   UNL     1       1.082   4.259  20.558  0.00  0.00    +0.000 A 
ATOM     14  C   UNL     1       1.240   2.913  20.763  0.00  0.00    +0.000 A 
ATOM     15  C   UNL     1       2.571   2.596  20.419  0.00  0.00    +0.000 A 
ATOM     16  C   UNL     1       3.222   3.755  20.017  0.00  0.00    +0.000 A 
ENDBRANCH   1  16
TORSDOF 1
ENDMDL
MODEL 3
REMARK VINA RESULT:      -6.5      1.505      1.660
REMARK  Name = 
REMARK  2 active torsions:
REMARK  status: ('A' for Active; 'I' for Inactive)
REMARK    1  A    between atoms: C_1  and  N_2
REMARK    2  A    between atoms: C_6  and  C_7
REMARK                            x       y       z     vdW  Elec       q    Type
REMARK                         _______ _______ _______ _____ _____    ______ ____
ROOT
ATOM      1  C   UNL     1       4.355   5.757  16.930  0.00  0.00    +0.000 C 
ATOM      2  C   UNL     1       3.705   4.973  17.809  0.00  0.00    +0.000 A 
ATOM      3  S   UNL     1       3.754   3.241  18.004  0.00  0.00    +0.000 S 
ATOM      4  C   UNL     1       2.618   3.287  19.288  0.00  0.00    +0.000 A 
ATOM      5  N   UNL     1       2.222   4.549  19.558  0.00  0.00    +0.000 N 
ATOM      6  C   UNL     1       2.747   5.559  18.815  0.00  0.00    +0.000 A 
ATOM      7  O   UNL     1       2.501   6.749  18.938  0.00  0.00    +0.000 OA
ATOM      8  C   UNL     1       1.296   4.533  20.642  0.00  0.00    +0.000 C 
ATOM      9  C   UNL     1       1.184   3.034  20.934  0.00  0.00    +0.000 C 
ATOM     10  N   UNL     1       2.119   2.330  19.996  0.00  0.00    +0.000 NA
ENDROOT
BRANCH   1  16
ATOM     11  C   UNL     1       7.327   6.093  17.376  0.00  0.00    +0.000 C 
ATOM     12  N   UNL     1       6.690   5.465  16.235  0.00  0.00    +0.000 N 
ATOM     13  C   UNL     1       7.418   4.928  15.196  0.00  0.00    +0.000 A 
ATOM     14  C   UNL     1       6.541   4.414  14.277  0.00  0.00    +0.000 A 
ATOM     15  C   UNL     1       5.240   4.647  14.773  0.00  0.00    +0.000 A 
ATOM     16  C   UNL     1       5.333   5.315  15.987  0.00  0.00    +0.000 A 
ENDBRANCH   1  16
TORSDOF 1
ENDMDL
MODEL 4
REMARK VINA RESULT:      -6.4      1.991      2.425
REMARK  Name = 
REMARK  2 active torsions:
REMARK  status: ('A' for Active; 'I' for Inactive)
REMARK    1  A    between atoms: C_1  and  N_2
REMARK    2  A    between atoms: C_6  and  C_7
REMARK                            x       y       z     vdW  Elec       q    Type
REMARK                         _______ _______ _______ _____ _____    ______ ____
ROOT
ATOM      1  C   UNL     1       5.737   4.342  18.010  0.00  0.00    +0.000 C 
ATOM      2  C   UNL     1       4.533   4.243  18.602  0.00  0.00    +0.000 A 
ATOM      3  S   UNL     1       3.688   5.393  19.602  0.00  0.00    +0.000 S 
ATOM      4  C   UNL     1       2.364   4.325  19.827  0.00  0.00    +0.000 A 
ATOM      5  N   UNL     1       2.550   3.158  19.175  0.00  0.00    +0.000 N 
ATOM      6  C   UNL     1       3.700   2.993  18.469  0.00  0.00    +0.000 A 
ATOM      7  O   UNL     1       4.015   2.006  17.822  0.00  0.00    +0.000 OA
ATOM      8  C   UNL     1       1.417   2.317  19.378  0.00  0.00    +0.000 C 
ATOM      9  C   UNL     1       0.549   3.179  20.299  0.00  0.00    +0.000 C 
ATOM     10  N   UNL     1       1.271   4.479  20.494  0.00  0.00    +0.000 NA
ENDROOT
BRANCH   1  16
ATOM     11  C   UNL     1       5.331   6.653  16.103  0.00  0.00    +0.000 C 
ATOM     12  N   UNL     1       6.342   6.553  17.138  0.00  0.00    +0.000 N 
ATOM     13  C   UNL     1       7.256   7.559  17.365  0.00  0.00    +0.000 A 
ATOM     14  C   UNL     1       8.073   7.173  18.396  0.00  0.00    +0.000 A 
ATOM     15  C   UNL     1       7.642   5.893  18.805  0.00  0.00    +0.000 A 
ATOM     16  C   UNL     1       6.572   5.501  18.012  0.00  0.00    +0.000 A 
ENDBRANCH   1  16
TORSDOF 1
ENDMDL
MODEL 5
REMARK VINA RESULT:      -6.2      2.291      5.538
REMARK  Name = 
REMARK  2 active torsions:
REMARK  status: ('A' for Active; 'I' for Inactive)
REMARK    1  A    between atoms: C_1  and  N_2
REMARK    2  A    between atoms: C_6  and  C_7
REMARK                            x       y       z     vdW  Elec       q    Type
REMARK                         _______ _______ _______ _____ _____    ______ ____
ROOT
ATOM      1  C   UNL     1       2.823   5.019  17.837  0.00  0.00    +0.000 C 
ATOM      2  C   UNL     1       4.107   5.284  18.140  0.00  0.00    +0.000 A 
ATOM      3  S   UNL     1       5.128   4.582  19.366  0.00  0.00    +0.000 S 
ATOM      4  C   UNL     1       6.450   5.586  18.933  0.00  0.00    +0.000 A 
ATOM      5  N   UNL     1       6.137   6.408  17.910  0.00  0.00    +0.000 N 
ATOM      6  C   UNL     1       4.883   6.337  17.390  0.00  0.00    +0.000 A 
ATOM      7  O   UNL     1       4.446   7.003  16.464  0.00  0.00    +0.000 OA
ATOM      8  C   UNL     1       7.272   7.204  17.577  0.00  0.00    +0.000 C 
ATOM      9  C   UNL     1       8.297   6.734  18.614  0.00  0.00    +0.000 C 
ATOM     10  N   UNL     1       7.642   5.654  19.423  0.00  0.00    +0.000 NA
ENDROOT
BRANCH   1  16
ATOM     11  C   UNL     1       1.562   5.314  20.570  0.00  0.00    +0.000 C 
ATOM     12  N   UNL     1       1.440   4.176  19.680  0.00  0.00    +0.000 N 
ATOM     13  C   UNL     1       0.692   3.067  20.010  0.00  0.00    +0.000 A 
ATOM     14  C   UNL     1       0.772   2.170  18.976  0.00  0.00    +0.000 A 
ATOM     15  C   UNL     1       1.595   2.753  17.988  0.00  0.00    +0.000 A 
ATOM     16  C   UNL     1       2.022   3.998  18.433  0.00  0.00    +0.000 A 
ENDBRANCH   1  16
TORSDOF 1
ENDMDL
MODEL 6
REMARK VINA RESULT:      -6.1      2.683      6.091
REMARK  Name = 
REMARK  2 active torsions:
REMARK  status: ('A' for Active; 'I' for Inactive)
REMARK    1  A    between atoms: C_1  and  N_2
REMARK    2  A    between atoms: C_6  and  C_7
REMARK                            x       y       z     vdW  Elec       q    Type
REMARK                         _______ _______ _______ _____ _____    ______ ____
ROOT
ATOM      1  C   UNL     1       4.250   3.991  19.788  0.00  0.00    +0.000 C 
ATOM      2  C   UNL     1       4.886   4.896  19.023  0.00  0.00    +0.000 A 
ATOM      3  S   UNL     1       4.346   5.707  17.577  0.00  0.00    +0.000 S 
ATOM      4  C   UNL     1       5.829   6.554  17.419  0.00  0.00    +0.000 A 
ATOM      5  N   UNL     1       6.689   6.242  18.410  0.00  0.00    +0.000 N 
ATOM      6  C   UNL     1       6.288   5.345  19.350  0.00  0.00    +0.000 A 
ATOM      7  O   UNL     1       6.940   4.965  20.310  0.00  0.00    +0.000 OA
ATOM      8  C   UNL     1       7.894   6.985  18.243  0.00  0.00    +0.000 C 
ATOM      9  C   UNL     1       7.607   7.758  16.952  0.00  0.00    +0.000 C 
ATOM     10  N   UNL     1       6.212   7.407  16.529  0.00  0.00    +0.000 NA
ENDROOT
BRANCH   1  16
ATOM     11  C   UNL     1       3.519   1.589  18.103  0.00  0.00    +0.000 C 
ATOM     12  N   UNL     1       2.605   2.432  18.849  0.00  0.00    +0.000 N 
ATOM     13  C   UNL     1       1.247   2.201  18.866  0.00  0.00    +0.000 A 
ATOM     14  C   UNL     1       0.657   3.159  19.649  0.00  0.00    +0.000 A 
ATOM     15  C   UNL     1       1.689   3.998  20.121  0.00  0.00    +0.000 A 
ATOM     16  C   UNL     1       2.902   3.553  19.611  0.00  0.00    +0.000 A 
ENDBRANCH   1  16
TORSDOF 1
ENDMDL
MODEL 7
REMARK VINA RESULT:      -6.1      2.614      5.940
REMARK  Name = 
REMARK  2 active torsions:
REMARK  status: ('A' for Active; 'I' for Inactive)
REMARK    1  A    between atoms: C_1  and  N_2
REMARK    2  A    between atoms: C_6  and  C_7
REMARK                            x       y       z     vdW  Elec       q    Type
REMARK                         _______ _______ _______ _____ _____    ______ ____
ROOT
ATOM      1  C   UNL     1       4.374   3.746  19.580  0.00  0.00    +0.000 C 
ATOM      2  C   UNL     1       4.985   4.711  18.869  0.00  0.00    +0.000 A 
ATOM      3  S   UNL     1       4.471   5.509  17.407  0.00  0.00    +0.000 S 
ATOM      4  C   UNL     1       5.894   6.466  17.350  0.00  0.00    +0.000 A 
ATOM      5  N   UNL     1       6.715   6.198  18.386  0.00  0.00    +0.000 N 
ATOM      6  C   UNL     1       6.328   5.255  19.286  0.00  0.00    +0.000 A 
ATOM      7  O   UNL     1       6.950   4.904  20.276  0.00  0.00    +0.000 OA
ATOM      8  C   UNL     1       7.870   7.030  18.302  0.00  0.00    +0.000 C 
ATOM      9  C   UNL     1       7.601   7.806  17.009  0.00  0.00    +0.000 C 
ATOM     10  N   UNL     1       6.263   7.363  16.498  0.00  0.00    +0.000 NA
ENDROOT
BRANCH   1  16
ATOM     11  C   UNL     1       1.855   4.904  20.788  0.00  0.00    +0.000 C 
ATOM     12  N   UNL     1       1.938   3.785  19.870  0.00  0.00    +0.000 N 
ATOM     13  C   UNL     1       0.818   3.114  19.433  0.00  0.00    +0.000 A 
ATOM     14  C   UNL     1       1.218   2.115  18.583  0.00  0.00    +0.000 A 
ATOM     15  C   UNL     1       2.626   2.182  18.504  0.00  0.00    +0.000 A 
ATOM     16  C   UNL     1       3.076   3.214  19.316  0.00  0.00    +0.000 A 
ENDBRANCH   1  16
TORSDOF 1
ENDMDL
MODEL 8
REMARK VINA RESULT:      -6.1      2.167      2.496
REMARK  Name = 
REMARK  2 active torsions:
REMARK  status: ('A' for Active; 'I' for Inactive)
REMARK    1  A    between atoms: C_1  and  N_2
REMARK    2  A    between atoms: C_6  and  C_7
REMARK                            x       y       z     vdW  Elec       q    Type
REMARK                         _______ _______ _______ _____ _____    ______ ____
ROOT
ATOM      1  C   UNL     1       4.662   3.698  16.974  0.00  0.00    +0.000 C 
ATOM      2  C   UNL     1       3.964   4.514  17.785  0.00  0.00    +0.000 A 
ATOM      3  S   UNL     1       3.961   6.255  17.877  0.00  0.00    +0.000 S 
ATOM      4  C   UNL     1       2.828   6.250  19.165  0.00  0.00    +0.000 A 
ATOM      5  N   UNL     1       2.468   4.996  19.507  0.00  0.00    +0.000 N 
ATOM      6  C   UNL     1       3.022   3.960  18.824  0.00  0.00    +0.000 A 
ATOM      7  O   UNL     1       2.797   2.773  19.004  0.00  0.00    +0.000 OA
ATOM      8  C   UNL     1       1.514   5.049  20.566  0.00  0.00    +0.000 C 
ATOM      9  C   UNL     1       1.409   6.556  20.815  0.00  0.00    +0.000 C 
ATOM     10  N   UNL     1       2.299   7.232  19.814  0.00  0.00    +0.000 NA
ENDROOT
BRANCH   1  16
ATOM     11  C   UNL     1       7.499   4.636  17.441  0.00  0.00    +0.000 C 
ATOM     12  N   UNL     1       6.827   4.520  16.162  0.00  0.00    +0.000 N 
ATOM     13  C   UNL     1       7.453   4.836  14.976  0.00  0.00    +0.000 A 
ATOM     14  C   UNL     1       6.566   4.628  13.952  0.00  0.00    +0.000 A 
ATOM     15  C   UNL     1       5.364   4.171  14.535  0.00  0.00    +0.000 A 
ATOM     16  C   UNL     1       5.522   4.117  15.914  0.00  0.00    +0.000 A 
ENDBRANCH   1  16
TORSDOF 1
ENDMDL
MODEL 9
REMARK VINA RESULT:      -6.0      2.205      6.131
REMARK  Name = 
REMARK  2 active torsions:
REMARK  status: ('A' for Active; 'I' for Inactive)
REMARK    1  A    between atoms: C_1  and  N_2
REMARK    2  A    between atoms: C_6  and  C_7
REMARK                            x       y       z     vdW  Elec       q    Type
REMARK                         _______ _______ _______ _____ _____    ______ ____
ROOT
ATOM      1  C   UNL     1       4.401   4.939  19.385  0.00  0.00    +0.000 C 
ATOM      2  C   UNL     1       4.831   4.778  18.121  0.00  0.00    +0.000 A 
ATOM      3  S   UNL     1       4.151   3.829  16.826  0.00  0.00    +0.000 S 
ATOM      4  C   UNL     1       5.408   4.276  15.748  0.00  0.00    +0.000 A 
ATOM      5  N   UNL     1       6.297   5.104  16.336  0.00  0.00    +0.000 N 
ATOM      6  C   UNL     1       6.090   5.452  17.634  0.00  0.00    +0.000 A 
ATOM      7  O   UNL     1       6.791   6.193  18.304  0.00  0.00    +0.000 OA
ATOM      8  C   UNL     1       7.307   5.460  15.395  0.00  0.00    +0.000 C 
ATOM      9  C   UNL     1       6.878   4.661  14.161  0.00  0.00    +0.000 C 
ATOM     10  N   UNL     1       5.606   3.950  14.516  0.00  0.00    +0.000 NA
ENDROOT
BRANCH   1  16
ATOM     11  C   UNL     1       4.189   2.122  20.464  0.00  0.00    +0.000 C 
ATOM     12  N   UNL     1       3.135   3.117  20.433  0.00  0.00    +0.000 N 
ATOM     13  C   UNL     1       1.874   2.861  20.924  0.00  0.00    +0.000 A 
ATOM     14  C   UNL     1       1.108   3.985  20.753  0.00  0.00    +0.000 A 
ATOM     15  C   UNL     1       1.931   4.953  20.137  0.00  0.00    +0.000 A 
ATOM     16  C   UNL     1       3.190   4.407  19.925  0.00  0.00    +0.000 A 
ENDBRANCH   1  16
TORSDOF 1
ENDMDL
