MODEL 1
REMARK VINA RESULT:      -8.3      0.000      0.000
REMARK  Name = 
REMARK  6 active torsions:
REMARK  status: ('A' for Active; 'I' for Inactive)
REMARK    1  A    between atoms: C_1  and  C_2
REMARK    2  A    between atoms: C_2  and  O_3
REMARK    3  A    between atoms: C_5  and  C_6
REMARK    4  A    between atoms: C_8  and  C_9
REMARK    5  A    between atoms: C_12  and  O_13
REMARK    6  A    between atoms: O_13  and  C_14
REMARK                            x       y       z     vdW  Elec       q    Type
REMARK                         _______ _______ _______ _____ _____    ______ ____
ROOT
ATOM      1  C   UNL     1      -1.788  12.857  20.102  0.00  0.00    +0.000 A 
ATOM      2  N   UNL     1      -1.510  11.568  20.098  0.00  0.00    +0.000 NA
ATOM      3  C   UNL     1      -0.197  11.467  19.653  0.00  0.00    +0.000 A 
ATOM      4  C   UNL     1       0.295  12.719  19.314  0.00  0.00    +0.000 A 
ATOM      5  C   UNL     1       1.518  13.279  18.771  0.00  0.00    +0.000 A 
ATOM      6  N   UNL     1       2.592  12.565  18.328  0.00  0.00    +0.000 N 
ATOM      7  N   UNL     1       1.658  14.582  18.652  0.00  0.00    +0.000 NA
ATOM      8  C   UNL     1       0.632  15.405  19.037  0.00  0.00    +0.000 A 
ATOM      9  C   UNL     1      -0.545  14.959  19.509  0.00  0.00    +0.000 A 
ATOM     10  N   UNL     1      -0.719  13.596  19.646  0.00  0.00    +0.000 N 
ATOM     11  H   UNL     1       2.380  11.691  17.864  0.00  0.00    +0.000 HD
ATOM     12  H   UNL     1       3.242  13.149  17.810  0.00  0.00    +0.000 HD
ENDROOT
BRANCH   3  13
ATOM     13  C   UNL     1       0.499  10.189  19.560  0.00  0.00    +0.000 A 
ATOM     14  C   UNL     1       0.960   9.699  18.332  0.00  0.00    +0.000 A 
ATOM     15  C   UNL     1       1.708   8.511  18.275  0.00  0.00    +0.000 A 
ATOM     16  C   UNL     1       2.024   7.816  19.447  0.00  0.00    +0.000 A 
ATOM     17  C   UNL     1       1.480   8.244  20.655  0.00  0.00    +0.000 A 
ATOM     18  C   UNL     1       0.709   9.405  20.702  0.00  0.00    +0.000 A 
BRANCH  16  19
ATOM     19  O   UNL     1       2.805   6.690  19.317  0.00  0.00    +0.000 OA
BRANCH  19  20
ATOM     20  C   UNL     1       2.216   5.442  19.349  0.00  0.00    +0.000 A 
ATOM     21  C   UNL     1       2.088   4.786  18.122  0.00  0.00    +0.000 A 
ATOM     22  C   UNL     1       1.523   3.508  18.063  0.00  0.00    +0.000 A 
ATOM     23  C   UNL     1       1.079   2.886  19.226  0.00  0.00    +0.000 A 
ATOM     24  C   UNL     1       1.223   3.528  20.455  0.00  0.00    +0.000 A 
ATOM     25  C   UNL     1       1.814   4.791  20.520  0.00  0.00    +0.000 A 
ENDBRANCH  19  20
ENDBRANCH  16  19
ENDBRANCH   3  13
BRANCH   1  29
ATOM     26  C   UNL     1      -5.709  14.428  21.651  0.00  0.00    +0.000 C 
ATOM     27  C   UNL     1      -5.014  13.078  21.485  0.00  0.00    +0.000 C 
ATOM     28  C   UNL     1      -3.547  13.025  21.997  0.00  0.00    +0.000 C 
ATOM     29  C   UNL     1      -3.100  13.474  20.573  0.00  0.00    +0.000 C 
ATOM     30  C   UNL     1      -4.408  12.800  20.078  0.00  0.00    +0.000 C 
BRANCH  27  31
ATOM     31  O   UNL     1      -5.892  12.054  21.998  0.00  0.00    +0.000 OA
ATOM     32  H   UNL     1      -6.015  11.424  21.269  0.00  0.00    +0.000 HD
ENDBRANCH  27  31
ENDBRANCH   1  29
TORSDOF 5
ENDMDL
MODEL 2
REMARK VINA RESULT:      -8.3      5.214      8.089
REMARK  Name = 
REMARK  6 active torsions:
REMARK  status: ('A' for Active; 'I' for Inactive)
REMARK    1  A    between atoms: C_1  and  C_2
REMARK    2  A    between atoms: C_2  and  O_3
REMARK    3  A    between atoms: C_5  and  C_6
REMARK    4  A    between atoms: C_8  and  C_9
REMARK    5  A    between atoms: C_12  and  O_13
REMARK    6  A    between atoms: O_13  and  C_14
REMARK                            x       y       z     vdW  Elec       q    Type
REMARK                         _______ _______ _______ _____ _____    ______ ____
ROOT
ATOM      1  C   UNL     1       1.973   6.774  20.340  0.00  0.00    +0.000 A 
ATOM      2  N   UNL     1       2.964   7.137  19.550  0.00  0.00    +0.000 NA
ATOM      3  C   UNL     1       3.484   5.957  19.031  0.00  0.00    +0.000 A 
ATOM      4  C   UNL     1       2.835   4.861  19.579  0.00  0.00    +0.000 A 
ATOM      5  C   UNL     1       2.917   3.415  19.499  0.00  0.00    +0.000 A 
ATOM      6  N   UNL     1       3.863   2.709  18.816  0.00  0.00    +0.000 N 
ATOM      7  N   UNL     1       2.044   2.662  20.134  0.00  0.00    +0.000 NA
ATOM      8  C   UNL     1       1.061   3.258  20.880  0.00  0.00    +0.000 A 
ATOM      9  C   UNL     1       0.946   4.588  21.036  0.00  0.00    +0.000 A 
ATOM     10  N   UNL     1       1.848   5.403  20.380  0.00  0.00    +0.000 N 
ATOM     11  H   UNL     1       4.794   3.106  18.814  0.00  0.00    +0.000 HD
ATOM     12  H   UNL     1       3.846   1.724  19.064  0.00  0.00    +0.000 HD
ENDROOT
BRANCH   3  13
ATOM     13  C   UNL     1       4.574   5.945  18.062  0.00  0.00    +0.000 A 
ATOM     14  C   UNL     1       5.851   5.485  18.410  0.00  0.00    +0.000 A 
ATOM     15  C   UNL     1       6.863   5.395  17.440  0.00  0.00    +0.000 A 
ATOM     16  C   UNL     1       6.602   5.738  16.110  0.00  0.00    +0.000 A 
ATOM     17  C   UNL     1       5.368   6.292  15.783  0.00  0.00    +0.000 A 
ATOM     18  C   UNL     1       4.376   6.413  16.757  0.00  0.00    +0.000 A 
BRANCH  16  19
ATOM     19  O   UNL     1       7.628   5.573  15.206  0.00  0.00    +0.000 OA
BRANCH  19  20
ATOM     20  C   UNL     1       7.372   4.993  13.980  0.00  0.00    +0.000 A 
ATOM     21  C   UNL     1       6.439   3.952  13.970  0.00  0.00    +0.000 A 
ATOM     22  C   UNL     1       6.103   3.320  12.769  0.00  0.00    +0.000 A 
ATOM     23  C   UNL     1       6.700   3.721  11.577  0.00  0.00    +0.000 A 
ATOM     24  C   UNL     1       7.616   4.773  11.579  0.00  0.00    +0.000 A 
ATOM     25  C   UNL     1       7.931   5.424  12.772  0.00  0.00    +0.000 A 
ENDBRANCH  19  20
ENDBRANCH  16  19
ENDBRANCH   3  13
BRANCH   1  29
ATOM     26  C   UNL     1      -0.620   9.812  22.411  0.00  0.00    +0.000 C 
ATOM     27  C   UNL     1       0.685   9.786  21.617  0.00  0.00    +0.000 C 
ATOM     28  C   UNL     1       0.629   8.989  20.283  0.00  0.00    +0.000 C 
ATOM     29  C   UNL     1       1.052   7.727  21.095  0.00  0.00    +0.000 C 
ATOM     30  C   UNL     1       1.730   8.726  22.071  0.00  0.00    +0.000 C 
BRANCH  27  31
ATOM     31  O   UNL     1       1.175  11.140  21.514  0.00  0.00    +0.000 OA
ATOM     32  H   UNL     1       1.037  11.536  22.390  0.00  0.00    +0.000 HD
ENDBRANCH  27  31
ENDBRANCH   1  29
TORSDOF 5
ENDMDL
MODEL 3
REMARK VINA RESULT:      -8.3      1.710      2.442
REMARK  Name = 
REMARK  6 active torsions:
REMARK  status: ('A' for Active; 'I' for Inactive)
REMARK    1  A    between atoms: C_1  and  C_2
REMARK    2  A    between atoms: C_2  and  O_3
REMARK    3  A    between atoms: C_5  and  C_6
REMARK    4  A    between atoms: C_8  and  C_9
REMARK    5  A    between atoms: C_12  and  O_13
REMARK    6  A    between atoms: O_13  and  C_14
REMARK                            x       y       z     vdW  Elec       q    Type
REMARK                         _______ _______ _______ _____ _____    ______ ____
ROOT
ATOM      1  C   UNL     1      -2.728  11.861  18.934  0.00  0.00    +0.000 A 
ATOM      2  N   UNL     1      -2.044  10.751  18.738  0.00  0.00    +0.000 NA
ATOM      3  C   UNL     1      -0.839  10.929  19.408  0.00  0.00    +0.000 A 
ATOM      4  C   UNL     1      -0.772  12.201  19.954  0.00  0.00    +0.000 A 
ATOM      5  C   UNL     1       0.180  12.998  20.704  0.00  0.00    +0.000 A 
ATOM      6  N   UNL     1       1.458  12.632  21.009  0.00  0.00    +0.000 N 
ATOM      7  N   UNL     1      -0.150  14.196  21.139  0.00  0.00    +0.000 NA
ATOM      8  C   UNL     1      -1.401  14.687  20.867  0.00  0.00    +0.000 A 
ATOM      9  C   UNL     1      -2.321  14.026  20.144  0.00  0.00    +0.000 A 
ATOM     10  N   UNL     1      -2.002  12.766  19.677  0.00  0.00    +0.000 N 
ATOM     11  H   UNL     1       1.942  12.093  20.303  0.00  0.00    +0.000 HD
ATOM     12  H   UNL     1       1.998  13.417  21.358  0.00  0.00    +0.000 HD
ENDROOT
BRANCH   3  13
ATOM     13  C   UNL     1       0.179   9.886  19.470  0.00  0.00    +0.000 A 
ATOM     14  C   UNL     1       0.436   9.190  20.658  0.00  0.00    +0.000 A 
ATOM     15  C   UNL     1       1.354   8.127  20.676  0.00  0.00    +0.000 A 
ATOM     16  C   UNL     1       2.006   7.734  19.503  0.00  0.00    +0.000 A 
ATOM     17  C   UNL     1       1.832   8.489  18.347  0.00  0.00    +0.000 A 
ATOM     18  C   UNL     1       0.945   9.566  18.341  0.00  0.00    +0.000 A 
BRANCH  16  19
ATOM     19  O   UNL     1       2.852   6.651  19.588  0.00  0.00    +0.000 OA
BRANCH  19  20
ATOM     20  C   UNL     1       2.336   5.373  19.513  0.00  0.00    +0.000 A 
ATOM     21  C   UNL     1       2.045   4.750  20.730  0.00  0.00    +0.000 A 
ATOM     22  C   UNL     1       1.498   3.463  20.748  0.00  0.00    +0.000 A 
ATOM     23  C   UNL     1       1.248   2.793  19.554  0.00  0.00    +0.000 A 
ATOM     24  C   UNL     1       1.517   3.418  18.337  0.00  0.00    +0.000 A 
ATOM     25  C   UNL     1       2.035   4.714  18.316  0.00  0.00    +0.000 A 
ENDBRANCH  19  20
ENDBRANCH  16  19
ENDBRANCH   3  13
BRANCH   1  29
ATOM     26  C   UNL     1      -7.009  12.414  17.665  0.00  0.00    +0.000 C 
ATOM     27  C   UNL     1      -6.157  11.347  18.350  0.00  0.00    +0.000 C 
ATOM     28  C   UNL     1      -5.255  11.865  19.505  0.00  0.00    +0.000 C 
ATOM     29  C   UNL     1      -4.147  12.121  18.440  0.00  0.00    +0.000 C 
ATOM     30  C   UNL     1      -4.825  10.983  17.631  0.00  0.00    +0.000 C 
BRANCH  27  31
ATOM     31  O   UNL     1      -7.013  10.232  18.679  0.00  0.00    +0.000 OA
ATOM     32  H   UNL     1      -7.069   9.697  17.870  0.00  0.00    +0.000 HD
ENDBRANCH  27  31
ENDBRANCH   1  29
TORSDOF 5
ENDMDL
MODEL 4
REMARK VINA RESULT:      -8.3      0.536      1.036
REMARK  Name = 
REMARK  6 active torsions:
REMARK  status: ('A' for Active; 'I' for Inactive)
REMARK    1  A    between atoms: C_1  and  C_2
REMARK    2  A    between atoms: C_2  and  O_3
REMARK    3  A    between atoms: C_5  and  C_6
REMARK    4  A    between atoms: C_8  and  C_9
REMARK    5  A    between atoms: C_12  and  O_13
REMARK    6  A    between atoms: O_13  and  C_14
REMARK                            x       y       z     vdW  Elec       q    Type
REMARK                         _______ _______ _______ _____ _____    ______ ____
ROOT
ATOM      1  C   UNL     1      -1.347  12.671  20.552  0.00  0.00    +0.000 A 
ATOM      2  N   UNL     1      -1.096  11.377  20.547  0.00  0.00    +0.000 NA
ATOM      3  C   UNL     1       0.094  11.227  19.844  0.00  0.00    +0.000 A 
ATOM      4  C   UNL     1       0.525  12.451  19.357  0.00  0.00    +0.000 A 
ATOM      5  C   UNL     1       1.617  12.960  18.549  0.00  0.00    +0.000 A 
ATOM      6  N   UNL     1       2.564  12.203  17.925  0.00  0.00    +0.000 N 
ATOM      7  N   UNL     1       1.750  14.254  18.347  0.00  0.00    +0.000 NA
ATOM      8  C   UNL     1       0.838  15.116  18.900  0.00  0.00    +0.000 A 
ATOM      9  C   UNL     1      -0.222  14.718  19.624  0.00  0.00    +0.000 A 
ATOM     10  N   UNL     1      -0.384  13.366  19.853  0.00  0.00    +0.000 N 
ATOM     11  H   UNL     1       2.246  11.318  17.553  0.00  0.00    +0.000 HD
ATOM     12  H   UNL     1       3.101  12.750  17.259  0.00  0.00    +0.000 HD
ENDROOT
BRANCH   3  13
ATOM     13  C   UNL     1       0.736   9.929  19.665  0.00  0.00    +0.000 A 
ATOM     14  C   UNL     1       1.122   9.477  18.397  0.00  0.00    +0.000 A 
ATOM     15  C   UNL     1       1.821   8.267  18.255  0.00  0.00    +0.000 A 
ATOM     16  C   UNL     1       2.162   7.510  19.380  0.00  0.00    +0.000 A 
ATOM     17  C   UNL     1       1.690   7.903  20.630  0.00  0.00    +0.000 A 
ATOM     18  C   UNL     1       0.966   9.088  20.762  0.00  0.00    +0.000 A 
BRANCH  16  19
ATOM     19  O   UNL     1       2.893   6.363  19.167  0.00  0.00    +0.000 OA
BRANCH  19  20
ATOM     20  C   UNL     1       2.272   5.132  19.246  0.00  0.00    +0.000 A 
ATOM     21  C   UNL     1       2.017   4.648  20.532  0.00  0.00    +0.000 A 
ATOM     22  C   UNL     1       1.372   3.420  20.706  0.00  0.00    +0.000 A 
ATOM     23  C   UNL     1       0.987   2.670  19.599  0.00  0.00    +0.000 A 
ATOM     24  C   UNL     1       1.220   3.157  18.314  0.00  0.00    +0.000 A 
ATOM     25  C   UNL     1       1.837   4.397  18.138  0.00  0.00    +0.000 A 
ENDBRANCH  19  20
ENDBRANCH  16  19
ENDBRANCH   3  13
BRANCH   1  29
ATOM     26  C   UNL     1      -4.938  14.366  22.668  0.00  0.00    +0.000 C 
ATOM     27  C   UNL     1      -4.557  13.086  21.927  0.00  0.00    +0.000 C 
ATOM     28  C   UNL     1      -3.200  12.457  22.351  0.00  0.00    +0.000 C 
ATOM     29  C   UNL     1      -2.523  13.338  21.258  0.00  0.00    +0.000 C 
ATOM     30  C   UNL     1      -3.894  13.286  20.532  0.00  0.00    +0.000 C 
BRANCH  27  31
ATOM     31  O   UNL     1      -5.693  12.196  21.954  0.00  0.00    +0.000 OA
ATOM     32  H   UNL     1      -5.884  12.043  22.895  0.00  0.00    +0.000 HD
ENDBRANCH  27  31
ENDBRANCH   1  29
TORSDOF 5
ENDMDL
MODEL 5
REMARK VINA RESULT:      -8.2      1.415      1.603
REMARK  Name = 
REMARK  6 active torsions:
REMARK  status: ('A' for Active; 'I' for Inactive)
REMARK    1  A    between atoms: C_1  and  C_2
REMARK    2  A    between atoms: C_2  and  O_3
REMARK    3  A    between atoms: C_5  and  C_6
REMARK    4  A    between atoms: C_8  and  C_9
REMARK    5  A    between atoms: C_12  and  O_13
REMARK    6  A    between atoms: O_13  and  C_14
REMARK                            x       y       z     vdW  Elec       q    Type
REMARK                         _______ _______ _______ _____ _____    ______ ____
ROOT
ATOM      1  C   UNL     1      -0.444  12.187  21.267  0.00  0.00    +0.000 A 
ATOM      2  N   UNL     1      -0.251  10.900  21.057  0.00  0.00    +0.000 NA
ATOM      3  C   UNL     1       0.696  10.822  20.043  0.00  0.00    +0.000 A 
ATOM      4  C   UNL     1       1.023  12.090  19.588  0.00  0.00    +0.000 A 
ATOM      5  C   UNL     1       1.872  12.679  18.570  0.00  0.00    +0.000 A 
ATOM      6  N   UNL     1       2.585  11.990  17.633  0.00  0.00    +0.000 N 
ATOM      7  N   UNL     1       1.992  13.986  18.477  0.00  0.00    +0.000 NA
ATOM      8  C   UNL     1       1.297  14.787  19.346  0.00  0.00    +0.000 A 
ATOM      9  C   UNL     1       0.460  14.317  20.287  0.00  0.00    +0.000 A 
ATOM     10  N   UNL     1       0.317  12.949  20.408  0.00  0.00    +0.000 N 
ATOM     11  H   UNL     1       2.145  11.153  17.272  0.00  0.00    +0.000 HD
ATOM     12  H   UNL     1       2.940  12.605  16.907  0.00  0.00    +0.000 HD
ENDROOT
BRANCH   3  13
ATOM     13  C   UNL     1       1.217   9.548  19.559  0.00  0.00    +0.000 A 
ATOM     14  C   UNL     1       1.429   9.320  18.194  0.00  0.00    +0.000 A 
ATOM     15  C   UNL     1       2.017   8.122  17.755  0.00  0.00    +0.000 A 
ATOM     16  C   UNL     1       2.421   7.152  18.677  0.00  0.00    +0.000 A 
ATOM     17  C   UNL     1       2.118   7.330  20.024  0.00  0.00    +0.000 A 
ATOM     18  C   UNL     1       1.503   8.507  20.452  0.00  0.00    +0.000 A 
BRANCH  16  19
ATOM     19  O   UNL     1       3.038   6.028  18.176  0.00  0.00    +0.000 OA
BRANCH  19  20
ATOM     20  C   UNL     1       2.679   4.782  18.650  0.00  0.00    +0.000 A 
ATOM     21  C   UNL     1       1.535   4.210  18.086  0.00  0.00    +0.000 A 
ATOM     22  C   UNL     1       1.110   2.941  18.491  0.00  0.00    +0.000 A 
ATOM     23  C   UNL     1       1.821   2.244  19.464  0.00  0.00    +0.000 A 
ATOM     24  C   UNL     1       2.974   2.801  20.015  0.00  0.00    +0.000 A 
ATOM     25  C   UNL     1       3.416   4.055  19.590  0.00  0.00    +0.000 A 
ENDBRANCH  19  20
ENDBRANCH  16  19
ENDBRANCH   3  13
BRANCH   1  29
ATOM     26  C   UNL     1      -3.330  13.704  24.368  0.00  0.00    +0.000 C 
ATOM     27  C   UNL     1      -3.348  12.763  23.165  0.00  0.00    +0.000 C 
ATOM     28  C   UNL     1      -2.192  11.724  23.123  0.00  0.00    +0.000 C 
ATOM     29  C   UNL     1      -1.358  12.779  22.335  0.00  0.00    +0.000 C 
ATOM     30  C   UNL     1      -2.727  13.331  21.854  0.00  0.00    +0.000 C 
BRANCH  27  31
ATOM     31  O   UNL     1      -4.679  12.220  23.039  0.00  0.00    +0.000 OA
ATOM     32  H   UNL     1      -4.716  11.816  22.156  0.00  0.00    +0.000 HD
ENDBRANCH  27  31
ENDBRANCH   1  29
TORSDOF 5
ENDMDL
MODEL 6
REMARK VINA RESULT:      -8.1      2.144      2.772
REMARK  Name = 
REMARK  6 active torsions:
REMARK  status: ('A' for Active; 'I' for Inactive)
REMARK    1  A    between atoms: C_1  and  C_2
REMARK    2  A    between atoms: C_2  and  O_3
REMARK    3  A    between atoms: C_5  and  C_6
REMARK    4  A    between atoms: C_8  and  C_9
REMARK    5  A    between atoms: C_12  and  O_13
REMARK    6  A    between atoms: O_13  and  C_14
REMARK                            x       y       z     vdW  Elec       q    Type
REMARK                         _______ _______ _______ _____ _____    ______ ____
ROOT
ATOM      1  C   UNL     1      -0.527  12.317  21.216  0.00  0.00    +0.000 A 
ATOM      2  N   UNL     1      -0.330  11.032  20.992  0.00  0.00    +0.000 NA
ATOM      3  C   UNL     1       0.636  10.968  19.994  0.00  0.00    +0.000 A 
ATOM      4  C   UNL     1       0.969  12.243  19.562  0.00  0.00    +0.000 A 
ATOM      5  C   UNL     1       1.836  12.845  18.567  0.00  0.00    +0.000 A 
ATOM      6  N   UNL     1       2.566  12.169  17.634  0.00  0.00    +0.000 N 
ATOM      7  N   UNL     1       1.956  14.154  18.493  0.00  0.00    +0.000 NA
ATOM      8  C   UNL     1       1.246  14.943  19.360  0.00  0.00    +0.000 A 
ATOM      9  C   UNL     1       0.393  14.460  20.280  0.00  0.00    +0.000 A 
ATOM     10  N   UNL     1       0.248  13.090  20.381  0.00  0.00    +0.000 N 
ATOM     11  H   UNL     1       2.134  11.337  17.254  0.00  0.00    +0.000 HD
ATOM     12  H   UNL     1       2.934  12.794  16.923  0.00  0.00    +0.000 HD
ENDROOT
BRANCH   3  13
ATOM     13  C   UNL     1       1.166   9.701  19.503  0.00  0.00    +0.000 A 
ATOM     14  C   UNL     1       1.390   9.487  18.137  0.00  0.00    +0.000 A 
ATOM     15  C   UNL     1       1.987   8.296  17.692  0.00  0.00    +0.000 A 
ATOM     16  C   UNL     1       2.388   7.319  18.609  0.00  0.00    +0.000 A 
ATOM     17  C   UNL     1       2.073   7.483  19.955  0.00  0.00    +0.000 A 
ATOM     18  C   UNL     1       1.449   8.653  20.389  0.00  0.00    +0.000 A 
BRANCH  16  19
ATOM     19  O   UNL     1       3.014   6.202  18.102  0.00  0.00    +0.000 OA
BRANCH  19  20
ATOM     20  C   UNL     1       4.393   6.137  18.090  0.00  0.00    +0.000 A 
ATOM     21  C   UNL     1       4.986   5.375  19.100  0.00  0.00    +0.000 A 
ATOM     22  C   UNL     1       6.377   5.237  19.152  0.00  0.00    +0.000 A 
ATOM     23  C   UNL     1       7.177   5.863  18.201  0.00  0.00    +0.000 A 
ATOM     24  C   UNL     1       6.589   6.606  17.179  0.00  0.00    +0.000 A 
ATOM     25  C   UNL     1       5.200   6.721  17.108  0.00  0.00    +0.000 A 
ENDBRANCH  19  20
ENDBRANCH  16  19
ENDBRANCH   3  13
BRANCH   1  29
ATOM     26  C   UNL     1      -3.461  13.782  24.296  0.00  0.00    +0.000 C 
ATOM     27  C   UNL     1      -3.446  12.816  23.112  0.00  0.00    +0.000 C 
ATOM     28  C   UNL     1      -2.250  11.823  23.088  0.00  0.00    +0.000 C 
ATOM     29  C   UNL     1      -1.461  12.894  22.275  0.00  0.00    +0.000 C 
ATOM     30  C   UNL     1      -2.852  13.381  21.789  0.00  0.00    +0.000 C 
BRANCH  27  31
ATOM     31  O   UNL     1      -4.755  12.219  23.003  0.00  0.00    +0.000 OA
ATOM     32  H   UNL     1      -5.282  12.836  22.469  0.00  0.00    +0.000 HD
ENDBRANCH  27  31
ENDBRANCH   1  29
TORSDOF 5
ENDMDL
MODEL 7
REMARK VINA RESULT:      -8.0      2.130      2.620
REMARK  Name = 
REMARK  6 active torsions:
REMARK  status: ('A' for Active; 'I' for Inactive)
REMARK    1  A    between atoms: C_1  and  C_2
REMARK    2  A    between atoms: C_2  and  O_3
REMARK    3  A    between atoms: C_5  and  C_6
REMARK    4  A    between atoms: C_8  and  C_9
REMARK    5  A    between atoms: C_12  and  O_13
REMARK    6  A    between atoms: O_13  and  C_14
REMARK                            x       y       z     vdW  Elec       q    Type
REMARK                         _______ _______ _______ _____ _____    ______ ____
ROOT
ATOM      1  C   UNL     1      -0.636  12.522  20.807  0.00  0.00    +0.000 A 
ATOM      2  N   UNL     1      -0.480  11.223  20.635  0.00  0.00    +0.000 NA
ATOM      3  C   UNL     1       0.584  11.087  19.750  0.00  0.00    +0.000 A 
ATOM      4  C   UNL     1       1.025  12.332  19.328  0.00  0.00    +0.000 A 
ATOM      5  C   UNL     1       2.023  12.865  18.421  0.00  0.00    +0.000 A 
ATOM      6  N   UNL     1       2.816  12.130  17.589  0.00  0.00    +0.000 N 
ATOM      7  N   UNL     1       2.216  14.164  18.332  0.00  0.00    +0.000 NA
ATOM      8  C   UNL     1       1.456  15.009  19.098  0.00  0.00    +0.000 A 
ATOM      9  C   UNL     1       0.485  14.593  19.930  0.00  0.00    +0.000 A 
ATOM     10  N   UNL     1       0.263  13.234  20.044  0.00  0.00    +0.000 N 
ATOM     11  H   UNL     1       2.386  11.309  17.183  0.00  0.00    +0.000 HD
ATOM     12  H   UNL     1       3.288  12.716  16.909  0.00  0.00    +0.000 HD
ENDROOT
BRANCH   3  13
ATOM     13  C   UNL     1       1.100   9.783  19.348  0.00  0.00    +0.000 A 
ATOM     14  C   UNL     1       1.274   9.454  17.998  0.00  0.00    +0.000 A 
ATOM     15  C   UNL     1       1.859   8.230  17.633  0.00  0.00    +0.000 A 
ATOM     16  C   UNL     1       2.297   7.335  18.613  0.00  0.00    +0.000 A 
ATOM     17  C   UNL     1       2.032   7.612  19.952  0.00  0.00    +0.000 A 
ATOM     18  C   UNL     1       1.420   8.814  20.308  0.00  0.00    +0.000 A 
BRANCH  16  19
ATOM     19  O   UNL     1       2.908   6.179  18.180  0.00  0.00    +0.000 OA
BRANCH  19  20
ATOM     20  C   UNL     1       4.284   6.076  18.221  0.00  0.00    +0.000 A 
ATOM     21  C   UNL     1       4.986   6.769  17.231  0.00  0.00    +0.000 A 
ATOM     22  C   UNL     1       6.384   6.739  17.208  0.00  0.00    +0.000 A 
ATOM     23  C   UNL     1       7.083   6.013  18.169  0.00  0.00    +0.000 A 
ATOM     24  C   UNL     1       6.388   5.338  19.171  0.00  0.00    +0.000 A 
ATOM     25  C   UNL     1       4.993   5.391  19.212  0.00  0.00    +0.000 A 
ENDBRANCH  19  20
ENDBRANCH  16  19
ENDBRANCH   3  13
BRANCH   1  29
ATOM     26  C   UNL     1      -3.625  14.183  23.731  0.00  0.00    +0.000 C 
ATOM     27  C   UNL     1      -3.110  12.814  23.288  0.00  0.00    +0.000 C 
ATOM     28  C   UNL     1      -1.563  12.682  23.221  0.00  0.00    +0.000 C 
ATOM     29  C   UNL     1      -1.649  13.171  21.744  0.00  0.00    +0.000 C 
ATOM     30  C   UNL     1      -3.080  12.570  21.751  0.00  0.00    +0.000 C 
BRANCH  27  31
ATOM     31  O   UNL     1      -3.789  11.806  24.066  0.00  0.00    +0.000 OA
ATOM     32  H   UNL     1      -4.704  12.119  24.161  0.00  0.00    +0.000 HD
ENDBRANCH  27  31
ENDBRANCH   1  29
TORSDOF 5
ENDMDL
MODEL 8
REMARK VINA RESULT:      -7.9      4.105     10.153
REMARK  Name = 
REMARK  6 active torsions:
REMARK  status: ('A' for Active; 'I' for Inactive)
REMARK    1  A    between atoms: C_1  and  C_2
REMARK    2  A    between atoms: C_2  and  O_3
REMARK    3  A    between atoms: C_5  and  C_6
REMARK    4  A    between atoms: C_8  and  C_9
REMARK    5  A    between atoms: C_12  and  O_13
REMARK    6  A    between atoms: O_13  and  C_14
REMARK                            x       y       z     vdW  Elec       q    Type
REMARK                         _______ _______ _______ _____ _____    ______ ____
ROOT
ATOM      1  C   UNL     1       3.815   4.851  17.062  0.00  0.00    +0.000 A 
ATOM      2  N   UNL     1       3.501   6.080  17.423  0.00  0.00    +0.000 NA
ATOM      3  C   UNL     1       2.662   5.945  18.523  0.00  0.00    +0.000 A 
ATOM      4  C   UNL     1       2.411   4.606  18.779  0.00  0.00    +0.000 A 
ATOM      5  C   UNL     1       1.624   3.821  19.711  0.00  0.00    +0.000 A 
ATOM      6  N   UNL     1       0.754   4.321  20.635  0.00  0.00    +0.000 N 
ATOM      7  N   UNL     1       1.697   2.507  19.703  0.00  0.00    +0.000 NA
ATOM      8  C   UNL     1       2.517   1.886  18.796  0.00  0.00    +0.000 A 
ATOM      9  C   UNL     1       3.243   2.543  17.876  0.00  0.00    +0.000 A 
ATOM     10  N   UNL     1       3.188   3.923  17.863  0.00  0.00    +0.000 N 
ATOM     11  H   UNL     1       0.233   5.141  20.351  0.00  0.00    +0.000 HD
ATOM     12  H   UNL     1       0.171   3.591  21.033  0.00  0.00    +0.000 HD
ENDROOT
BRANCH   3  13
ATOM     13  C   UNL     1       2.138   7.097  19.249  0.00  0.00    +0.000 A 
ATOM     14  C   UNL     1       1.826   8.293  18.589  0.00  0.00    +0.000 A 
ATOM     15  C   UNL     1       1.237   9.359  19.288  0.00  0.00    +0.000 A 
ATOM     16  C   UNL     1       0.931   9.232  20.646  0.00  0.00    +0.000 A 
ATOM     17  C   UNL     1       1.333   8.086  21.327  0.00  0.00    +0.000 A 
ATOM     18  C   UNL     1       1.950   7.043  20.636  0.00  0.00    +0.000 A 
BRANCH  16  19
ATOM     19  O   UNL     1       0.306  10.299  21.251  0.00  0.00    +0.000 OA
BRANCH  19  20
ATOM     20  C   UNL     1       0.093  11.461  20.538  0.00  0.00    +0.000 A 
ATOM     21  C   UNL     1       1.121  12.407  20.573  0.00  0.00    +0.000 A 
ATOM     22  C   UNL     1       1.000  13.605  19.861  0.00  0.00    +0.000 A 
ATOM     23  C   UNL     1      -0.148  13.863  19.118  0.00  0.00    +0.000 A 
ATOM     24  C   UNL     1      -1.168  12.914  19.063  0.00  0.00    +0.000 A 
ATOM     25  C   UNL     1      -1.036  11.705  19.749  0.00  0.00    +0.000 A 
ENDBRANCH  19  20
ENDBRANCH  16  19
ENDBRANCH   3  13
BRANCH   1  29
ATOM     26  C   UNL     1       6.845   3.906  13.872  0.00  0.00    +0.000 C 
ATOM     27  C   UNL     1       6.670   4.911  15.009  0.00  0.00    +0.000 C 
ATOM     28  C   UNL     1       6.251   4.296  16.374  0.00  0.00    +0.000 C 
ATOM     29  C   UNL     1       4.769   4.481  15.930  0.00  0.00    +0.000 C 
ATOM     30  C   UNL     1       5.299   5.647  15.054  0.00  0.00    +0.000 C 
BRANCH  27  31
ATOM     31  O   UNL     1       7.835   5.761  15.040  0.00  0.00    +0.000 OA
ATOM     32  H   UNL     1       7.597   6.513  15.607  0.00  0.00    +0.000 HD
ENDBRANCH  27  31
ENDBRANCH   1  29
TORSDOF 5
ENDMDL
MODEL 9
REMARK VINA RESULT:      -7.9      4.183     10.214
REMARK  Name = 
REMARK  6 active torsions:
REMARK  status: ('A' for Active; 'I' for Inactive)
REMARK    1  A    between atoms: C_1  and  C_2
REMARK    2  A    between atoms: C_2  and  O_3
REMARK    3  A    between atoms: C_5  and  C_6
REMARK    4  A    between atoms: C_8  and  C_9
REMARK    5  A    between atoms: C_12  and  O_13
REMARK    6  A    between atoms: O_13  and  C_14
REMARK                            x       y       z     vdW  Elec       q    Type
REMARK                         _______ _______ _______ _____ _____    ______ ____
ROOT
ATOM      1  C   UNL     1       4.096   4.986  17.072  0.00  0.00    +0.000 A 
ATOM      2  N   UNL     1       3.569   6.188  17.205  0.00  0.00    +0.000 NA
ATOM      3  C   UNL     1       2.957   6.194  18.453  0.00  0.00    +0.000 A 
ATOM      4  C   UNL     1       3.057   4.945  19.047  0.00  0.00    +0.000 A 
ATOM      5  C   UNL     1       2.617   4.300  20.269  0.00  0.00    +0.000 A 
ATOM      6  N   UNL     1       1.805   4.856  21.213  0.00  0.00    +0.000 N 
ATOM      7  N   UNL     1       2.984   3.065  20.540  0.00  0.00    +0.000 NA
ATOM      8  C   UNL     1       3.778   2.391  19.650  0.00  0.00    +0.000 A 
ATOM      9  C   UNL     1       4.191   2.906  18.479  0.00  0.00    +0.000 A 
ATOM     10  N   UNL     1       3.823   4.201  18.170  0.00  0.00    +0.000 N 
ATOM     11  H   UNL     1       1.075   5.463  20.864  0.00  0.00    +0.000 HD
ATOM     12  H   UNL     1       1.469   4.160  21.873  0.00  0.00    +0.000 HD
ENDROOT
BRANCH   3  13
ATOM     13  C   UNL     1       2.300   7.379  18.993  0.00  0.00    +0.000 A 
ATOM     14  C   UNL     1       1.921   8.442  18.164  0.00  0.00    +0.000 A 
ATOM     15  C   UNL     1       1.207   9.533  18.686  0.00  0.00    +0.000 A 
ATOM     16  C   UNL     1       0.844   9.561  20.037  0.00  0.00    +0.000 A 
ATOM     17  C   UNL     1       1.308   8.558  20.883  0.00  0.00    +0.000 A 
ATOM     18  C   UNL     1       2.046   7.493  20.366  0.00  0.00    +0.000 A 
BRANCH  16  19
ATOM     19  O   UNL     1       0.100  10.637  20.465  0.00  0.00    +0.000 OA
BRANCH  19  20
ATOM     20  C   UNL     1       0.418  11.906  20.025  0.00  0.00    +0.000 A 
ATOM     21  C   UNL     1      -0.523  12.529  19.200  0.00  0.00    +0.000 A 
ATOM     22  C   UNL     1      -0.293  13.825  18.725  0.00  0.00    +0.000 A 
ATOM     23  C   UNL     1       0.876  14.497  19.067  0.00  0.00    +0.000 A 
ATOM     24  C   UNL     1       1.807  13.888  19.907  0.00  0.00    +0.000 A 
ATOM     25  C   UNL     1       1.567  12.607  20.406  0.00  0.00    +0.000 A 
ENDBRANCH  19  20
ENDBRANCH  16  19
ENDBRANCH   3  13
BRANCH   1  29
ATOM     26  C   UNL     1       6.784   3.747  13.683  0.00  0.00    +0.000 C 
ATOM     27  C   UNL     1       6.738   4.834  14.756  0.00  0.00    +0.000 C 
ATOM     28  C   UNL     1       6.444   4.327  16.196  0.00  0.00    +0.000 C 
ATOM     29  C   UNL     1       4.928   4.515  15.884  0.00  0.00    +0.000 C 
ATOM     30  C   UNL     1       5.390   5.604  14.879  0.00  0.00    +0.000 C 
BRANCH  27  31
ATOM     31  O   UNL     1       7.915   5.657  14.612  0.00  0.00    +0.000 OA
ATOM     32  H   UNL     1       7.816   6.110  13.758  0.00  0.00    +0.000 HD
ENDBRANCH  27  31
ENDBRANCH   1  29
TORSDOF 5
ENDMDL
