MODEL 1
REMARK VINA RESULT:      -8.4      0.000      0.000
REMARK  Name = 
REMARK  10 active torsions:
REMARK  status: ('A' for Active; 'I' for Inactive)
REMARK    1  A    between atoms: C_1  and  C_2
REMARK    2  A    between atoms: C_2  and  C_3
REMARK    3  A    between atoms: C_2  and  O_4
REMARK    4  A    between atoms: C_2  and  C_5
REMARK    5  A    between atoms: C_8  and  C_9
REMARK    6  A    between atoms: C_17  and  N_18
REMARK    7  A    between atoms: N_18  and  C_19
REMARK    8  A    between atoms: C_19  and  C_20
REMARK    9  A    between atoms: C_19  and  C_21
REMARK   10  A    between atoms: C_19  and  C_22
REMARK                            x       y       z     vdW  Elec       q    Type
REMARK                         _______ _______ _______ _____ _____    ______ ____
ROOT
ATOM      1  C   UNL     1       2.105   6.994  19.401  0.00  0.00    +0.000 A 
ATOM      2  C   UNL     1       1.635   6.404  20.579  0.00  0.00    +0.000 A 
ATOM      3  C   UNL     1       1.806   5.044  20.813  0.00  0.00    +0.000 A 
ATOM      4  C   UNL     1       2.434   4.222  19.899  0.00  0.00    +0.000 A 
ATOM      5  N   UNL     1       2.492   2.934  20.217  0.00  0.00    +0.000 NA
ATOM      6  C   UNL     1       3.093   2.115  19.340  0.00  0.00    +0.000 A 
ATOM      7  C   UNL     1       3.658   2.508  18.131  0.00  0.00    +0.000 A 
ATOM      8 CL   UNL     1       4.435   1.211  17.299  0.00  0.00    +0.000 Cl
ATOM      9  C   UNL     1       3.582   3.867  17.747  0.00  0.00    +0.000 A 
ATOM     10  C   UNL     1       2.954   4.759  18.693  0.00  0.00    +0.000 A 
ATOM     11  C   UNL     1       2.781   6.157  18.489  0.00  0.00    +0.000 A 
ENDROOT
BRANCH   1  15
ATOM     12  C   UNL     1       1.526  11.114  18.704  0.00  0.00    +0.000 A 
ATOM     13  N   UNL     1       2.146  10.391  17.750  0.00  0.00    +0.000 NA
ATOM     14  C   UNL     1       2.279   9.067  17.983  0.00  0.00    +0.000 A 
ATOM     15  C   UNL     1       1.826   8.409  19.114  0.00  0.00    +0.000 A 
ATOM     16  C   UNL     1       1.157   9.244  19.991  0.00  0.00    +0.000 A 
ATOM     17  N   UNL     1       0.981  10.570  19.812  0.00  0.00    +0.000 NA
BRANCH  12  19
ATOM     18  C   UNL     1       2.071  13.315  19.758  0.00  0.00    +0.000 C 
ATOM     19  C   UNL     1       1.440  12.635  18.540  0.00  0.00    +0.000 C 
ATOM     20  C   UNL     1      -0.003  13.122  18.353  0.00  0.00    +0.000 C 
BRANCH  19  21
ATOM     21  O   UNL     1       2.168  13.037  17.364  0.00  0.00    +0.000 OA
ATOM     22  H   UNL     1       2.219  14.006  17.368  0.00  0.00    +0.000 HD
ENDBRANCH  19  21
ENDBRANCH  12  19
ENDBRANCH   1  15
BRANCH   9  23
ATOM     23  N   UNL     1       4.095   4.463  16.574  0.00  0.00    +0.000 N 
ATOM     24  H   UNL     1       3.362   4.964  16.070  0.00  0.00    +0.000 HD
BRANCH  23  25
ATOM     25  C   UNL     1       5.422   5.081  16.331  0.00  0.00    +0.000 C 
ATOM     26  C   UNL     1       5.257   6.617  16.323  0.00  0.00    +0.000 C 
ATOM     27  C   UNL     1       6.485   4.538  17.307  0.00  0.00    +0.000 C 
BRANCH  25  28
ATOM     28  C   UNL     1       5.956   4.661  14.923  0.00  0.00    +0.000 A 
ATOM     29  C   UNL     1       5.196   3.828  14.069  0.00  0.00    +0.000 A 
ATOM     30  C   UNL     1       5.635   3.496  12.784  0.00  0.00    +0.000 A 
ATOM     31  C   UNL     1       6.836   4.009  12.310  0.00  0.00    +0.000 A 
ATOM     32  C   UNL     1       7.591   4.856  13.117  0.00  0.00    +0.000 A 
ATOM     33  C   UNL     1       7.153   5.183  14.406  0.00  0.00    +0.000 A 
ENDBRANCH  25  28
ENDBRANCH  23  25
ENDBRANCH   9  23
TORSDOF 6
ENDMDL
MODEL 2
REMARK VINA RESULT:      -8.1      4.013      9.477
REMARK  Name = 
REMARK  10 active torsions:
REMARK  status: ('A' for Active; 'I' for Inactive)
REMARK    1  A    between atoms: C_1  and  C_2
REMARK    2  A    between atoms: C_2  and  C_3
REMARK    3  A    between atoms: C_2  and  O_4
REMARK    4  A    between atoms: C_2  and  C_5
REMARK    5  A    between atoms: C_8  and  C_9
REMARK    6  A    between atoms: C_17  and  N_18
REMARK    7  A    between atoms: N_18  and  C_19
REMARK    8  A    between atoms: C_19  and  C_20
REMARK    9  A    between atoms: C_19  and  C_21
REMARK   10  A    between atoms: C_19  and  C_22
REMARK                            x       y       z     vdW  Elec       q    Type
REMARK                         _______ _______ _______ _____ _____    ______ ____
ROOT
ATOM      1  C   UNL     1       1.075   8.759  20.454  0.00  0.00    +0.000 A 
ATOM      2  C   UNL     1       0.548   8.246  21.643  0.00  0.00    +0.000 A 
ATOM      3  C   UNL     1      -0.156   9.061  22.522  0.00  0.00    +0.000 A 
ATOM      4  C   UNL     1      -0.358  10.402  22.266  0.00  0.00    +0.000 A 
ATOM      5  N   UNL     1      -1.004  11.083  23.205  0.00  0.00    +0.000 NA
ATOM      6  C   UNL     1      -1.207  12.390  22.981  0.00  0.00    +0.000 A 
ATOM      7  C   UNL     1      -0.797  13.083  21.846  0.00  0.00    +0.000 A 
ATOM      8 CL   UNL     1      -1.313  14.731  21.842  0.00  0.00    +0.000 Cl
ATOM      9  C   UNL     1      -0.077  12.394  20.843  0.00  0.00    +0.000 A 
ATOM     10  C   UNL     1       0.130  10.983  21.068  0.00  0.00    +0.000 A 
ATOM     11  C   UNL     1       0.831  10.120  20.179  0.00  0.00    +0.000 A 
ENDROOT
BRANCH   1  15
ATOM     12  C   UNL     1       3.676   6.452  18.064  0.00  0.00    +0.000 A 
ATOM     13  N   UNL     1       3.246   5.922  19.226  0.00  0.00    +0.000 NA
ATOM     14  C   UNL     1       2.381   6.667  19.949  0.00  0.00    +0.000 A 
ATOM     15  C   UNL     1       1.909   7.916  19.583  0.00  0.00    +0.000 A 
ATOM     16  C   UNL     1       2.374   8.327  18.348  0.00  0.00    +0.000 A 
ATOM     17  N   UNL     1       3.230   7.627  17.573  0.00  0.00    +0.000 NA
BRANCH  12  19
ATOM     18  C   UNL     1       5.089   6.505  16.002  0.00  0.00    +0.000 C 
ATOM     19  C   UNL     1       4.737   5.698  17.255  0.00  0.00    +0.000 C 
ATOM     20  C   UNL     1       4.278   4.287  16.863  0.00  0.00    +0.000 C 
BRANCH  19  21
ATOM     21  O   UNL     1       5.929   5.540  18.048  0.00  0.00    +0.000 OA
ATOM     22  H   UNL     1       6.516   6.286  17.845  0.00  0.00    +0.000 HD
ENDBRANCH  19  21
ENDBRANCH  12  19
ENDBRANCH   1  15
BRANCH   9  23
ATOM     23  N   UNL     1       0.417  12.911  19.625  0.00  0.00    +0.000 N 
ATOM     24  H   UNL     1      -0.342  13.282  19.053  0.00  0.00    +0.000 HD
BRANCH  23  25
ATOM     25  C   UNL     1       1.687  13.630  19.351  0.00  0.00    +0.000 C 
ATOM     26  C   UNL     1       2.431  13.843  20.689  0.00  0.00    +0.000 C 
ATOM     27  C   UNL     1       2.504  12.931  18.247  0.00  0.00    +0.000 C 
BRANCH  25  28
ATOM     28  C   UNL     1       1.382  15.042  18.755  0.00  0.00    +0.000 A 
ATOM     29  C   UNL     1       0.071  15.573  18.762  0.00  0.00    +0.000 A 
ATOM     30  C   UNL     1      -0.204  16.860  18.289  0.00  0.00    +0.000 A 
ATOM     31  C   UNL     1       0.831  17.659  17.818  0.00  0.00    +0.000 A 
ATOM     32  C   UNL     1       2.136  17.174  17.828  0.00  0.00    +0.000 A 
ATOM     33  C   UNL     1       2.409  15.883  18.296  0.00  0.00    +0.000 A 
ENDBRANCH  25  28
ENDBRANCH  23  25
ENDBRANCH   9  23
TORSDOF 6
ENDMDL
MODEL 3
REMARK VINA RESULT:      -8.1      0.718      1.130
REMARK  Name = 
REMARK  10 active torsions:
REMARK  status: ('A' for Active; 'I' for Inactive)
REMARK    1  A    between atoms: C_1  and  C_2
REMARK    2  A    between atoms: C_2  and  C_3
REMARK    3  A    between atoms: C_2  and  O_4
REMARK    4  A    between atoms: C_2  and  C_5
REMARK    5  A    between atoms: C_8  and  C_9
REMARK    6  A    between atoms: C_17  and  N_18
REMARK    7  A    between atoms: N_18  and  C_19
REMARK    8  A    between atoms: C_19  and  C_20
REMARK    9  A    between atoms: C_19  and  C_21
REMARK   10  A    between atoms: C_19  and  C_22
REMARK                            x       y       z     vdW  Elec       q    Type
REMARK                         _______ _______ _______ _____ _____    ______ ____
ROOT
ATOM      1  C   UNL     1       2.148   6.740  19.617  0.00  0.00    +0.000 A 
ATOM      2  C   UNL     1       1.702   6.030  20.736  0.00  0.00    +0.000 A 
ATOM      3  C   UNL     1       1.906   4.658  20.838  0.00  0.00    +0.000 A 
ATOM      4  C   UNL     1       2.544   3.943  19.846  0.00  0.00    +0.000 A 
ATOM      5  N   UNL     1       2.634   2.632  20.040  0.00  0.00    +0.000 NA
ATOM      6  C   UNL     1       3.246   1.914  19.085  0.00  0.00    +0.000 A 
ATOM      7  C   UNL     1       3.793   2.434  17.915  0.00  0.00    +0.000 A 
ATOM      8 CL   UNL     1       4.592   1.241  16.958  0.00  0.00    +0.000 Cl
ATOM      9  C   UNL     1       3.683   3.822  17.663  0.00  0.00    +0.000 A 
ATOM     10  C   UNL     1       3.042   4.604  18.694  0.00  0.00    +0.000 A 
ATOM     11  C   UNL     1       2.836   6.011  18.626  0.00  0.00    +0.000 A 
ENDROOT
BRANCH   1  15
ATOM     12  C   UNL     1       1.017  10.771  19.096  0.00  0.00    +0.000 A 
ATOM     13  N   UNL     1       0.796  10.201  20.297  0.00  0.00    +0.000 NA
ATOM     14  C   UNL     1       1.207   8.924  20.447  0.00  0.00    +0.000 A 
ATOM     15  C   UNL     1       1.835   8.170  19.469  0.00  0.00    +0.000 A 
ATOM     16  C   UNL     1       2.058   8.880  18.303  0.00  0.00    +0.000 A 
ATOM     17  N   UNL     1       1.682  10.159  18.094  0.00  0.00    +0.000 NA
BRANCH  12  19
ATOM     18  C   UNL     1       1.626  13.089  18.381  0.00  0.00    +0.000 C 
ATOM     19  C   UNL     1       0.478  12.182  18.837  0.00  0.00    +0.000 C 
ATOM     20  C   UNL     1      -0.209  12.781  20.071  0.00  0.00    +0.000 C 
BRANCH  19  21
ATOM     21  O   UNL     1      -0.512  12.138  17.791  0.00  0.00    +0.000 OA
ATOM     22  H   UNL     1      -0.319  12.861  17.175  0.00  0.00    +0.000 HD
ENDBRANCH  19  21
ENDBRANCH  12  19
ENDBRANCH   1  15
BRANCH   9  23
ATOM     23  N   UNL     1       4.172   4.538  16.549  0.00  0.00    +0.000 N 
ATOM     24  H   UNL     1       3.446   5.137  16.155  0.00  0.00    +0.000 HD
BRANCH  23  25
ATOM     25  C   UNL     1       5.520   5.114  16.315  0.00  0.00    +0.000 C 
ATOM     26  C   UNL     1       5.404   6.655  16.316  0.00  0.00    +0.000 C 
ATOM     27  C   UNL     1       6.560   4.531  17.291  0.00  0.00    +0.000 C 
BRANCH  25  28
ATOM     28  C   UNL     1       6.044   4.686  14.906  0.00  0.00    +0.000 A 
ATOM     29  C   UNL     1       5.298   3.813  14.080  0.00  0.00    +0.000 A 
ATOM     30  C   UNL     1       5.727   3.473  12.794  0.00  0.00    +0.000 A 
ATOM     31  C   UNL     1       6.904   4.015  12.291  0.00  0.00    +0.000 A 
ATOM     32  C   UNL     1       7.643   4.900  13.071  0.00  0.00    +0.000 A 
ATOM     33  C   UNL     1       7.216   5.237  14.360  0.00  0.00    +0.000 A 
ENDBRANCH  25  28
ENDBRANCH  23  25
ENDBRANCH   9  23
TORSDOF 6
ENDMDL
MODEL 4
REMARK VINA RESULT:      -8.0      4.131      9.488
REMARK  Name = 
REMARK  10 active torsions:
REMARK  status: ('A' for Active; 'I' for Inactive)
REMARK    1  A    between atoms: C_1  and  C_2
REMARK    2  A    between atoms: C_2  and  C_3
REMARK    3  A    between atoms: C_2  and  O_4
REMARK    4  A    between atoms: C_2  and  C_5
REMARK    5  A    between atoms: C_8  and  C_9
REMARK    6  A    between atoms: C_17  and  N_18
REMARK    7  A    between atoms: N_18  and  C_19
REMARK    8  A    between atoms: C_19  and  C_20
REMARK    9  A    between atoms: C_19  and  C_21
REMARK   10  A    between atoms: C_19  and  C_22
REMARK                            x       y       z     vdW  Elec       q    Type
REMARK                         _______ _______ _______ _____ _____    ______ ____
ROOT
ATOM      1  C   UNL     1       0.903   9.019  20.595  0.00  0.00    +0.000 A 
ATOM      2  C   UNL     1       0.316   8.572  21.783  0.00  0.00    +0.000 A 
ATOM      3  C   UNL     1      -0.354   9.453  22.623  0.00  0.00    +0.000 A 
ATOM      4  C   UNL     1      -0.463  10.797  22.329  0.00  0.00    +0.000 A 
ATOM      5  N   UNL     1      -1.086  11.543  23.234  0.00  0.00    +0.000 NA
ATOM      6  C   UNL     1      -1.199  12.854  22.972  0.00  0.00    +0.000 A 
ATOM      7  C   UNL     1      -0.718  13.489  21.831  0.00  0.00    +0.000 A 
ATOM      8 CL   UNL     1      -1.126  15.166  21.772  0.00  0.00    +0.000 Cl
ATOM      9  C   UNL     1      -0.021  12.729  20.863  0.00  0.00    +0.000 A 
ATOM     10  C   UNL     1       0.089  11.313  21.129  0.00  0.00    +0.000 A 
ATOM     11  C   UNL     1       0.753  10.385  20.279  0.00  0.00    +0.000 A 
ENDROOT
BRANCH   1  15
ATOM     12  C   UNL     1       3.405   6.494  18.321  0.00  0.00    +0.000 A 
ATOM     13  N   UNL     1       2.956   6.040  19.508  0.00  0.00    +0.000 NA
ATOM     14  C   UNL     1       2.123   6.853  20.193  0.00  0.00    +0.000 A 
ATOM     15  C   UNL     1       1.700   8.101  19.767  0.00  0.00    +0.000 A 
ATOM     16  C   UNL     1       2.180   8.432  18.512  0.00  0.00    +0.000 A 
ATOM     17  N   UNL     1       3.005   7.661  17.773  0.00  0.00    +0.000 NA
BRANCH  12  19
ATOM     18  C   UNL     1       5.583   5.277  18.487  0.00  0.00    +0.000 C 
ATOM     19  C   UNL     1       4.433   5.659  17.550  0.00  0.00    +0.000 C 
ATOM     20  C   UNL     1       4.978   6.395  16.319  0.00  0.00    +0.000 C 
BRANCH  19  21
ATOM     21  O   UNL     1       3.813   4.451  17.071  0.00  0.00    +0.000 OA
ATOM     22  H   UNL     1       2.862   4.519  17.248  0.00  0.00    +0.000 HD
ENDBRANCH  19  21
ENDBRANCH  12  19
ENDBRANCH   1  15
BRANCH   9  23
ATOM     23  N   UNL     1       0.534  13.181  19.646  0.00  0.00    +0.000 N 
ATOM     24  H   UNL     1      -0.153  13.707  19.106  0.00  0.00    +0.000 HD
BRANCH  23  25
ATOM     25  C   UNL     1       1.911  13.653  19.354  0.00  0.00    +0.000 C 
ATOM     26  C   UNL     1       2.692  13.746  20.684  0.00  0.00    +0.000 C 
ATOM     27  C   UNL     1       2.578  12.803  18.256  0.00  0.00    +0.000 C 
BRANCH  25  28
ATOM     28  C   UNL     1       1.862  15.089  18.739  0.00  0.00    +0.000 A 
ATOM     29  C   UNL     1       2.937  15.596  17.972  0.00  0.00    +0.000 A 
ATOM     30  C   UNL     1       2.879  16.853  17.365  0.00  0.00    +0.000 A 
ATOM     31  C   UNL     1       1.733  17.629  17.490  0.00  0.00    +0.000 A 
ATOM     32  C   UNL     1       0.647  17.144  18.214  0.00  0.00    +0.000 A 
ATOM     33  C   UNL     1       0.708  15.886  18.826  0.00  0.00    +0.000 A 
ENDBRANCH  25  28
ENDBRANCH  23  25
ENDBRANCH   9  23
TORSDOF 6
ENDMDL
MODEL 5
REMARK VINA RESULT:      -8.0      0.517      1.310
REMARK  Name = 
REMARK  10 active torsions:
REMARK  status: ('A' for Active; 'I' for Inactive)
REMARK    1  A    between atoms: C_1  and  C_2
REMARK    2  A    between atoms: C_2  and  C_3
REMARK    3  A    between atoms: C_2  and  O_4
REMARK    4  A    between atoms: C_2  and  C_5
REMARK    5  A    between atoms: C_8  and  C_9
REMARK    6  A    between atoms: C_17  and  N_18
REMARK    7  A    between atoms: N_18  and  C_19
REMARK    8  A    between atoms: C_19  and  C_20
REMARK    9  A    between atoms: C_19  and  C_21
REMARK   10  A    between atoms: C_19  and  C_22
REMARK                            x       y       z     vdW  Elec       q    Type
REMARK                         _______ _______ _______ _____ _____    ______ ____
ROOT
ATOM      1  C   UNL     1       2.145   6.807  19.630  0.00  0.00    +0.000 A 
ATOM      2  C   UNL     1       1.694   6.105  20.752  0.00  0.00    +0.000 A 
ATOM      3  C   UNL     1       1.888   4.733  20.861  0.00  0.00    +0.000 A 
ATOM      4  C   UNL     1       2.520   4.008  19.872  0.00  0.00    +0.000 A 
ATOM      5  N   UNL     1       2.601   2.697  20.072  0.00  0.00    +0.000 NA
ATOM      6  C   UNL     1       3.207   1.970  19.120  0.00  0.00    +0.000 A 
ATOM      7  C   UNL     1       3.756   2.481  17.948  0.00  0.00    +0.000 A 
ATOM      8 CL   UNL     1       4.547   1.276  16.996  0.00  0.00    +0.000 Cl
ATOM      9  C   UNL     1       3.657   3.868  17.689  0.00  0.00    +0.000 A 
ATOM     10  C   UNL     1       3.023   4.660  18.717  0.00  0.00    +0.000 A 
ATOM     11  C   UNL     1       2.827   6.067  18.642  0.00  0.00    +0.000 A 
ENDROOT
BRANCH   1  15
ATOM     12  C   UNL     1       1.047  10.844  19.083  0.00  0.00    +0.000 A 
ATOM     13  N   UNL     1       0.791  10.273  20.277  0.00  0.00    +0.000 NA
ATOM     14  C   UNL     1       1.193   8.994  20.437  0.00  0.00    +0.000 A 
ATOM     15  C   UNL     1       1.843   8.238  19.475  0.00  0.00    +0.000 A 
ATOM     16  C   UNL     1       2.100   8.948  18.316  0.00  0.00    +0.000 A 
ATOM     17  N   UNL     1       1.735  10.230  18.099  0.00  0.00    +0.000 NA
BRANCH  12  19
ATOM     18  C   UNL     1       0.698  13.115  20.068  0.00  0.00    +0.000 C 
ATOM     19  C   UNL     1       0.522  12.257  18.811  0.00  0.00    +0.000 C 
ATOM     20  C   UNL     1      -0.948  12.261  18.372  0.00  0.00    +0.000 C 
BRANCH  19  21
ATOM     21  O   UNL     1       1.276  12.856  17.740  0.00  0.00    +0.000 OA
ATOM     22  H   UNL     1       0.873  13.716  17.544  0.00  0.00    +0.000 HD
ENDBRANCH  19  21
ENDBRANCH  12  19
ENDBRANCH   1  15
BRANCH   9  23
ATOM     23  N   UNL     1       4.151   4.575  16.571  0.00  0.00    +0.000 N 
ATOM     24  H   UNL     1       3.432   5.184  16.180  0.00  0.00    +0.000 HD
BRANCH  23  25
ATOM     25  C   UNL     1       5.506   5.131  16.329  0.00  0.00    +0.000 C 
ATOM     26  C   UNL     1       5.433   6.671  16.436  0.00  0.00    +0.000 C 
ATOM     27  C   UNL     1       6.561   4.457  17.228  0.00  0.00    +0.000 C 
BRANCH  25  28
ATOM     28  C   UNL     1       5.972   4.784  14.878  0.00  0.00    +0.000 A 
ATOM     29  C   UNL     1       7.192   5.281  14.362  0.00  0.00    +0.000 A 
ATOM     30  C   UNL     1       7.649   4.928  13.089  0.00  0.00    +0.000 A 
ATOM     31  C   UNL     1       6.910   4.048  12.308  0.00  0.00    +0.000 A 
ATOM     32  C   UNL     1       5.721   3.519  12.803  0.00  0.00    +0.000 A 
ATOM     33  C   UNL     1       5.260   3.878  14.075  0.00  0.00    +0.000 A 
ENDBRANCH  25  28
ENDBRANCH  23  25
ENDBRANCH   9  23
TORSDOF 6
ENDMDL
MODEL 6
REMARK VINA RESULT:      -8.0      1.139      2.412
REMARK  Name = 
REMARK  10 active torsions:
REMARK  status: ('A' for Active; 'I' for Inactive)
REMARK    1  A    between atoms: C_1  and  C_2
REMARK    2  A    between atoms: C_2  and  C_3
REMARK    3  A    between atoms: C_2  and  O_4
REMARK    4  A    between atoms: C_2  and  C_5
REMARK    5  A    between atoms: C_8  and  C_9
REMARK    6  A    between atoms: C_17  and  N_18
REMARK    7  A    between atoms: N_18  and  C_19
REMARK    8  A    between atoms: C_19  and  C_20
REMARK    9  A    between atoms: C_19  and  C_21
REMARK   10  A    between atoms: C_19  and  C_22
REMARK                            x       y       z     vdW  Elec       q    Type
REMARK                         _______ _______ _______ _____ _____    ______ ____
ROOT
ATOM      1  C   UNL     1       2.195   7.084  19.440  0.00  0.00    +0.000 A 
ATOM      2  C   UNL     1       1.852   6.524  20.675  0.00  0.00    +0.000 A 
ATOM      3  C   UNL     1       2.069   5.174  20.930  0.00  0.00    +0.000 A 
ATOM      4  C   UNL     1       2.618   4.334  19.983  0.00  0.00    +0.000 A 
ATOM      5  N   UNL     1       2.730   3.058  20.332  0.00  0.00    +0.000 NA
ATOM      6  C   UNL     1       3.257   2.221  19.424  0.00  0.00    +0.000 A 
ATOM      7  C   UNL     1       3.695   2.586  18.154  0.00  0.00    +0.000 A 
ATOM      8 CL   UNL     1       4.410   1.275  17.287  0.00  0.00    +0.000 Cl
ATOM      9  C   UNL     1       3.558   3.931  17.741  0.00  0.00    +0.000 A 
ATOM     10  C   UNL     1       3.009   4.842  18.718  0.00  0.00    +0.000 A 
ATOM     11  C   UNL     1       2.793   6.230  18.492  0.00  0.00    +0.000 A 
ENDROOT
BRANCH   1  15
ATOM     12  C   UNL     1       1.470  11.175  18.703  0.00  0.00    +0.000 A 
ATOM     13  N   UNL     1       2.090  10.458  17.744  0.00  0.00    +0.000 NA
ATOM     14  C   UNL     1       2.270   9.142  17.991  0.00  0.00    +0.000 A 
ATOM     15  C   UNL     1       1.864   8.486  19.142  0.00  0.00    +0.000 A 
ATOM     16  C   UNL     1       1.191   9.312  20.023  0.00  0.00    +0.000 A 
ATOM     17  N   UNL     1       0.969  10.630  19.831  0.00  0.00    +0.000 NA
BRANCH  12  19
ATOM     18  C   UNL     1       1.890  13.403  19.756  0.00  0.00    +0.000 C 
ATOM     19  C   UNL     1       1.333  12.690  18.521  0.00  0.00    +0.000 C 
ATOM     20  C   UNL     1      -0.119  13.120  18.274  0.00  0.00    +0.000 C 
BRANCH  19  21
ATOM     21  O   UNL     1       2.090  13.110  17.369  0.00  0.00    +0.000 OA
ATOM     22  H   UNL     1       1.600  12.831  16.580  0.00  0.00    +0.000 HD
ENDBRANCH  19  21
ENDBRANCH  12  19
ENDBRANCH   1  15
BRANCH   9  23
ATOM     23  N   UNL     1       3.944   4.498  16.506  0.00  0.00    +0.000 N 
ATOM     24  H   UNL     1       3.324   5.267  16.250  0.00  0.00    +0.000 HD
BRANCH  23  25
ATOM     25  C   UNL     1       5.303   4.703  15.945  0.00  0.00    +0.000 C 
ATOM     26  C   UNL     1       5.932   3.320  15.661  0.00  0.00    +0.000 C 
ATOM     27  C   UNL     1       5.278   5.673  14.748  0.00  0.00    +0.000 C 
BRANCH  25  28
ATOM     28  C   UNL     1       6.209   5.423  16.994  0.00  0.00    +0.000 A 
ATOM     29  C   UNL     1       6.939   4.690  17.959  0.00  0.00    +0.000 A 
ATOM     30  C   UNL     1       7.801   5.319  18.862  0.00  0.00    +0.000 A 
ATOM     31  C   UNL     1       7.975   6.697  18.809  0.00  0.00    +0.000 A 
ATOM     32  C   UNL     1       7.292   7.441  17.849  0.00  0.00    +0.000 A 
ATOM     33  C   UNL     1       6.425   6.811  16.949  0.00  0.00    +0.000 A 
ENDBRANCH  25  28
ENDBRANCH  23  25
ENDBRANCH   9  23
TORSDOF 6
ENDMDL
MODEL 7
REMARK VINA RESULT:      -7.9      4.733      9.894
REMARK  Name = 
REMARK  10 active torsions:
REMARK  status: ('A' for Active; 'I' for Inactive)
REMARK    1  A    between atoms: C_1  and  C_2
REMARK    2  A    between atoms: C_2  and  C_3
REMARK    3  A    between atoms: C_2  and  O_4
REMARK    4  A    between atoms: C_2  and  C_5
REMARK    5  A    between atoms: C_8  and  C_9
REMARK    6  A    between atoms: C_17  and  N_18
REMARK    7  A    between atoms: N_18  and  C_19
REMARK    8  A    between atoms: C_19  and  C_20
REMARK    9  A    between atoms: C_19  and  C_21
REMARK   10  A    between atoms: C_19  and  C_22
REMARK                            x       y       z     vdW  Elec       q    Type
REMARK                         _______ _______ _______ _____ _____    ______ ____
ROOT
ATOM      1  C   UNL     1       0.855   9.238  19.872  0.00  0.00    +0.000 A 
ATOM      2  C   UNL     1       1.013   9.291  21.261  0.00  0.00    +0.000 A 
ATOM      3  C   UNL     1       0.208  10.114  22.040  0.00  0.00    +0.000 A 
ATOM      4  C   UNL     1      -0.770  10.913  21.482  0.00  0.00    +0.000 A 
ATOM      5  N   UNL     1      -1.440  11.689  22.326  0.00  0.00    +0.000 NA
ATOM      6  C   UNL     1      -2.392  12.479  21.805  0.00  0.00    +0.000 A 
ATOM      7  C   UNL     1      -2.731  12.545  20.457  0.00  0.00    +0.000 A 
ATOM      8 CL   UNL     1      -4.069  13.593  20.152  0.00  0.00    +0.000 Cl
ATOM      9  C   UNL     1      -2.014  11.757  19.528  0.00  0.00    +0.000 A 
ATOM     10  C   UNL     1      -1.000  10.890  20.082  0.00  0.00    +0.000 A 
ATOM     11  C   UNL     1      -0.172  10.025  19.313  0.00  0.00    +0.000 A 
ENDROOT
BRANCH   1  15
ATOM     12  C   UNL     1       3.707   7.105  17.610  0.00  0.00    +0.000 A 
ATOM     13  N   UNL     1       3.313   6.582  18.789  0.00  0.00    +0.000 NA
ATOM     14  C   UNL     1       2.368   7.266  19.470  0.00  0.00    +0.000 A 
ATOM     15  C   UNL     1       1.780   8.447  19.047  0.00  0.00    +0.000 A 
ATOM     16  C   UNL     1       2.222   8.851  17.801  0.00  0.00    +0.000 A 
ATOM     17  N   UNL     1       3.154   8.209  17.065  0.00  0.00    +0.000 NA
BRANCH  12  19
ATOM     18  C   UNL     1       4.562   4.927  16.728  0.00  0.00    +0.000 C 
ATOM     19  C   UNL     1       4.848   6.427  16.845  0.00  0.00    +0.000 C 
ATOM     20  C   UNL     1       6.212   6.653  17.511  0.00  0.00    +0.000 C 
BRANCH  19  21
ATOM     21  O   UNL     1       4.938   6.981  15.518  0.00  0.00    +0.000 OA
ATOM     22  H   UNL     1       5.179   7.916  15.607  0.00  0.00    +0.000 HD
ENDBRANCH  19  21
ENDBRANCH  12  19
ENDBRANCH   1  15
BRANCH   9  23
ATOM     23  N   UNL     1      -2.207  11.678  18.132  0.00  0.00    +0.000 N 
ATOM     24  H   UNL     1      -1.318  11.755  17.637  0.00  0.00    +0.000 HD
BRANCH  23  25
ATOM     25  C   UNL     1      -3.176  10.863  17.357  0.00  0.00    +0.000 C 
ATOM     26  C   UNL     1      -2.908  11.077  15.851  0.00  0.00    +0.000 C 
ATOM     27  C   UNL     1      -3.176   9.394  17.823  0.00  0.00    +0.000 C 
BRANCH  25  28
ATOM     28  C   UNL     1      -4.633  11.349  17.647  0.00  0.00    +0.000 A 
ATOM     29  C   UNL     1      -5.211  12.412  16.914  0.00  0.00    +0.000 A 
ATOM     30  C   UNL     1      -6.533  12.814  17.122  0.00  0.00    +0.000 A 
ATOM     31  C   UNL     1      -7.321  12.148  18.052  0.00  0.00    +0.000 A 
ATOM     32  C   UNL     1      -6.788  11.078  18.767  0.00  0.00    +0.000 A 
ATOM     33  C   UNL     1      -5.462  10.679  18.563  0.00  0.00    +0.000 A 
ENDBRANCH  25  28
ENDBRANCH  23  25
ENDBRANCH   9  23
TORSDOF 6
ENDMDL
MODEL 8
REMARK VINA RESULT:      -7.8      4.255      9.559
REMARK  Name = 
REMARK  10 active torsions:
REMARK  status: ('A' for Active; 'I' for Inactive)
REMARK    1  A    between atoms: C_1  and  C_2
REMARK    2  A    between atoms: C_2  and  C_3
REMARK    3  A    between atoms: C_2  and  O_4
REMARK    4  A    between atoms: C_2  and  C_5
REMARK    5  A    between atoms: C_8  and  C_9
REMARK    6  A    between atoms: C_17  and  N_18
REMARK    7  A    between atoms: N_18  and  C_19
REMARK    8  A    between atoms: C_19  and  C_20
REMARK    9  A    between atoms: C_19  and  C_21
REMARK   10  A    between atoms: C_19  and  C_22
REMARK                            x       y       z     vdW  Elec       q    Type
REMARK                         _______ _______ _______ _____ _____    ______ ____
ROOT
ATOM      1  C   UNL     1       0.658   9.178  21.097  0.00  0.00    +0.000 A 
ATOM      2  C   UNL     1       0.033   8.906  22.319  0.00  0.00    +0.000 A 
ATOM      3  C   UNL     1      -0.608   9.913  23.032  0.00  0.00    +0.000 A 
ATOM      4  C   UNL     1      -0.648  11.214  22.574  0.00  0.00    +0.000 A 
ATOM      5  N   UNL     1      -1.249  12.093  23.369  0.00  0.00    +0.000 NA
ATOM      6  C   UNL     1      -1.296  13.366  22.947  0.00  0.00    +0.000 A 
ATOM      7  C   UNL     1      -0.769  13.834  21.747  0.00  0.00    +0.000 A 
ATOM      8 CL   UNL     1      -1.096  15.508  21.476  0.00  0.00    +0.000 Cl
ATOM      9  C   UNL     1      -0.094  12.931  20.894  0.00  0.00    +0.000 A 
ATOM     10  C   UNL     1      -0.054  11.555  21.332  0.00  0.00    +0.000 A 
ATOM     11  C   UNL     1       0.578  10.500  20.615  0.00  0.00    +0.000 A 
ENDROOT
BRANCH   1  15
ATOM     12  C   UNL     1       2.630   6.093  19.001  0.00  0.00    +0.000 A 
ATOM     13  N   UNL     1       2.573   7.312  18.429  0.00  0.00    +0.000 NA
ATOM     14  C   UNL     1       1.973   8.289  19.142  0.00  0.00    +0.000 A 
ATOM     15  C   UNL     1       1.424   8.131  20.404  0.00  0.00    +0.000 A 
ATOM     16  C   UNL     1       1.595   6.854  20.908  0.00  0.00    +0.000 A 
ATOM     17  N   UNL     1       2.193   5.838  20.251  0.00  0.00    +0.000 NA
BRANCH  12  19
ATOM     18  C   UNL     1       4.191   5.462  17.151  0.00  0.00    +0.000 C 
ATOM     19  C   UNL     1       3.206   4.924  18.194  0.00  0.00    +0.000 C 
ATOM     20  C   UNL     1       2.114   4.092  17.510  0.00  0.00    +0.000 C 
BRANCH  19  21
ATOM     21  O   UNL     1       3.916   4.032  19.075  0.00  0.00    +0.000 OA
ATOM     22  H   UNL     1       4.402   4.576  19.714  0.00  0.00    +0.000 HD
ENDBRANCH  19  21
ENDBRANCH  12  19
ENDBRANCH   1  15
BRANCH   9  23
ATOM     23  N   UNL     1       0.500  13.205  19.642  0.00  0.00    +0.000 N 
ATOM     24  H   UNL     1      -0.156  13.685  19.026  0.00  0.00    +0.000 HD
BRANCH  23  25
ATOM     25  C   UNL     1       1.900  13.583  19.324  0.00  0.00    +0.000 C 
ATOM     26  C   UNL     1       2.683  13.734  20.648  0.00  0.00    +0.000 C 
ATOM     27  C   UNL     1       2.525  12.621  18.296  0.00  0.00    +0.000 C 
BRANCH  25  28
ATOM     28  C   UNL     1       1.926  14.970  18.605  0.00  0.00    +0.000 A 
ATOM     29  C   UNL     1       0.858  15.887  18.741  0.00  0.00    +0.000 A 
ATOM     30  C   UNL     1       0.898  17.155  18.154  0.00  0.00    +0.000 A 
ATOM     31  C   UNL     1       2.019  17.549  17.434  0.00  0.00    +0.000 A 
ATOM     32  C   UNL     1       3.099  16.679  17.309  0.00  0.00    +0.000 A 
ATOM     33  C   UNL     1       3.056  15.407  17.893  0.00  0.00    +0.000 A 
ENDBRANCH  25  28
ENDBRANCH  23  25
ENDBRANCH   9  23
TORSDOF 6
ENDMDL
MODEL 9
REMARK VINA RESULT:      -7.8      4.158      9.752
REMARK  Name = 
REMARK  10 active torsions:
REMARK  status: ('A' for Active; 'I' for Inactive)
REMARK    1  A    between atoms: C_1  and  C_2
REMARK    2  A    between atoms: C_2  and  C_3
REMARK    3  A    between atoms: C_2  and  O_4
REMARK    4  A    between atoms: C_2  and  C_5
REMARK    5  A    between atoms: C_8  and  C_9
REMARK    6  A    between atoms: C_17  and  N_18
REMARK    7  A    between atoms: N_18  and  C_19
REMARK    8  A    between atoms: C_19  and  C_20
REMARK    9  A    between atoms: C_19  and  C_21
REMARK   10  A    between atoms: C_19  and  C_22
REMARK                            x       y       z     vdW  Elec       q    Type
REMARK                         _______ _______ _______ _____ _____    ______ ____
ROOT
ATOM      1  C   UNL     1       0.804   8.874  20.964  0.00  0.00    +0.000 A 
ATOM      2  C   UNL     1      -0.105   8.503  21.960  0.00  0.00    +0.000 A 
ATOM      3  C   UNL     1      -0.794   9.465  22.691  0.00  0.00    +0.000 A 
ATOM      4  C   UNL     1      -0.608  10.814  22.473  0.00  0.00    +0.000 A 
ATOM      5  N   UNL     1      -1.288  11.632  23.268  0.00  0.00    +0.000 NA
ATOM      6  C   UNL     1      -1.118  12.950  23.078  0.00  0.00    +0.000 A 
ATOM      7  C   UNL     1      -0.291  13.523  22.117  0.00  0.00    +0.000 A 
ATOM      8 CL   UNL     1      -0.391  15.246  22.085  0.00  0.00    +0.000 Cl
ATOM      9  C   UNL     1       0.472  12.679  21.277  0.00  0.00    +0.000 A 
ATOM     10  C   UNL     1       0.282  11.260  21.462  0.00  0.00    +0.000 A 
ATOM     11  C   UNL     1       0.959  10.253  20.718  0.00  0.00    +0.000 A 
ENDROOT
BRANCH   1  15
ATOM     12  C   UNL     1       2.883   5.864  18.862  0.00  0.00    +0.000 A 
ATOM     13  N   UNL     1       2.810   7.090  18.307  0.00  0.00    +0.000 NA
ATOM     14  C   UNL     1       2.175   8.043  19.022  0.00  0.00    +0.000 A 
ATOM     15  C   UNL     1       1.605   7.854  20.270  0.00  0.00    +0.000 A 
ATOM     16  C   UNL     1       1.795   6.574  20.760  0.00  0.00    +0.000 A 
ATOM     17  N   UNL     1       2.428   5.581  20.101  0.00  0.00    +0.000 NA
BRANCH  12  19
ATOM     18  C   UNL     1       4.384   5.301  16.943  0.00  0.00    +0.000 C 
ATOM     19  C   UNL     1       3.500   4.720  18.051  0.00  0.00    +0.000 C 
ATOM     20  C   UNL     1       2.438   3.792  17.447  0.00  0.00    +0.000 C 
BRANCH  19  21
ATOM     21  O   UNL     1       4.321   3.905  18.910  0.00  0.00    +0.000 OA
ATOM     22  H   UNL     1       3.878   3.849  19.771  0.00  0.00    +0.000 HD
ENDBRANCH  19  21
ENDBRANCH  12  19
ENDBRANCH   1  15
BRANCH   9  23
ATOM     23  N   UNL     1       1.358  13.061  20.245  0.00  0.00    +0.000 N 
ATOM     24  H   UNL     1       2.223  12.523  20.290  0.00  0.00    +0.000 HD
BRANCH  23  25
ATOM     25  C   UNL     1       1.060  13.470  18.849  0.00  0.00    +0.000 C 
ATOM     26  C   UNL     1       2.227  13.015  17.944  0.00  0.00    +0.000 C 
ATOM     27  C   UNL     1      -0.338  12.996  18.408  0.00  0.00    +0.000 C 
BRANCH  25  28
ATOM     28  C   UNL     1       0.976  15.028  18.757  0.00  0.00    +0.000 A 
ATOM     29  C   UNL     1       2.144  15.822  18.686  0.00  0.00    +0.000 A 
ATOM     30  C   UNL     1       2.081  17.211  18.540  0.00  0.00    +0.000 A 
ATOM     31  C   UNL     1       0.846  17.840  18.437  0.00  0.00    +0.000 A 
ATOM     32  C   UNL     1      -0.320  17.080  18.473  0.00  0.00    +0.000 A 
ATOM     33  C   UNL     1      -0.256  15.690  18.625  0.00  0.00    +0.000 A 
ENDBRANCH  25  28
ENDBRANCH  23  25
ENDBRANCH   9  23
TORSDOF 6
ENDMDL
