MODEL 1
REMARK VINA RESULT:      -7.7      0.000      0.000
REMARK  Name = 
REMARK  8 active torsions:
REMARK  status: ('A' for Active; 'I' for Inactive)
REMARK    1  A    between atoms: C_1  and  C_2
REMARK    2  A    between atoms: C_4  and  C_5
REMARK    3  A    between atoms: C_5  and  N_6
REMARK    4  A    between atoms: N_6  and  S_7
REMARK    5  A    between atoms: S_7  and  C_10
REMARK    6  A    between atoms: C_15  and  O_16
REMARK    7  A    between atoms: C_17  and  O_18
REMARK    8  A    between atoms: C_19  and  O_20
REMARK                            x       y       z     vdW  Elec       q    Type
REMARK                         _______ _______ _______ _____ _____    ______ ____
ROOT
ATOM      1  C   UNL     1       0.552   2.698  18.744  0.00  0.00    +0.000 C 
ATOM      2  C   UNL     1       1.910   3.173  19.242  0.00  0.00    +0.000 C 
ATOM      3  O   UNL     1       2.492   3.962  18.195  0.00  0.00    +0.000 OA
ATOM      4  C   UNL     1       3.716   4.599  18.600  0.00  0.00    +0.000 C 
ATOM      5  C   UNL     1       4.780   3.538  18.920  0.00  0.00    +0.000 C 
ATOM      6  C   UNL     1       4.230   2.581  19.996  0.00  0.00    +0.000 C 
ATOM      7  C   UNL     1       2.862   2.014  19.584  0.00  0.00    +0.000 C 
ENDROOT
BRANCH   5   8
ATOM      8  O   UNL     1       5.992   4.171  19.336  0.00  0.00    +0.000 OA
ATOM      9  H   UNL     1       5.775   5.021  19.757  0.00  0.00    +0.000 HD
ENDBRANCH   5   8
BRANCH   6  10
ATOM     10  O   UNL     1       5.155   1.515  20.226  0.00  0.00    +0.000 OA
ATOM     11  H   UNL     1       5.796   1.549  19.488  0.00  0.00    +0.000 HD
ENDBRANCH   6  10
BRANCH   7  12
ATOM     12  O   UNL     1       3.062   1.148  18.453  0.00  0.00    +0.000 OA
ATOM     13  H   UNL     1       2.179   0.843  18.162  0.00  0.00    +0.000 HD
ENDBRANCH   7  12
BRANCH   4  14
ATOM     14  C   UNL     1       4.197   5.537  17.480  0.00  0.00    +0.000 C 
BRANCH  14  15
ATOM     15  N   UNL     1       4.930   4.758  16.451  0.00  0.00    +0.000 NA
ATOM     16  H   UNL     1       4.411   4.612  15.586  0.00  0.00    +0.000 HD
BRANCH  15  17
ATOM     17  S   UNL     1       6.478   5.318  16.074  0.00  0.00    +0.000 S 
ATOM     18  O   UNL     1       6.418   6.759  16.117  0.00  0.00    +0.000 OA
ATOM     19  O   UNL     1       7.427   4.571  16.874  0.00  0.00    +0.000 OA
BRANCH  17  20
ATOM     20  C   UNL     1       6.828   4.895  14.370  0.00  0.00    +0.000 A 
ATOM     21  C   UNL     1       6.293   3.908  13.550  0.00  0.00    +0.000 A 
ATOM     22  C   UNL     1       6.930   4.002  12.292  0.00  0.00    +0.000 A 
ATOM     23  C   UNL     1       7.823   5.037  12.397  0.00  0.00    +0.000 A 
ATOM     24  O   UNL     1       7.773   5.583  13.634  0.00  0.00    +0.000 OA
ENDBRANCH  17  20
ENDBRANCH  15  17
ENDBRANCH  14  15
ENDBRANCH   4  14
TORSDOF 7
ENDMDL
MODEL 2
REMARK VINA RESULT:      -7.1      0.818      1.008
REMARK  Name = 
REMARK  8 active torsions:
REMARK  status: ('A' for Active; 'I' for Inactive)
REMARK    1  A    between atoms: C_1  and  C_2
REMARK    2  A    between atoms: C_4  and  C_5
REMARK    3  A    between atoms: C_5  and  N_6
REMARK    4  A    between atoms: N_6  and  S_7
REMARK    5  A    between atoms: S_7  and  C_10
REMARK    6  A    between atoms: C_15  and  O_16
REMARK    7  A    between atoms: C_17  and  O_18
REMARK    8  A    between atoms: C_19  and  O_20
REMARK                            x       y       z     vdW  Elec       q    Type
REMARK                         _______ _______ _______ _____ _____    ______ ____
ROOT
ATOM      1  C   UNL     1       0.604   2.384  18.701  0.00  0.00    +0.000 C 
ATOM      2  C   UNL     1       1.923   2.975  19.178  0.00  0.00    +0.000 C 
ATOM      3  O   UNL     1       2.482   3.706  18.077  0.00  0.00    +0.000 OA
ATOM      4  C   UNL     1       3.661   4.442  18.447  0.00  0.00    +0.000 C 
ATOM      5  C   UNL     1       4.774   3.473  18.873  0.00  0.00    +0.000 C 
ATOM      6  C   UNL     1       4.256   2.581  20.017  0.00  0.00    +0.000 C 
ATOM      7  C   UNL     1       2.930   1.905  19.633  0.00  0.00    +0.000 C 
ENDROOT
BRANCH   5   8
ATOM      8  O   UNL     1       5.941   4.207  19.252  0.00  0.00    +0.000 OA
ATOM      9  H   UNL     1       5.708   5.148  19.337  0.00  0.00    +0.000 HD
ENDBRANCH   5   8
BRANCH   6  10
ATOM     10  O   UNL     1       5.233   1.593  20.352  0.00  0.00    +0.000 OA
ATOM     11  H   UNL     1       4.742   0.858  20.771  0.00  0.00    +0.000 HD
ENDBRANCH   6  10
BRANCH   7  12
ATOM     12  O   UNL     1       3.200   0.960  18.583  0.00  0.00    +0.000 OA
ATOM     13  H   UNL     1       3.369   0.095  19.007  0.00  0.00    +0.000 HD
ENDBRANCH   7  12
BRANCH   4  14
ATOM     14  C   UNL     1       4.113   5.309  17.259  0.00  0.00    +0.000 C 
BRANCH  14  15
ATOM     15  N   UNL     1       5.063   4.545  16.412  0.00  0.00    +0.000 NA
ATOM     16  H   UNL     1       4.619   3.900  15.759  0.00  0.00    +0.000 HD
BRANCH  15  17
ATOM     17  S   UNL     1       6.206   5.469  15.579  0.00  0.00    +0.000 S 
ATOM     18  O   UNL     1       5.587   6.743  15.304  0.00  0.00    +0.000 OA
ATOM     19  O   UNL     1       7.462   5.371  16.295  0.00  0.00    +0.000 OA
BRANCH  17  20
ATOM     20  C   UNL     1       6.487   4.708  13.984  0.00  0.00    +0.000 A 
ATOM     21  C   UNL     1       7.459   4.948  13.020  0.00  0.00    +0.000 A 
ATOM     22  C   UNL     1       7.220   4.071  11.938  0.00  0.00    +0.000 A 
ATOM     23  C   UNL     1       6.114   3.337  12.285  0.00  0.00    +0.000 A 
ATOM     24  O   UNL     1       5.665   3.705  13.508  0.00  0.00    +0.000 OA
ENDBRANCH  17  20
ENDBRANCH  15  17
ENDBRANCH  14  15
ENDBRANCH   4  14
TORSDOF 7
ENDMDL
MODEL 3
REMARK VINA RESULT:      -7.0      2.298      3.056
REMARK  Name = 
REMARK  8 active torsions:
REMARK  status: ('A' for Active; 'I' for Inactive)
REMARK    1  A    between atoms: C_1  and  C_2
REMARK    2  A    between atoms: C_4  and  C_5
REMARK    3  A    between atoms: C_5  and  N_6
REMARK    4  A    between atoms: N_6  and  S_7
REMARK    5  A    between atoms: S_7  and  C_10
REMARK    6  A    between atoms: C_15  and  O_16
REMARK    7  A    between atoms: C_17  and  O_18
REMARK    8  A    between atoms: C_19  and  O_20
REMARK                            x       y       z     vdW  Elec       q    Type
REMARK                         _______ _______ _______ _____ _____    ______ ____
ROOT
ATOM      1  C   UNL     1       0.724   3.769  20.483  0.00  0.00    +0.000 C 
ATOM      2  C   UNL     1       2.243   3.798  20.380  0.00  0.00    +0.000 C 
ATOM      3  O   UNL     1       2.575   4.590  19.231  0.00  0.00    +0.000 OA
ATOM      4  C   UNL     1       3.989   4.822  19.112  0.00  0.00    +0.000 C 
ATOM      5  C   UNL     1       4.723   3.491  18.888  0.00  0.00    +0.000 C 
ATOM      6  C   UNL     1       4.380   2.527  20.040  0.00  0.00    +0.000 C 
ATOM      7  C   UNL     1       2.859   2.398  20.219  0.00  0.00    +0.000 C 
ENDROOT
BRANCH   5   8
ATOM      8  O   UNL     1       6.129   3.721  18.782  0.00  0.00    +0.000 OA
ATOM      9  H   UNL     1       6.324   4.627  19.079  0.00  0.00    +0.000 HD
ENDBRANCH   5   8
BRANCH   6  10
ATOM     10  O   UNL     1       4.958   1.242  19.794  0.00  0.00    +0.000 OA
ATOM     11  H   UNL     1       4.887   0.748  20.635  0.00  0.00    +0.000 HD
ENDBRANCH   6  10
BRANCH   7  12
ATOM     12  O   UNL     1       2.331   1.723  19.063  0.00  0.00    +0.000 OA
ATOM     13  H   UNL     1       1.528   2.208  18.785  0.00  0.00    +0.000 HD
ENDBRANCH   7  12
BRANCH   4  14
ATOM     14  C   UNL     1       4.249   5.794  17.948  0.00  0.00    +0.000 C 
BRANCH  14  15
ATOM     15  N   UNL     1       4.613   5.032  16.727  0.00  0.00    +0.000 NA
ATOM     16  H   UNL     1       3.858   4.940  16.049  0.00  0.00    +0.000 HD
BRANCH  15  17
ATOM     17  S   UNL     1       6.008   5.552  15.929  0.00  0.00    +0.000 S 
ATOM     18  O   UNL     1       6.775   4.369  15.625  0.00  0.00    +0.000 OA
ATOM     19  O   UNL     1       5.605   6.485  14.897  0.00  0.00    +0.000 OA
BRANCH  17  20
ATOM     20  C   UNL     1       6.997   6.492  17.086  0.00  0.00    +0.000 A 
ATOM     21  C   UNL     1       7.308   7.846  17.127  0.00  0.00    +0.000 A 
ATOM     22  C   UNL     1       8.136   8.065  18.252  0.00  0.00    +0.000 A 
ATOM     23  C   UNL     1       8.296   6.840  18.846  0.00  0.00    +0.000 A 
ATOM     24  O   UNL     1       7.619   5.888  18.162  0.00  0.00    +0.000 OA
ENDBRANCH  17  20
ENDBRANCH  15  17
ENDBRANCH  14  15
ENDBRANCH   4  14
TORSDOF 7
ENDMDL
MODEL 4
REMARK VINA RESULT:      -6.9      2.258      3.068
REMARK  Name = 
REMARK  8 active torsions:
REMARK  status: ('A' for Active; 'I' for Inactive)
REMARK    1  A    between atoms: C_1  and  C_2
REMARK    2  A    between atoms: C_4  and  C_5
REMARK    3  A    between atoms: C_5  and  N_6
REMARK    4  A    between atoms: N_6  and  S_7
REMARK    5  A    between atoms: S_7  and  C_10
REMARK    6  A    between atoms: C_15  and  O_16
REMARK    7  A    between atoms: C_17  and  O_18
REMARK    8  A    between atoms: C_19  and  O_20
REMARK                            x       y       z     vdW  Elec       q    Type
REMARK                         _______ _______ _______ _____ _____    ______ ____
ROOT
ATOM      1  C   UNL     1       0.718   3.557  18.677  0.00  0.00    +0.000 C 
ATOM      2  C   UNL     1       2.142   3.734  19.183  0.00  0.00    +0.000 C 
ATOM      3  O   UNL     1       2.851   4.496  18.194  0.00  0.00    +0.000 OA
ATOM      4  C   UNL     1       4.173   4.863  18.625  0.00  0.00    +0.000 C 
ATOM      5  C   UNL     1       5.029   3.604  18.828  0.00  0.00    +0.000 C 
ATOM      6  C   UNL     1       4.322   2.671  19.830  0.00  0.00    +0.000 C 
ATOM      7  C   UNL     1       2.871   2.398  19.403  0.00  0.00    +0.000 C 
ENDROOT
BRANCH   5   8
ATOM      8  O   UNL     1       6.338   3.969  19.269  0.00  0.00    +0.000 OA
ATOM      9  H   UNL     1       6.303   4.861  19.656  0.00  0.00    +0.000 HD
ENDBRANCH   5   8
BRANCH   6  10
ATOM     10  O   UNL     1       5.040   1.439  19.948  0.00  0.00    +0.000 OA
ATOM     11  H   UNL     1       5.968   1.645  19.718  0.00  0.00    +0.000 HD
ENDBRANCH   6  10
BRANCH   7  12
ATOM     12  O   UNL     1       2.903   1.613  18.197  0.00  0.00    +0.000 OA
ATOM     13  H   UNL     1       2.051   1.137  18.138  0.00  0.00    +0.000 HD
ENDBRANCH   7  12
BRANCH   4  14
ATOM     14  C   UNL     1       4.809   5.795  17.579  0.00  0.00    +0.000 C 
BRANCH  14  15
ATOM     15  N   UNL     1       5.455   4.988  16.514  0.00  0.00    +0.000 NA
ATOM     16  H   UNL     1       4.977   5.020  15.614  0.00  0.00    +0.000 HD
BRANCH  15  17
ATOM     17  S   UNL     1       7.101   5.282  16.271  0.00  0.00    +0.000 S 
ATOM     18  O   UNL     1       7.809   4.157  16.831  0.00  0.00    +0.000 OA
ATOM     19  O   UNL     1       7.280   5.685  14.891  0.00  0.00    +0.000 OA
BRANCH  17  20
ATOM     20  C   UNL     1       7.569   6.697  17.262  0.00  0.00    +0.000 A 
ATOM     21  C   UNL     1       8.150   6.772  18.523  0.00  0.00    +0.000 A 
ATOM     22  C   UNL     1       8.300   8.140  18.847  0.00  0.00    +0.000 A 
ATOM     23  C   UNL     1       7.805   8.838  17.776  0.00  0.00    +0.000 A 
ATOM     24  O   UNL     1       7.365   7.989  16.818  0.00  0.00    +0.000 OA
ENDBRANCH  17  20
ENDBRANCH  15  17
ENDBRANCH  14  15
ENDBRANCH   4  14
TORSDOF 7
ENDMDL
MODEL 5
REMARK VINA RESULT:      -6.9      1.795      2.654
REMARK  Name = 
REMARK  8 active torsions:
REMARK  status: ('A' for Active; 'I' for Inactive)
REMARK    1  A    between atoms: C_1  and  C_2
REMARK    2  A    between atoms: C_4  and  C_5
REMARK    3  A    between atoms: C_5  and  N_6
REMARK    4  A    between atoms: N_6  and  S_7
REMARK    5  A    between atoms: S_7  and  C_10
REMARK    6  A    between atoms: C_15  and  O_16
REMARK    7  A    between atoms: C_17  and  O_18
REMARK    8  A    between atoms: C_19  and  O_20
REMARK                            x       y       z     vdW  Elec       q    Type
REMARK                         _______ _______ _______ _____ _____    ______ ____
ROOT
ATOM      1  C   UNL     1       1.450   2.516  20.505  0.00  0.00    +0.000 C 
ATOM      2  C   UNL     1       1.933   3.666  19.632  0.00  0.00    +0.000 C 
ATOM      3  O   UNL     1       3.321   3.432  19.354  0.00  0.00    +0.000 OA
ATOM      4  C   UNL     1       3.859   4.371  18.408  0.00  0.00    +0.000 C 
ATOM      5  C   UNL     1       3.817   5.791  18.994  0.00  0.00    +0.000 C 
ATOM      6  C   UNL     1       2.368   6.127  19.397  0.00  0.00    +0.000 C 
ATOM      7  C   UNL     1       1.782   5.038  20.310  0.00  0.00    +0.000 C 
ENDROOT
BRANCH   5   8
ATOM      8  O   UNL     1       4.339   6.726  18.048  0.00  0.00    +0.000 OA
ATOM      9  H   UNL     1       3.599   7.196  17.627  0.00  0.00    +0.000 HD
ENDBRANCH   5   8
BRANCH   6  10
ATOM     10  O   UNL     1       2.321   7.397  20.053  0.00  0.00    +0.000 OA
ATOM     11  H   UNL     1       3.248   7.701  20.119  0.00  0.00    +0.000 HD
ENDBRANCH   6  10
BRANCH   7  12
ATOM     12  O   UNL     1       2.485   5.083  21.564  0.00  0.00    +0.000 OA
ATOM     13  H   UNL     1       1.815   5.171  22.271  0.00  0.00    +0.000 HD
ENDBRANCH   7  12
BRANCH   4  14
ATOM     14  C   UNL     1       5.300   3.968  18.053  0.00  0.00    +0.000 C 
BRANCH  14  15
ATOM     15  N   UNL     1       5.456   3.898  16.578  0.00  0.00    +0.000 NA
ATOM     16  H   UNL     1       4.594   4.058  16.057  0.00  0.00    +0.000 HD
BRANCH  15  17
ATOM     17  S   UNL     1       6.679   4.862  15.925  0.00  0.00    +0.000 S 
ATOM     18  O   UNL     1       6.221   6.227  16.012  0.00  0.00    +0.000 OA
ATOM     19  O   UNL     1       7.935   4.442  16.512  0.00  0.00    +0.000 OA
BRANCH  17  20
ATOM     20  C   UNL     1       6.805   4.500  14.177  0.00  0.00    +0.000 A 
ATOM     21  C   UNL     1       7.607   5.057  13.188  0.00  0.00    +0.000 A 
ATOM     22  C   UNL     1       7.302   4.409  11.970  0.00  0.00    +0.000 A 
ATOM     23  C   UNL     1       6.329   3.489  12.265  0.00  0.00    +0.000 A 
ATOM     24  O   UNL     1       6.022   3.529  13.583  0.00  0.00    +0.000 OA
ENDBRANCH  17  20
ENDBRANCH  15  17
ENDBRANCH  14  15
ENDBRANCH   4  14
TORSDOF 7
ENDMDL
MODEL 6
REMARK VINA RESULT:      -6.9      1.431      1.913
REMARK  Name = 
REMARK  8 active torsions:
REMARK  status: ('A' for Active; 'I' for Inactive)
REMARK    1  A    between atoms: C_1  and  C_2
REMARK    2  A    between atoms: C_4  and  C_5
REMARK    3  A    between atoms: C_5  and  N_6
REMARK    4  A    between atoms: N_6  and  S_7
REMARK    5  A    between atoms: S_7  and  C_10
REMARK    6  A    between atoms: C_15  and  O_16
REMARK    7  A    between atoms: C_17  and  O_18
REMARK    8  A    between atoms: C_19  and  O_20
REMARK                            x       y       z     vdW  Elec       q    Type
REMARK                         _______ _______ _______ _____ _____    ______ ____
ROOT
ATOM      1  C   UNL     1       0.774   5.467  20.411  0.00  0.00    +0.000 C 
ATOM      2  C   UNL     1       1.951   4.531  20.174  0.00  0.00    +0.000 C 
ATOM      3  O   UNL     1       3.050   5.338  19.726  0.00  0.00    +0.000 OA
ATOM      4  C   UNL     1       4.273   4.589  19.613  0.00  0.00    +0.000 C 
ATOM      5  C   UNL     1       4.126   3.505  18.535  0.00  0.00    +0.000 C 
ATOM      6  C   UNL     1       2.920   2.611  18.880  0.00  0.00    +0.000 C 
ATOM      7  C   UNL     1       1.657   3.454  19.116  0.00  0.00    +0.000 C 
ENDROOT
BRANCH   5   8
ATOM      8  O   UNL     1       5.337   2.753  18.432  0.00  0.00    +0.000 OA
ATOM      9  H   UNL     1       5.887   3.135  17.726  0.00  0.00    +0.000 HD
ENDBRANCH   5   8
BRANCH   6  10
ATOM     10  O   UNL     1       2.691   1.665  17.831  0.00  0.00    +0.000 OA
ATOM     11  H   UNL     1       2.064   2.093  17.214  0.00  0.00    +0.000 HD
ENDBRANCH   6  10
BRANCH   7  12
ATOM     12  O   UNL     1       1.274   4.044  17.860  0.00  0.00    +0.000 OA
ATOM     13  H   UNL     1       0.386   4.434  17.981  0.00  0.00    +0.000 HD
ENDBRANCH   7  12
BRANCH   4  14
ATOM     14  C   UNL     1       5.426   5.548  19.273  0.00  0.00    +0.000 C 
BRANCH  14  15
ATOM     15  N   UNL     1       5.519   5.722  17.801  0.00  0.00    +0.000 NA
ATOM     16  H   UNL     1       5.133   6.601  17.458  0.00  0.00    +0.000 HD
BRANCH  15  17
ATOM     17  S   UNL     1       7.054   5.498  17.133  0.00  0.00    +0.000 S 
ATOM     18  O   UNL     1       7.652   6.806  17.023  0.00  0.00    +0.000 OA
ATOM     19  O   UNL     1       7.700   4.423  17.859  0.00  0.00    +0.000 OA
BRANCH  17  20
ATOM     20  C   UNL     1       6.854   4.909  15.455  0.00  0.00    +0.000 A 
ATOM     21  C   UNL     1       5.977   3.975  14.918  0.00  0.00    +0.000 A 
ATOM     22  C   UNL     1       6.247   3.876  13.534  0.00  0.00    +0.000 A 
ATOM     23  C   UNL     1       7.274   4.750  13.286  0.00  0.00    +0.000 A 
ATOM     24  O   UNL     1       7.648   5.378  14.426  0.00  0.00    +0.000 OA
ENDBRANCH  17  20
ENDBRANCH  15  17
ENDBRANCH  14  15
ENDBRANCH   4  14
TORSDOF 7
ENDMDL
MODEL 7
REMARK VINA RESULT:      -6.8      1.363      2.225
REMARK  Name = 
REMARK  8 active torsions:
REMARK  status: ('A' for Active; 'I' for Inactive)
REMARK    1  A    between atoms: C_1  and  C_2
REMARK    2  A    between atoms: C_4  and  C_5
REMARK    3  A    between atoms: C_5  and  N_6
REMARK    4  A    between atoms: N_6  and  S_7
REMARK    5  A    between atoms: S_7  and  C_10
REMARK    6  A    between atoms: C_15  and  O_16
REMARK    7  A    between atoms: C_17  and  O_18
REMARK    8  A    between atoms: C_19  and  O_20
REMARK                            x       y       z     vdW  Elec       q    Type
REMARK                         _______ _______ _______ _____ _____    ______ ____
ROOT
ATOM      1  C   UNL     1       2.085   6.418  20.316  0.00  0.00    +0.000 C 
ATOM      2  C   UNL     1       2.642   5.032  20.021  0.00  0.00    +0.000 C 
ATOM      3  O   UNL     1       3.867   5.215  19.296  0.00  0.00    +0.000 OA
ATOM      4  C   UNL     1       4.574   3.979  19.088  0.00  0.00    +0.000 C 
ATOM      5  C   UNL     1       3.739   3.039  18.206  0.00  0.00    +0.000 C 
ATOM      6  C   UNL     1       2.361   2.825  18.860  0.00  0.00    +0.000 C 
ATOM      7  C   UNL     1       1.687   4.168  19.180  0.00  0.00    +0.000 C 
ENDROOT
BRANCH   5   8
ATOM      8  O   UNL     1       4.436   1.806  18.011  0.00  0.00    +0.000 OA
ATOM      9  H   UNL     1       4.298   1.239  18.789  0.00  0.00    +0.000 HD
ENDBRANCH   5   8
BRANCH   6  10
ATOM     10  O   UNL     1       1.523   2.047  18.000  0.00  0.00    +0.000 OA
ATOM     11  H   UNL     1       2.113   1.673  17.314  0.00  0.00    +0.000 HD
ENDBRANCH   6  10
BRANCH   7  12
ATOM     12  O   UNL     1       1.358   4.810  17.935  0.00  0.00    +0.000 OA
ATOM     13  H   UNL     1       0.899   5.646  18.151  0.00  0.00    +0.000 HD
ENDBRANCH   7  12
BRANCH   4  14
ATOM     14  C   UNL     1       5.936   4.275  18.439  0.00  0.00    +0.000 C 
BRANCH  14  15
ATOM     15  N   UNL     1       5.854   4.054  16.973  0.00  0.00    +0.000 NA
ATOM     16  H   UNL     1       4.969   3.661  16.657  0.00  0.00    +0.000 HD
BRANCH  15  17
ATOM     17  S   UNL     1       6.239   5.387  16.009  0.00  0.00    +0.000 S 
ATOM     18  O   UNL     1       5.043   6.187  15.915  0.00  0.00    +0.000 OA
ATOM     19  O   UNL     1       7.488   5.938  16.493  0.00  0.00    +0.000 OA
BRANCH  17  20
ATOM     20  C   UNL     1       6.567   4.802  14.350  0.00  0.00    +0.000 A 
ATOM     21  C   UNL     1       5.979   3.781  13.612  0.00  0.00    +0.000 A 
ATOM     22  C   UNL     1       6.622   3.732  12.355  0.00  0.00    +0.000 A 
ATOM     23  C   UNL     1       7.573   4.720  12.379  0.00  0.00    +0.000 A 
ATOM     24  O   UNL     1       7.552   5.371  13.565  0.00  0.00    +0.000 OA
ENDBRANCH  17  20
ENDBRANCH  15  17
ENDBRANCH  14  15
ENDBRANCH   4  14
TORSDOF 7
ENDMDL
MODEL 8
REMARK VINA RESULT:      -6.8      1.437      2.080
REMARK  Name = 
REMARK  8 active torsions:
REMARK  status: ('A' for Active; 'I' for Inactive)
REMARK    1  A    between atoms: C_1  and  C_2
REMARK    2  A    between atoms: C_4  and  C_5
REMARK    3  A    between atoms: C_5  and  N_6
REMARK    4  A    between atoms: N_6  and  S_7
REMARK    5  A    between atoms: S_7  and  C_10
REMARK    6  A    between atoms: C_15  and  O_16
REMARK    7  A    between atoms: C_17  and  O_18
REMARK    8  A    between atoms: C_19  and  O_20
REMARK                            x       y       z     vdW  Elec       q    Type
REMARK                         _______ _______ _______ _____ _____    ______ ____
ROOT
ATOM      1  C   UNL     1       2.227   7.083  19.376  0.00  0.00    +0.000 C 
ATOM      2  C   UNL     1       3.010   5.858  19.829  0.00  0.00    +0.000 C 
ATOM      3  O   UNL     1       4.026   5.617  18.845  0.00  0.00    +0.000 OA
ATOM      4  C   UNL     1       4.935   4.573  19.237  0.00  0.00    +0.000 C 
ATOM      5  C   UNL     1       4.184   3.238  19.350  0.00  0.00    +0.000 C 
ATOM      6  C   UNL     1       3.015   3.400  20.340  0.00  0.00    +0.000 C 
ATOM      7  C   UNL     1       2.133   4.601  19.962  0.00  0.00    +0.000 C 
ENDROOT
BRANCH   5   8
ATOM      8  O   UNL     1       5.085   2.204  19.752  0.00  0.00    +0.000 OA
ATOM      9  H   UNL     1       5.228   1.601  19.002  0.00  0.00    +0.000 HD
ENDBRANCH   5   8
BRANCH   6  10
ATOM     10  O   UNL     1       2.230   2.205  20.376  0.00  0.00    +0.000 OA
ATOM     11  H   UNL     1       1.323   2.485  20.613  0.00  0.00    +0.000 HD
ENDBRANCH   6  10
BRANCH   7  12
ATOM     12  O   UNL     1       1.468   4.293  18.724  0.00  0.00    +0.000 OA
ATOM     13  H   UNL     1       1.847   4.878  18.037  0.00  0.00    +0.000 HD
ENDBRANCH   7  12
BRANCH   4  14
ATOM     14  C   UNL     1       6.072   4.476  18.205  0.00  0.00    +0.000 C 
BRANCH  14  15
ATOM     15  N   UNL     1       5.513   4.539  16.831  0.00  0.00    +0.000 NA
ATOM     16  H   UNL     1       4.502   4.662  16.795  0.00  0.00    +0.000 HD
BRANCH  15  17
ATOM     17  S   UNL     1       6.241   5.658  15.796  0.00  0.00    +0.000 S 
ATOM     18  O   UNL     1       5.264   6.692  15.553  0.00  0.00    +0.000 OA
ATOM     19  O   UNL     1       7.555   5.961  16.325  0.00  0.00    +0.000 OA
BRANCH  17  20
ATOM     20  C   UNL     1       6.515   4.863  14.216  0.00  0.00    +0.000 A 
ATOM     21  C   UNL     1       5.888   3.772  13.626  0.00  0.00    +0.000 A 
ATOM     22  C   UNL     1       6.498   3.552  12.370  0.00  0.00    +0.000 A 
ATOM     23  C   UNL     1       7.468   4.514  12.248  0.00  0.00    +0.000 A 
ATOM     24  O   UNL     1       7.489   5.308  13.344  0.00  0.00    +0.000 OA
ENDBRANCH  17  20
ENDBRANCH  15  17
ENDBRANCH  14  15
ENDBRANCH   4  14
TORSDOF 7
ENDMDL
MODEL 9
REMARK VINA RESULT:      -6.8      2.228      5.615
REMARK  Name = 
REMARK  8 active torsions:
REMARK  status: ('A' for Active; 'I' for Inactive)
REMARK    1  A    between atoms: C_1  and  C_2
REMARK    2  A    between atoms: C_4  and  C_5
REMARK    3  A    between atoms: C_5  and  N_6
REMARK    4  A    between atoms: N_6  and  S_7
REMARK    5  A    between atoms: S_7  and  C_10
REMARK    6  A    between atoms: C_15  and  O_16
REMARK    7  A    between atoms: C_17  and  O_18
REMARK    8  A    between atoms: C_19  and  O_20
REMARK                            x       y       z     vdW  Elec       q    Type
REMARK                         _______ _______ _______ _____ _____    ______ ____
ROOT
ATOM      1  C   UNL     1       5.726   4.333  14.139  0.00  0.00    +0.000 C 
ATOM      2  C   UNL     1       5.631   4.266  15.657  0.00  0.00    +0.000 C 
ATOM      3  O   UNL     1       4.705   5.283  16.068  0.00  0.00    +0.000 OA
ATOM      4  C   UNL     1       4.409   5.223  17.474  0.00  0.00    +0.000 C 
ATOM      5  C   UNL     1       5.680   5.504  18.291  0.00  0.00    +0.000 C 
ATOM      6  C   UNL     1       6.776   4.504  17.877  0.00  0.00    +0.000 C 
ATOM      7  C   UNL     1       6.980   4.506  16.354  0.00  0.00    +0.000 C 
ENDROOT
BRANCH   5   8
ATOM      8  O   UNL     1       5.388   5.431  19.688  0.00  0.00    +0.000 OA
ATOM      9  H   UNL     1       5.814   4.640  20.059  0.00  0.00    +0.000 HD
ENDBRANCH   5   8
BRANCH   6  10
ATOM     10  O   UNL     1       8.005   4.819  18.539  0.00  0.00    +0.000 OA
ATOM     11  H   UNL     1       7.996   4.317  19.378  0.00  0.00    +0.000 HD
ENDBRANCH   6  10
BRANCH   7  12
ATOM     12  O   UNL     1       7.544   5.776  15.982  0.00  0.00    +0.000 OA
ATOM     13  H   UNL     1       7.903   5.681  15.077  0.00  0.00    +0.000 HD
ENDBRANCH   7  12
BRANCH   4  14
ATOM     14  C   UNL     1       3.307   6.243  17.806  0.00  0.00    +0.000 C 
BRANCH  14  15
ATOM     15  N   UNL     1       2.553   5.797  19.005  0.00  0.00    +0.000 NA
ATOM     16  H   UNL     1       1.936   6.506  19.399  0.00  0.00    +0.000 HD
BRANCH  15  17
ATOM     17  S   UNL     1       1.693   4.354  18.833  0.00  0.00    +0.000 S 
ATOM     18  O   UNL     1       0.825   4.251  19.980  0.00  0.00    +0.000 OA
ATOM     19  O   UNL     1       1.177   4.303  17.480  0.00  0.00    +0.000 OA
BRANCH  17  20
ATOM     20  C   UNL     1       2.849   2.994  18.972  0.00  0.00    +0.000 A 
ATOM     21  C   UNL     1       3.024   1.865  18.181  0.00  0.00    +0.000 A 
ATOM     22  C   UNL     1       4.074   1.104  18.742  0.00  0.00    +0.000 A 
ATOM     23  C   UNL     1       4.494   1.798  19.848  0.00  0.00    +0.000 A 
ATOM     24  O   UNL     1       3.772   2.932  19.998  0.00  0.00    +0.000 OA
ENDBRANCH  17  20
ENDBRANCH  15  17
ENDBRANCH  14  15
ENDBRANCH   4  14
TORSDOF 7
ENDMDL
