MODEL 1
REMARK VINA RESULT:      -9.4      0.000      0.000
REMARK  Name = 
REMARK  6 active torsions:
REMARK  status: ('A' for Active; 'I' for Inactive)
REMARK    1  A    between atoms: C_2  and  O_3
REMARK    2  A    between atoms: C_2  and  C_4
REMARK    3  A    between atoms: C_4  and  C_5
REMARK    4  A    between atoms: C_10  and  N_11
REMARK    5  A    between atoms: C_12  and  C_14
REMARK    6  A    between atoms: N_17  and  C_18
REMARK                            x       y       z     vdW  Elec       q    Type
REMARK                         _______ _______ _______ _____ _____    ______ ____
ROOT
ATOM      1  N   UNL     1       7.866   8.640  17.393  0.00  0.00    +0.000 N 
ATOM      2  C   UNL     1       7.877   7.349  17.902  0.00  0.00    +0.000 C 
ATOM      3  O   UNL     1       8.406   7.015  18.960  0.00  0.00    +0.000 OA
ATOM      4  H   UNL     1       7.355   8.802  16.532  0.00  0.00    +0.000 HD
ENDROOT
BRANCH   1  10
ATOM      5  C   UNL     1       9.211  14.427  19.632  0.00  0.00    +0.000 C 
ATOM      6  O   UNL     1       9.849  13.187  19.957  0.00  0.00    +0.000 OA
ATOM      7  C   UNL     1       9.354  12.105  19.285  0.00  0.00    +0.000 A 
ATOM      8  C   UNL     1       9.613  10.862  19.846  0.00  0.00    +0.000 A 
ATOM      9  C   UNL     1       9.133   9.710  19.222  0.00  0.00    +0.000 A 
ATOM     10  C   UNL     1       8.407   9.781  18.030  0.00  0.00    +0.000 A 
ATOM     11  C   UNL     1       8.193  11.037  17.441  0.00  0.00    +0.000 A 
ATOM     12  C   UNL     1       8.649  12.195  18.084  0.00  0.00    +0.000 A 
ATOM     13  N   UNL     1       8.415  13.452  17.523  0.00  0.00    +0.000 N 
ATOM     14  C   UNL     1       8.763  14.607  18.176  0.00  0.00    +0.000 C 
ATOM     15  O   UNL     1       8.622  15.707  17.648  0.00  0.00    +0.000 OA
ATOM     16  H   UNL     1       8.017  13.553  16.598  0.00  0.00    +0.000 HD
BRANCH   5  17
ATOM     17  C   UNL     1       8.001  14.612  20.548  0.00  0.00    +0.000 C 
BRANCH  17  19
ATOM     18  O   UNL     1       7.477  13.153  22.379  0.00  0.00    +0.000 OA
ATOM     19  C   UNL     1       8.189  14.042  21.930  0.00  0.00    +0.000 C 
BRANCH  19  20
ATOM     20  O   UNL     1       9.258  14.500  22.612  0.00  0.00    +0.000 OA
ATOM     21  H   UNL     1       9.507  15.426  22.413  0.00  0.00    +0.000 HD
ENDBRANCH  19  20
ENDBRANCH  17  19
ENDBRANCH   5  17
ENDBRANCH   1  10
BRANCH   2  22
ATOM     22  C   UNL     1       7.151   6.320  17.032  0.00  0.00    +0.000 C 
ATOM     23  C   UNL     1       5.726   6.765  16.665  0.00  0.00    +0.000 C 
ATOM     24  C   UNL     1       4.816   6.765  17.892  0.00  0.00    +0.000 C 
ATOM     25  N   UNL     1       4.826   5.433  18.494  0.00  0.00    +0.000 N 
ATOM     26  C   UNL     1       6.133   4.938  18.936  0.00  0.00    +0.000 C 
ATOM     27  C   UNL     1       7.099   4.951  17.743  0.00  0.00    +0.000 C 
BRANCH  25  28
ATOM     28  C   UNL     1       3.687   4.658  18.589  0.00  0.00    +0.000 A 
ATOM     29  C   UNL     1       3.507   3.517  17.793  0.00  0.00    +0.000 A 
ATOM     30  C   UNL     1       2.358   2.733  17.896  0.00  0.00    +0.000 A 
ATOM     31  F   UNL     1       2.240   1.646  17.122  0.00  0.00    +0.000 F 
ATOM     32  C   UNL     1       1.354   3.067  18.788  0.00  0.00    +0.000 A 
ATOM     33  F   UNL     1       0.251   2.310  18.883  0.00  0.00    +0.000 F 
ATOM     34  C   UNL     1       1.506   4.189  19.582  0.00  0.00    +0.000 A 
ATOM     35  F   UNL     1       0.545   4.537  20.448  0.00  0.00    +0.000 F 
ATOM     36  C   UNL     1       2.654   4.977  19.488  0.00  0.00    +0.000 A 
ENDBRANCH  25  28
ENDBRANCH   2  22
TORSDOF 6
ENDMDL
MODEL 2
REMARK VINA RESULT:      -9.4      0.050      1.430
REMARK  Name = 
REMARK  6 active torsions:
REMARK  status: ('A' for Active; 'I' for Inactive)
REMARK    1  A    between atoms: C_2  and  O_3
REMARK    2  A    between atoms: C_2  and  C_4
REMARK    3  A    between atoms: C_4  and  C_5
REMARK    4  A    between atoms: C_10  and  N_11
REMARK    5  A    between atoms: C_12  and  C_14
REMARK    6  A    between atoms: N_17  and  C_18
REMARK                            x       y       z     vdW  Elec       q    Type
REMARK                         _______ _______ _______ _____ _____    ______ ____
ROOT
ATOM      1  N   UNL     1       7.864   8.663  17.404  0.00  0.00    +0.000 N 
ATOM      2  C   UNL     1       7.877   7.374  17.920  0.00  0.00    +0.000 C 
ATOM      3  O   UNL     1       8.409   7.047  18.978  0.00  0.00    +0.000 OA
ATOM      4  H   UNL     1       7.350   8.820  16.543  0.00  0.00    +0.000 HD
ENDROOT
BRANCH   1  10
ATOM      5  C   UNL     1       9.205  14.459  19.621  0.00  0.00    +0.000 C 
ATOM      6  O   UNL     1       9.854  13.223  19.938  0.00  0.00    +0.000 OA
ATOM      7  C   UNL     1       9.356  12.138  19.274  0.00  0.00    +0.000 A 
ATOM      8  C   UNL     1       9.630  10.897  19.832  0.00  0.00    +0.000 A 
ATOM      9  C   UNL     1       9.148   9.742  19.216  0.00  0.00    +0.000 A 
ATOM     10  C   UNL     1       8.407   9.808  18.033  0.00  0.00    +0.000 A 
ATOM     11  C   UNL     1       8.178  11.061  17.446  0.00  0.00    +0.000 A 
ATOM     12  C   UNL     1       8.636  12.223  18.082  0.00  0.00    +0.000 A 
ATOM     13  N   UNL     1       8.388  13.478  17.522  0.00  0.00    +0.000 N 
ATOM     14  C   UNL     1       8.738  14.635  18.170  0.00  0.00    +0.000 C 
ATOM     15  O   UNL     1       8.584  15.734  17.643  0.00  0.00    +0.000 OA
ATOM     16  H   UNL     1       7.978  13.576  16.603  0.00  0.00    +0.000 HD
BRANCH   5  17
ATOM     17  C   UNL     1       8.006  14.638  20.551  0.00  0.00    +0.000 C 
BRANCH  17  19
ATOM     18  O   UNL     1       7.499  13.234  22.429  0.00  0.00    +0.000 OA
ATOM     19  C   UNL     1       8.222  14.090  21.939  0.00  0.00    +0.000 C 
BRANCH  19  20
ATOM     20  O   UNL     1       9.328  14.528  22.575  0.00  0.00    +0.000 OA
ATOM     21  H   UNL     1       9.281  14.490  23.553  0.00  0.00    +0.000 HD
ENDBRANCH  19  20
ENDBRANCH  17  19
ENDBRANCH   5  17
ENDBRANCH   1  10
BRANCH   2  22
ATOM     22  C   UNL     1       7.148   6.340  17.058  0.00  0.00    +0.000 C 
ATOM     23  C   UNL     1       5.722   6.783  16.692  0.00  0.00    +0.000 C 
ATOM     24  C   UNL     1       4.816   6.790  17.921  0.00  0.00    +0.000 C 
ATOM     25  N   UNL     1       4.827   5.462  18.532  0.00  0.00    +0.000 N 
ATOM     26  C   UNL     1       6.136   4.969  18.973  0.00  0.00    +0.000 C 
ATOM     27  C   UNL     1       7.098   4.975  17.777  0.00  0.00    +0.000 C 
BRANCH  25  28
ATOM     28  C   UNL     1       3.688   4.688  18.634  0.00  0.00    +0.000 A 
ATOM     29  C   UNL     1       2.666   5.002  19.542  0.00  0.00    +0.000 A 
ATOM     30  C   UNL     1       1.514   4.221  19.637  0.00  0.00    +0.000 A 
ATOM     31  F   UNL     1       0.561   4.570  20.512  0.00  0.00    +0.000 F 
ATOM     32  C   UNL     1       1.351   3.104  18.838  0.00  0.00    +0.000 A 
ATOM     33  F   UNL     1       0.243   2.356  18.934  0.00  0.00    +0.000 F 
ATOM     34  C   UNL     1       2.346   2.772  17.937  0.00  0.00    +0.000 A 
ATOM     35  F   UNL     1       2.215   1.689  17.157  0.00  0.00    +0.000 F 
ATOM     36  C   UNL     1       3.500   3.549  17.831  0.00  0.00    +0.000 A 
ENDBRANCH  25  28
ENDBRANCH   2  22
TORSDOF 6
ENDMDL
MODEL 3
REMARK VINA RESULT:      -8.7      1.407      1.574
REMARK  Name = 
REMARK  6 active torsions:
REMARK  status: ('A' for Active; 'I' for Inactive)
REMARK    1  A    between atoms: C_2  and  O_3
REMARK    2  A    between atoms: C_2  and  C_4
REMARK    3  A    between atoms: C_4  and  C_5
REMARK    4  A    between atoms: C_10  and  N_11
REMARK    5  A    between atoms: C_12  and  C_14
REMARK    6  A    between atoms: N_17  and  C_18
REMARK                            x       y       z     vdW  Elec       q    Type
REMARK                         _______ _______ _______ _____ _____    ______ ____
ROOT
ATOM      1  N   UNL     1       8.711   8.370  18.576  0.00  0.00    +0.000 N 
ATOM      2  C   UNL     1       7.696   8.064  17.681  0.00  0.00    +0.000 C 
ATOM      3  O   UNL     1       6.943   8.885  17.164  0.00  0.00    +0.000 OA
ATOM      4  H   UNL     1       9.300   7.609  18.899  0.00  0.00    +0.000 HD
ENDROOT
BRANCH   1  10
ATOM      5  C   UNL     1      10.007  14.562  19.118  0.00  0.00    +0.000 C 
ATOM      6  O   UNL     1      10.022  13.566  20.147  0.00  0.00    +0.000 OA
ATOM      7  C   UNL     1       9.725  12.304  19.714  0.00  0.00    +0.000 A 
ATOM      8  C   UNL     1       9.307  11.404  20.684  0.00  0.00    +0.000 A 
ATOM      9  C   UNL     1       8.978  10.098  20.318  0.00  0.00    +0.000 A 
ATOM     10  C   UNL     1       9.078   9.672  18.991  0.00  0.00    +0.000 A 
ATOM     11  C   UNL     1       9.551  10.571  18.024  0.00  0.00    +0.000 A 
ATOM     12  C   UNL     1       9.852  11.891  18.387  0.00  0.00    +0.000 A 
ATOM     13  N   UNL     1      10.294  12.803  17.427  0.00  0.00    +0.000 N 
ATOM     14  C   UNL     1      10.502  14.123  17.733  0.00  0.00    +0.000 C 
ATOM     15  O   UNL     1      10.959  14.907  16.905  0.00  0.00    +0.000 OA
ATOM     16  H   UNL     1      10.514  12.513  16.483  0.00  0.00    +0.000 HD
BRANCH   5  17
ATOM     17  C   UNL     1       8.588  15.112  18.985  0.00  0.00    +0.000 C 
BRANCH  17  19
ATOM     18  O   UNL     1       7.935  16.731  20.630  0.00  0.00    +0.000 OA
ATOM     19  C   UNL     1       7.981  15.556  20.291  0.00  0.00    +0.000 C 
BRANCH  19  20
ATOM     20  O   UNL     1       7.394  14.588  21.024  0.00  0.00    +0.000 OA
ATOM     21  H   UNL     1       6.631  14.885  21.562  0.00  0.00    +0.000 HD
ENDBRANCH  19  20
ENDBRANCH  17  19
ENDBRANCH   5  17
ENDBRANCH   1  10
BRANCH   2  22
ATOM     22  C   UNL     1       7.569   6.573  17.354  0.00  0.00    +0.000 C 
ATOM     23  C   UNL     1       6.329   6.264  16.500  0.00  0.00    +0.000 C 
ATOM     24  C   UNL     1       5.045   6.469  17.300  0.00  0.00    +0.000 C 
ATOM     25  N   UNL     1       5.092   5.638  18.502  0.00  0.00    +0.000 N 
ATOM     26  C   UNL     1       6.208   5.896  19.417  0.00  0.00    +0.000 C 
ATOM     27  C   UNL     1       7.528   5.736  18.650  0.00  0.00    +0.000 C 
BRANCH  25  28
ATOM     28  C   UNL     1       4.180   4.629  18.736  0.00  0.00    +0.000 A 
ATOM     29  C   UNL     1       4.442   3.302  18.365  0.00  0.00    +0.000 A 
ATOM     30  C   UNL     1       3.520   2.283  18.610  0.00  0.00    +0.000 A 
ATOM     31  F   UNL     1       3.823   1.030  18.247  0.00  0.00    +0.000 F 
ATOM     32  C   UNL     1       2.312   2.558  19.223  0.00  0.00    +0.000 A 
ATOM     33  F   UNL     1       1.429   1.576  19.456  0.00  0.00    +0.000 F 
ATOM     34  C   UNL     1       2.029   3.860  19.597  0.00  0.00    +0.000 A 
ATOM     35  F   UNL     1       0.861   4.152  20.187  0.00  0.00    +0.000 F 
ATOM     36  C   UNL     1       2.946   4.884  19.360  0.00  0.00    +0.000 A 
ENDBRANCH  25  28
ENDBRANCH   2  22
TORSDOF 6
ENDMDL
MODEL 4
REMARK VINA RESULT:      -8.6      6.055      7.781
REMARK  Name = 
REMARK  6 active torsions:
REMARK  status: ('A' for Active; 'I' for Inactive)
REMARK    1  A    between atoms: C_2  and  O_3
REMARK    2  A    between atoms: C_2  and  C_4
REMARK    3  A    between atoms: C_4  and  C_5
REMARK    4  A    between atoms: C_10  and  N_11
REMARK    5  A    between atoms: C_12  and  C_14
REMARK    6  A    between atoms: N_17  and  C_18
REMARK                            x       y       z     vdW  Elec       q    Type
REMARK                         _______ _______ _______ _____ _____    ______ ____
ROOT
ATOM      1  N   UNL     1       3.352   6.932  18.927  0.00  0.00    +0.000 N 
ATOM      2  C   UNL     1       3.262   5.560  19.118  0.00  0.00    +0.000 C 
ATOM      3  O   UNL     1       2.263   4.971  19.521  0.00  0.00    +0.000 OA
ATOM      4  H   UNL     1       4.217   7.298  18.543  0.00  0.00    +0.000 HD
ENDROOT
BRANCH   1  10
ATOM      5  C   UNL     1      -0.758  11.303  21.005  0.00  0.00    +0.000 C 
ATOM      6  O   UNL     1      -0.690  10.706  19.705  0.00  0.00    +0.000 OA
ATOM      7  C   UNL     1       0.294   9.767  19.567  0.00  0.00    +0.000 A 
ATOM      8  C   UNL     1       0.687   9.476  18.268  0.00  0.00    +0.000 A 
ATOM      9  C   UNL     1       1.692   8.533  18.047  0.00  0.00    +0.000 A 
ATOM     10  C   UNL     1       2.300   7.860  19.109  0.00  0.00    +0.000 A 
ATOM     11  C   UNL     1       1.862   8.121  20.417  0.00  0.00    +0.000 A 
ATOM     12  C   UNL     1       0.874   9.090  20.640  0.00  0.00    +0.000 A 
ATOM     13  N   UNL     1       0.451   9.379  21.939  0.00  0.00    +0.000 N 
ATOM     14  C   UNL     1      -0.440  10.389  22.196  0.00  0.00    +0.000 C 
ATOM     15  O   UNL     1      -0.865  10.593  23.330  0.00  0.00    +0.000 OA
ATOM     16  H   UNL     1       0.758   8.829  22.730  0.00  0.00    +0.000 HD
BRANCH   5  17
ATOM     17  C   UNL     1       0.180  12.508  21.043  0.00  0.00    +0.000 C 
BRANCH  17  19
ATOM     18  O   UNL     1       1.046  13.822  19.232  0.00  0.00    +0.000 OA
ATOM     19  C   UNL     1       0.067  13.408  19.839  0.00  0.00    +0.000 C 
BRANCH  19  20
ATOM     20  O   UNL     1      -1.186  13.650  19.404  0.00  0.00    +0.000 OA
ATOM     21  H   UNL     1      -1.310  14.519  18.969  0.00  0.00    +0.000 HD
ENDBRANCH  19  20
ENDBRANCH  17  19
ENDBRANCH   5  17
ENDBRANCH   1  10
BRANCH   2  22
ATOM     22  C   UNL     1       4.538   4.789  18.771  0.00  0.00    +0.000 C 
ATOM     23  C   UNL     1       5.609   5.685  18.130  0.00  0.00    +0.000 C 
ATOM     24  C   UNL     1       5.186   6.137  16.734  0.00  0.00    +0.000 C 
ATOM     25  N   UNL     1       4.908   4.959  15.914  0.00  0.00    +0.000 N 
ATOM     26  C   UNL     1       3.856   4.066  16.409  0.00  0.00    +0.000 C 
ATOM     27  C   UNL     1       4.218   3.609  17.829  0.00  0.00    +0.000 C 
BRANCH  25  28
ATOM     28  C   UNL     1       5.631   4.667  14.775  0.00  0.00    +0.000 A 
ATOM     29  C   UNL     1       5.188   3.712  13.848  0.00  0.00    +0.000 A 
ATOM     30  C   UNL     1       5.918   3.424  12.695  0.00  0.00    +0.000 A 
ATOM     31  F   UNL     1       5.444   2.512  11.835  0.00  0.00    +0.000 F 
ATOM     32  C   UNL     1       7.112   4.073  12.436  0.00  0.00    +0.000 A 
ATOM     33  F   UNL     1       7.810   3.792  11.326  0.00  0.00    +0.000 F 
ATOM     34  C   UNL     1       7.572   5.016  13.336  0.00  0.00    +0.000 A 
ATOM     35  F   UNL     1       8.730   5.653  13.111  0.00  0.00    +0.000 F 
ATOM     36  C   UNL     1       6.846   5.314  14.490  0.00  0.00    +0.000 A 
ENDBRANCH  25  28
ENDBRANCH   2  22
TORSDOF 6
ENDMDL
MODEL 5
REMARK VINA RESULT:      -8.6      7.805     11.022
REMARK  Name = 
REMARK  6 active torsions:
REMARK  status: ('A' for Active; 'I' for Inactive)
REMARK    1  A    between atoms: C_2  and  O_3
REMARK    2  A    between atoms: C_2  and  C_4
REMARK    3  A    between atoms: C_4  and  C_5
REMARK    4  A    between atoms: C_10  and  N_11
REMARK    5  A    between atoms: C_12  and  C_14
REMARK    6  A    between atoms: N_17  and  C_18
REMARK                            x       y       z     vdW  Elec       q    Type
REMARK                         _______ _______ _______ _____ _____    ______ ____
ROOT
ATOM      1  N   UNL     1       0.561  10.884  19.250  0.00  0.00    +0.000 N 
ATOM      2  C   UNL     1       1.127  12.143  19.391  0.00  0.00    +0.000 C 
ATOM      3  O   UNL     1       2.332  12.377  19.387  0.00  0.00    +0.000 OA
ATOM      4  H   UNL     1      -0.451  10.822  19.221  0.00  0.00    +0.000 HD
ENDROOT
BRANCH   1  10
ATOM      5  C   UNL     1       2.765   4.932  19.075  0.00  0.00    +0.000 C 
ATOM      6  O   UNL     1       3.225   6.063  18.328  0.00  0.00    +0.000 OA
ATOM      7  C   UNL     1       2.566   7.228  18.606  0.00  0.00    +0.000 A 
ATOM      8  C   UNL     1       2.655   8.228  17.647  0.00  0.00    +0.000 A 
ATOM      9  C   UNL     1       2.003   9.443  17.856  0.00  0.00    +0.000 A 
ATOM     10  C   UNL     1       1.273   9.682  19.023  0.00  0.00    +0.000 A 
ATOM     11  C   UNL     1       1.229   8.686  20.012  0.00  0.00    +0.000 A 
ATOM     12  C   UNL     1       1.860   7.455  19.787  0.00  0.00    +0.000 A 
ATOM     13  N   UNL     1       1.798   6.446  20.751  0.00  0.00    +0.000 N 
ATOM     14  C   UNL     1       2.321   5.199  20.519  0.00  0.00    +0.000 C 
ATOM     15  O   UNL     1       2.329   4.337  21.394  0.00  0.00    +0.000 OA
ATOM     16  H   UNL     1       1.401   6.612  21.666  0.00  0.00    +0.000 HD
BRANCH   5  17
ATOM     17  C   UNL     1       1.612   4.276  18.316  0.00  0.00    +0.000 C 
BRANCH  17  19
ATOM     18  O   UNL     1       0.312   2.270  18.510  0.00  0.00    +0.000 OA
ATOM     19  C   UNL     1       1.387   2.831  18.677  0.00  0.00    +0.000 C 
BRANCH  19  20
ATOM     20  O   UNL     1       2.474   2.157  19.104  0.00  0.00    +0.000 OA
ATOM     21  H   UNL     1       2.418   1.184  19.008  0.00  0.00    +0.000 HD
ENDBRANCH  19  20
ENDBRANCH  17  19
ENDBRANCH   5  17
ENDBRANCH   1  10
BRANCH   2  22
ATOM     22  C   UNL     1       0.111  13.278  19.551  0.00  0.00    +0.000 C 
ATOM     23  C   UNL     1       0.034  13.796  20.996  0.00  0.00    +0.000 C 
ATOM     24  C   UNL     1      -0.586  12.753  21.922  0.00  0.00    +0.000 C 
ATOM     25  N   UNL     1      -1.905  12.384  21.412  0.00  0.00    +0.000 N 
ATOM     26  C   UNL     1      -1.935  11.820  20.059  0.00  0.00    +0.000 C 
ATOM     27  C   UNL     1      -1.289  12.820  19.089  0.00  0.00    +0.000 C 
BRANCH  25  28
ATOM     28  C   UNL     1      -3.063  12.607  22.131  0.00  0.00    +0.000 A 
ATOM     29  C   UNL     1      -4.229  13.086  21.516  0.00  0.00    +0.000 A 
ATOM     30  C   UNL     1      -5.398  13.303  22.244  0.00  0.00    +0.000 A 
ATOM     31  F   UNL     1      -6.489  13.750  21.607  0.00  0.00    +0.000 F 
ATOM     32  C   UNL     1      -5.438  13.057  23.604  0.00  0.00    +0.000 A 
ATOM     33  F   UNL     1      -6.564  13.268  24.300  0.00  0.00    +0.000 F 
ATOM     34  C   UNL     1      -4.300  12.587  24.235  0.00  0.00    +0.000 A 
ATOM     35  F   UNL     1      -4.312  12.347  25.554  0.00  0.00    +0.000 F 
ATOM     36  C   UNL     1      -3.127  12.362  23.514  0.00  0.00    +0.000 A 
ENDBRANCH  25  28
ENDBRANCH   2  22
TORSDOF 6
ENDMDL
MODEL 6
REMARK VINA RESULT:      -8.6      1.416      2.017
REMARK  Name = 
REMARK  6 active torsions:
REMARK  status: ('A' for Active; 'I' for Inactive)
REMARK    1  A    between atoms: C_2  and  O_3
REMARK    2  A    between atoms: C_2  and  C_4
REMARK    3  A    between atoms: C_4  and  C_5
REMARK    4  A    between atoms: C_10  and  N_11
REMARK    5  A    between atoms: C_12  and  C_14
REMARK    6  A    between atoms: N_17  and  C_18
REMARK                            x       y       z     vdW  Elec       q    Type
REMARK                         _______ _______ _______ _____ _____    ______ ____
ROOT
ATOM      1  N   UNL     1       8.735   8.405  18.587  0.00  0.00    +0.000 N 
ATOM      2  C   UNL     1       7.707   8.095  17.708  0.00  0.00    +0.000 C 
ATOM      3  O   UNL     1       6.938   8.912  17.210  0.00  0.00    +0.000 OA
ATOM      4  H   UNL     1       9.336   7.647  18.894  0.00  0.00    +0.000 HD
ENDROOT
BRANCH   1  10
ATOM      5  C   UNL     1      10.006  14.601  19.139  0.00  0.00    +0.000 C 
ATOM      6  O   UNL     1      10.027  13.603  20.166  0.00  0.00    +0.000 OA
ATOM      7  C   UNL     1       9.735  12.341  19.731  0.00  0.00    +0.000 A 
ATOM      8  C   UNL     1       9.322  11.437  20.700  0.00  0.00    +0.000 A 
ATOM      9  C   UNL     1       8.998  10.131  20.332  0.00  0.00    +0.000 A 
ATOM     10  C   UNL     1       9.098   9.707  19.004  0.00  0.00    +0.000 A 
ATOM     11  C   UNL     1       9.565  10.610  18.037  0.00  0.00    +0.000 A 
ATOM     12  C   UNL     1       9.861  11.931  18.403  0.00  0.00    +0.000 A 
ATOM     13  N   UNL     1      10.297  12.847  17.444  0.00  0.00    +0.000 N 
ATOM     14  C   UNL     1      10.500  14.167  17.753  0.00  0.00    +0.000 C 
ATOM     15  O   UNL     1      10.953  14.955  16.925  0.00  0.00    +0.000 OA
ATOM     16  H   UNL     1      10.516  12.560  16.499  0.00  0.00    +0.000 HD
BRANCH   5  17
ATOM     17  C   UNL     1       8.585  15.145  19.010  0.00  0.00    +0.000 C 
BRANCH  17  19
ATOM     18  O   UNL     1       6.781  15.569  20.534  0.00  0.00    +0.000 OA
ATOM     19  C   UNL     1       7.985  15.602  20.315  0.00  0.00    +0.000 C 
BRANCH  19  20
ATOM     20  O   UNL     1       8.866  15.956  21.273  0.00  0.00    +0.000 OA
ATOM     21  H   UNL     1       9.368  15.212  21.665  0.00  0.00    +0.000 HD
ENDBRANCH  19  20
ENDBRANCH  17  19
ENDBRANCH   5  17
ENDBRANCH   1  10
BRANCH   2  22
ATOM     22  C   UNL     1       7.589   6.605  17.373  0.00  0.00    +0.000 C 
ATOM     23  C   UNL     1       6.372   6.299  16.485  0.00  0.00    +0.000 C 
ATOM     24  C   UNL     1       5.067   6.503  17.250  0.00  0.00    +0.000 C 
ATOM     25  N   UNL     1       5.080   5.669  18.450  0.00  0.00    +0.000 N 
ATOM     26  C   UNL     1       6.171   5.923  19.397  0.00  0.00    +0.000 C 
ATOM     27  C   UNL     1       7.512   5.765  18.665  0.00  0.00    +0.000 C 
BRANCH  25  28
ATOM     28  C   UNL     1       4.162   4.660  18.657  0.00  0.00    +0.000 A 
ATOM     29  C   UNL     1       2.924   4.907  19.268  0.00  0.00    +0.000 A 
ATOM     30  C   UNL     1       1.995   3.886  19.470  0.00  0.00    +0.000 A 
ATOM     31  F   UNL     1       0.821   4.177  20.047  0.00  0.00    +0.000 F 
ATOM     32  C   UNL     1       2.276   2.590  19.075  0.00  0.00    +0.000 A 
ATOM     33  F   UNL     1       1.380   1.612  19.272  0.00  0.00    +0.000 F 
ATOM     34  C   UNL     1       3.491   2.320  18.473  0.00  0.00    +0.000 A 
ATOM     35  F   UNL     1       3.789   1.070  18.089  0.00  0.00    +0.000 F 
ATOM     36  C   UNL     1       4.424   3.336  18.264  0.00  0.00    +0.000 A 
ENDBRANCH  25  28
ENDBRANCH   2  22
TORSDOF 6
ENDMDL
MODEL 7
REMARK VINA RESULT:      -8.6      6.162      7.819
REMARK  Name = 
REMARK  6 active torsions:
REMARK  status: ('A' for Active; 'I' for Inactive)
REMARK    1  A    between atoms: C_2  and  O_3
REMARK    2  A    between atoms: C_2  and  C_4
REMARK    3  A    between atoms: C_4  and  C_5
REMARK    4  A    between atoms: C_10  and  N_11
REMARK    5  A    between atoms: C_12  and  C_14
REMARK    6  A    between atoms: N_17  and  C_18
REMARK                            x       y       z     vdW  Elec       q    Type
REMARK                         _______ _______ _______ _____ _____    ______ ____
ROOT
ATOM      1  N   UNL     1       3.431   6.980  18.888  0.00  0.00    +0.000 N 
ATOM      2  C   UNL     1       3.363   5.606  19.066  0.00  0.00    +0.000 C 
ATOM      3  O   UNL     1       2.374   4.997  19.464  0.00  0.00    +0.000 OA
ATOM      4  H   UNL     1       4.290   7.364  18.507  0.00  0.00    +0.000 HD
ENDROOT
BRANCH   1  10
ATOM      5  C   UNL     1      -0.759  11.248  21.018  0.00  0.00    +0.000 C 
ATOM      6  O   UNL     1      -0.671  10.680  19.707  0.00  0.00    +0.000 OA
ATOM      7  C   UNL     1       0.327   9.758  19.558  0.00  0.00    +0.000 A 
ATOM      8  C   UNL     1       0.736   9.500  18.258  0.00  0.00    +0.000 A 
ATOM      9  C   UNL     1       1.756   8.576  18.026  0.00  0.00    +0.000 A 
ATOM     10  C   UNL     1       2.364   7.890  19.080  0.00  0.00    +0.000 A 
ATOM     11  C   UNL     1       1.911   8.116  20.388  0.00  0.00    +0.000 A 
ATOM     12  C   UNL     1       0.907   9.067  20.623  0.00  0.00    +0.000 A 
ATOM     13  N   UNL     1       0.469   9.323  21.923  0.00  0.00    +0.000 N 
ATOM     14  C   UNL     1      -0.440  10.314  22.193  0.00  0.00    +0.000 C 
ATOM     15  O   UNL     1      -0.877  10.488  23.327  0.00  0.00    +0.000 OA
ATOM     16  H   UNL     1       0.776   8.760  22.706  0.00  0.00    +0.000 HD
BRANCH   5  17
ATOM     17  C   UNL     1       0.161  12.466  21.090  0.00  0.00    +0.000 C 
BRANCH  17  19
ATOM     18  O   UNL     1      -0.697  14.509  20.172  0.00  0.00    +0.000 OA
ATOM     19  C   UNL     1      -0.072  13.473  19.993  0.00  0.00    +0.000 C 
BRANCH  19  20
ATOM     20  O   UNL     1       0.541  13.212  18.820  0.00  0.00    +0.000 OA
ATOM     21  H   UNL     1       0.812  14.006  18.313  0.00  0.00    +0.000 HD
ENDBRANCH  19  20
ENDBRANCH  17  19
ENDBRANCH   5  17
ENDBRANCH   1  10
BRANCH   2  22
ATOM     22  C   UNL     1       4.651   4.858  18.711  0.00  0.00    +0.000 C 
ATOM     23  C   UNL     1       5.685   5.764  18.024  0.00  0.00    +0.000 C 
ATOM     24  C   UNL     1       5.220   6.169  16.627  0.00  0.00    +0.000 C 
ATOM     25  N   UNL     1       4.956   4.964  15.843  0.00  0.00    +0.000 N 
ATOM     26  C   UNL     1       3.938   4.057  16.383  0.00  0.00    +0.000 C 
ATOM     27  C   UNL     1       4.342   3.646  17.806  0.00  0.00    +0.000 C 
BRANCH  25  28
ATOM     28  C   UNL     1       5.663   4.661  14.696  0.00  0.00    +0.000 A 
ATOM     29  C   UNL     1       6.888   5.278  14.403  0.00  0.00    +0.000 A 
ATOM     30  C   UNL     1       7.602   4.964  13.246  0.00  0.00    +0.000 A 
ATOM     31  F   UNL     1       8.773   5.573  13.019  0.00  0.00    +0.000 F 
ATOM     32  C   UNL     1       7.113   4.034  12.347  0.00  0.00    +0.000 A 
ATOM     33  F   UNL     1       7.802   3.737  11.236  0.00  0.00    +0.000 F 
ATOM     34  C   UNL     1       5.906   3.414  12.612  0.00  0.00    +0.000 A 
ATOM     35  F   UNL     1       5.408   2.514  11.751  0.00  0.00    +0.000 F 
ATOM     36  C   UNL     1       5.187   3.718  13.768  0.00  0.00    +0.000 A 
ENDBRANCH  25  28
ENDBRANCH   2  22
TORSDOF 6
ENDMDL
MODEL 8
REMARK VINA RESULT:      -8.5      7.804     11.049
REMARK  Name = 
REMARK  6 active torsions:
REMARK  status: ('A' for Active; 'I' for Inactive)
REMARK    1  A    between atoms: C_2  and  O_3
REMARK    2  A    between atoms: C_2  and  C_4
REMARK    3  A    between atoms: C_4  and  C_5
REMARK    4  A    between atoms: C_10  and  N_11
REMARK    5  A    between atoms: C_12  and  C_14
REMARK    6  A    between atoms: N_17  and  C_18
REMARK                            x       y       z     vdW  Elec       q    Type
REMARK                         _______ _______ _______ _____ _____    ______ ____
ROOT
ATOM      1  N   UNL     1       0.581  10.934  19.222  0.00  0.00    +0.000 N 
ATOM      2  C   UNL     1       1.160  12.192  19.319  0.00  0.00    +0.000 C 
ATOM      3  O   UNL     1       2.365  12.417  19.255  0.00  0.00    +0.000 OA
ATOM      4  H   UNL     1      -0.432  10.879  19.242  0.00  0.00    +0.000 HD
ENDROOT
BRANCH   1  10
ATOM      5  C   UNL     1       2.696   4.953  18.974  0.00  0.00    +0.000 C 
ATOM      6  O   UNL     1       3.171   6.085  18.238  0.00  0.00    +0.000 OA
ATOM      7  C   UNL     1       2.530   7.257  18.531  0.00  0.00    +0.000 A 
ATOM      8  C   UNL     1       2.631   8.266  17.584  0.00  0.00    +0.000 A 
ATOM      9  C   UNL     1       1.997   9.489  17.808  0.00  0.00    +0.000 A 
ATOM     10  C   UNL     1       1.274   9.725  18.980  0.00  0.00    +0.000 A 
ATOM     11  C   UNL     1       1.219   8.719  19.957  0.00  0.00    +0.000 A 
ATOM     12  C   UNL     1       1.831   7.481  19.717  0.00  0.00    +0.000 A 
ATOM     13  N   UNL     1       1.757   6.462  20.669  0.00  0.00    +0.000 N 
ATOM     14  C   UNL     1       2.260   5.211  20.423  0.00  0.00    +0.000 C 
ATOM     15  O   UNL     1       2.258   4.339  21.288  0.00  0.00    +0.000 OA
ATOM     16  H   UNL     1       1.365   6.623  21.588  0.00  0.00    +0.000 HD
BRANCH   5  17
ATOM     17  C   UNL     1       1.532   4.323  18.212  0.00  0.00    +0.000 C 
BRANCH  17  19
ATOM     18  O   UNL     1       0.323   2.432  19.059  0.00  0.00    +0.000 OA
ATOM     19  C   UNL     1       1.328   2.859  18.507  0.00  0.00    +0.000 C 
BRANCH  19  20
ATOM     20  O   UNL     1       2.279   2.028  18.034  0.00  0.00    +0.000 OA
ATOM     21  H   UNL     1       2.991   2.467  17.523  0.00  0.00    +0.000 HD
ENDBRANCH  19  20
ENDBRANCH  17  19
ENDBRANCH   5  17
ENDBRANCH   1  10
BRANCH   2  22
ATOM     22  C   UNL     1       0.159  13.335  19.509  0.00  0.00    +0.000 C 
ATOM     23  C   UNL     1       0.080  13.807  20.970  0.00  0.00    +0.000 C 
ATOM     24  C   UNL     1      -0.561  12.743  21.858  0.00  0.00    +0.000 C 
ATOM     25  N   UNL     1      -1.882  12.410  21.327  0.00  0.00    +0.000 N 
ATOM     26  C   UNL     1      -1.911  11.892  19.956  0.00  0.00    +0.000 C 
ATOM     27  C   UNL     1      -1.244  12.913  19.024  0.00  0.00    +0.000 C 
BRANCH  25  28
ATOM     28  C   UNL     1      -3.041  12.626  22.046  0.00  0.00    +0.000 A 
ATOM     29  C   UNL     1      -3.101  12.400  23.429  0.00  0.00    +0.000 A 
ATOM     30  C   UNL     1      -4.272  12.625  24.152  0.00  0.00    +0.000 A 
ATOM     31  F   UNL     1      -4.273  12.406  25.474  0.00  0.00    +0.000 F 
ATOM     32  C   UNL     1      -5.417  13.074  23.519  0.00  0.00    +0.000 A 
ATOM     33  F   UNL     1      -6.540  13.288  24.219  0.00  0.00    +0.000 F 
ATOM     34  C   UNL     1      -5.384  13.301  22.155  0.00  0.00    +0.000 A 
ATOM     35  F   UNL     1      -6.483  13.730  21.517  0.00  0.00    +0.000 F 
ATOM     36  C   UNL     1      -4.216  13.083  21.424  0.00  0.00    +0.000 A 
ENDBRANCH  25  28
ENDBRANCH   2  22
TORSDOF 6
ENDMDL
MODEL 9
REMARK VINA RESULT:      -8.5      8.027     11.275
REMARK  Name = 
REMARK  6 active torsions:
REMARK  status: ('A' for Active; 'I' for Inactive)
REMARK    1  A    between atoms: C_2  and  O_3
REMARK    2  A    between atoms: C_2  and  C_4
REMARK    3  A    between atoms: C_4  and  C_5
REMARK    4  A    between atoms: C_10  and  N_11
REMARK    5  A    between atoms: C_12  and  C_14
REMARK    6  A    between atoms: N_17  and  C_18
REMARK                            x       y       z     vdW  Elec       q    Type
REMARK                         _______ _______ _______ _____ _____    ______ ____
ROOT
ATOM      1  N   UNL     1       1.385  10.484  18.972  0.00  0.00    +0.000 N 
ATOM      2  C   UNL     1       0.131  10.864  18.515  0.00  0.00    +0.000 C 
ATOM      3  O   UNL     1      -0.640  10.136  17.895  0.00  0.00    +0.000 OA
ATOM      4  H   UNL     1       1.912  11.160  19.516  0.00  0.00    +0.000 HD
ENDROOT
BRANCH   1  10
ATOM      5  C   UNL     1       2.819   4.304  19.211  0.00  0.00    +0.000 C 
ATOM      6  O   UNL     1       3.470   5.330  18.454  0.00  0.00    +0.000 OA
ATOM      7  C   UNL     1       2.947   6.580  18.633  0.00  0.00    +0.000 A 
ATOM      8  C   UNL     1       3.230   7.512  17.644  0.00  0.00    +0.000 A 
ATOM      9  C   UNL     1       2.724   8.808  17.752  0.00  0.00    +0.000 A 
ATOM     10  C   UNL     1       1.951   9.194  18.850  0.00  0.00    +0.000 A 
ATOM     11  C   UNL     1       1.713   8.263  19.872  0.00  0.00    +0.000 A 
ATOM     12  C   UNL     1       2.195   6.952  19.747  0.00  0.00    +0.000 A 
ATOM     13  N   UNL     1       1.939   6.009  20.744  0.00  0.00    +0.000 N 
ATOM     14  C   UNL     1       2.313   4.697  20.605  0.00  0.00    +0.000 C 
ATOM     15  O   UNL     1       2.150   3.886  21.513  0.00  0.00    +0.000 OA
ATOM     16  H   UNL     1       1.503   6.269  21.619  0.00  0.00    +0.000 HD
BRANCH   5  17
ATOM     17  C   UNL     1       1.647   3.759  18.395  0.00  0.00    +0.000 C 
BRANCH  17  19
ATOM     18  O   UNL     1       0.204   1.902  18.867  0.00  0.00    +0.000 OA
ATOM     19  C   UNL     1       1.340   2.308  18.661  0.00  0.00    +0.000 C 
BRANCH  19  20
ATOM     20  O   UNL     1       2.383   1.460  18.558  0.00  0.00    +0.000 OA
ATOM     21  H   UNL     1       3.251   1.891  18.416  0.00  0.00    +0.000 HD
ENDBRANCH  19  20
ENDBRANCH  17  19
ENDBRANCH   5  17
ENDBRANCH   1  10
BRANCH   2  22
ATOM     22  C   UNL     1      -0.256  12.306  18.852  0.00  0.00    +0.000 C 
ATOM     23  C   UNL     1       0.001  12.652  20.327  0.00  0.00    +0.000 C 
ATOM     24  C   UNL     1      -0.959  11.899  21.245  0.00  0.00    +0.000 C 
ATOM     25  N   UNL     1      -2.334  12.203  20.852  0.00  0.00    +0.000 N 
ATOM     26  C   UNL     1      -2.701  11.855  19.476  0.00  0.00    +0.000 C 
ATOM     27  C   UNL     1      -1.739  12.562  18.511  0.00  0.00    +0.000 C 
BRANCH  25  28
ATOM     28  C   UNL     1      -3.220  12.837  21.701  0.00  0.00    +0.000 A 
ATOM     29  C   UNL     1      -3.388  12.421  23.030  0.00  0.00    +0.000 A 
ATOM     30  C   UNL     1      -4.280  13.068  23.886  0.00  0.00    +0.000 A 
ATOM     31  F   UNL     1      -4.395  12.640  25.150  0.00  0.00    +0.000 F 
ATOM     32  C   UNL     1      -5.032  14.141  23.441  0.00  0.00    +0.000 A 
ATOM     33  F   UNL     1      -5.888  14.758  24.268  0.00  0.00    +0.000 F 
ATOM     34  C   UNL     1      -4.886  14.568  22.134  0.00  0.00    +0.000 A 
ATOM     35  F   UNL     1      -5.609  15.600  21.678  0.00  0.00    +0.000 F 
ATOM     36  C   UNL     1      -3.994  13.929  21.272  0.00  0.00    +0.000 A 
ENDBRANCH  25  28
ENDBRANCH   2  22
TORSDOF 6
ENDMDL
