MODEL 1
REMARK VINA RESULT:      -7.1      0.000      0.000
REMARK  Name = 
REMARK  1 active torsions:
REMARK  status: ('A' for Active; 'I' for Inactive)
REMARK    1  A    between atoms: C_7  and  N_8
REMARK                            x       y       z     vdW  Elec       q    Type
REMARK                         _______ _______ _______ _____ _____    ______ ____
ROOT
ATOM      1  C   UNL     1       6.132   4.391  14.145  0.00  0.00    +0.000 A 
ATOM      2  C   UNL     1       7.284   4.865  14.763  0.00  0.00    +0.000 A 
ATOM      3  C   UNL     1       7.358   4.907  16.157  0.00  0.00    +0.000 A 
ATOM      4  C   UNL     1       6.302   4.489  16.956  0.00  0.00    +0.000 A 
ATOM      5  N   UNL     1       6.417   4.560  18.287  0.00  0.00    +0.000 NA
ATOM      6  C   UNL     1       5.353   4.158  19.030  0.00  0.00    +0.000 A 
ATOM      7  C   UNL     1       4.137   3.669  18.544  0.00  0.00    +0.000 A 
ATOM      8  C   UNL     1       4.066   3.600  17.150  0.00  0.00    +0.000 A 
ATOM      9  C   UNL     1       5.135   4.011  16.330  0.00  0.00    +0.000 A 
ATOM     10  C   UNL     1       5.059   3.963  14.926  0.00  0.00    +0.000 A 
ENDROOT
BRANCH   7  11
ATOM     11  N   UNL     1       3.098   3.284  19.361  0.00  0.00    +0.000 N 
ATOM     12  C   UNL     1       2.728   4.002  20.589  0.00  0.00    +0.000 C 
ATOM     13  C   UNL     1       1.218   4.348  20.561  0.00  0.00    +0.000 C 
ATOM     14  N   UNL     1       0.337   3.191  20.299  0.00  0.00    +0.000 NA
ATOM     15  C   UNL     1       0.769   2.514  19.060  0.00  0.00    +0.000 C 
ATOM     16  C   UNL     1       2.258   2.107  19.084  0.00  0.00    +0.000 C 
ATOM     17  H   UNL     1      -0.619   3.522  20.179  0.00  0.00    +0.000 HD
ENDBRANCH   7  11
TORSDOF 1
ENDMDL
MODEL 2
REMARK VINA RESULT:      -7.1      1.443      6.186
REMARK  Name = 
REMARK  1 active torsions:
REMARK  status: ('A' for Active; 'I' for Inactive)
REMARK    1  A    between atoms: C_7  and  N_8
REMARK                            x       y       z     vdW  Elec       q    Type
REMARK                         _______ _______ _______ _____ _____    ______ ____
ROOT
ATOM      1  C   UNL     1       1.865   3.046  21.576  0.00  0.00    +0.000 A 
ATOM      2  C   UNL     1       0.735   2.880  20.783  0.00  0.00    +0.000 A 
ATOM      3  C   UNL     1       0.842   2.974  19.394  0.00  0.00    +0.000 A 
ATOM      4  C   UNL     1       2.055   3.237  18.772  0.00  0.00    +0.000 A 
ATOM      5  N   UNL     1       2.103   3.330  17.438  0.00  0.00    +0.000 NA
ATOM      6  C   UNL     1       3.307   3.607  16.872  0.00  0.00    +0.000 A 
ATOM      7  C   UNL     1       4.516   3.803  17.545  0.00  0.00    +0.000 A 
ATOM      8  C   UNL     1       4.421   3.684  18.934  0.00  0.00    +0.000 A 
ATOM      9  C   UNL     1       3.199   3.407  19.575  0.00  0.00    +0.000 A 
ATOM     10  C   UNL     1       3.096   3.307  20.975  0.00  0.00    +0.000 A 
ENDROOT
BRANCH   7  11
ATOM     11  N   UNL     1       5.700   4.086  16.902  0.00  0.00    +0.000 N 
ATOM     12  C   UNL     1       5.959   3.737  15.497  0.00  0.00    +0.000 C 
ATOM     13  C   UNL     1       6.432   4.992  14.723  0.00  0.00    +0.000 C 
ATOM     14  N   UNL     1       7.573   5.695  15.348  0.00  0.00    +0.000 NA
ATOM     15  C   UNL     1       7.248   6.006  16.754  0.00  0.00    +0.000 C 
ATOM     16  C   UNL     1       6.828   4.762  17.565  0.00  0.00    +0.000 C 
ATOM     17  H   UNL     1       7.741   6.566  14.847  0.00  0.00    +0.000 HD
ENDBRANCH   7  11
TORSDOF 1
ENDMDL
MODEL 3
REMARK VINA RESULT:      -7.1      0.762      1.405
REMARK  Name = 
REMARK  1 active torsions:
REMARK  status: ('A' for Active; 'I' for Inactive)
REMARK    1  A    between atoms: C_7  and  N_8
REMARK                            x       y       z     vdW  Elec       q    Type
REMARK                         _______ _______ _______ _____ _____    ______ ____
ROOT
ATOM      1  C   UNL     1       6.315   4.741  14.379  0.00  0.00    +0.000 A 
ATOM      2  C   UNL     1       7.494   4.825  15.112  0.00  0.00    +0.000 A 
ATOM      3  C   UNL     1       7.451   4.751  16.506  0.00  0.00    +0.000 A 
ATOM      4  C   UNL     1       6.253   4.600  17.192  0.00  0.00    +0.000 A 
ATOM      5  N   UNL     1       6.264   4.547  18.529  0.00  0.00    +0.000 NA
ATOM      6  C   UNL     1       5.069   4.417  19.161  0.00  0.00    +0.000 A 
ATOM      7  C   UNL     1       3.813   4.328  18.553  0.00  0.00    +0.000 A 
ATOM      8  C   UNL     1       3.851   4.374  17.157  0.00  0.00    +0.000 A 
ATOM      9  C   UNL     1       5.060   4.517  16.450  0.00  0.00    +0.000 A 
ATOM     10  C   UNL     1       5.100   4.586  15.045  0.00  0.00    +0.000 A 
ENDROOT
BRANCH   7  11
ATOM     11  N   UNL     1       2.639   4.202  19.261  0.00  0.00    +0.000 N 
ATOM     12  C   UNL     1       1.402   3.658  18.682  0.00  0.00    +0.000 C 
ATOM     13  C   UNL     1       0.861   2.515  19.578  0.00  0.00    +0.000 C 
ATOM     14  N   UNL     1       0.702   2.884  21.000  0.00  0.00    +0.000 NA
ATOM     15  C   UNL     1       1.975   3.429  21.512  0.00  0.00    +0.000 C 
ATOM     16  C   UNL     1       2.509   4.608  20.670  0.00  0.00    +0.000 C 
ATOM     17  H   UNL     1       0.460   2.051  21.534  0.00  0.00    +0.000 HD
ENDBRANCH   7  11
TORSDOF 1
ENDMDL
MODEL 4
REMARK VINA RESULT:      -7.0      1.567      2.576
REMARK  Name = 
REMARK  1 active torsions:
REMARK  status: ('A' for Active; 'I' for Inactive)
REMARK    1  A    between atoms: C_7  and  N_8
REMARK                            x       y       z     vdW  Elec       q    Type
REMARK                         _______ _______ _______ _____ _____    ______ ____
ROOT
ATOM      1  C   UNL     1       6.296   3.697  12.060  0.00  0.00    +0.000 A 
ATOM      2  C   UNL     1       7.396   4.547  12.075  0.00  0.00    +0.000 A 
ATOM      3  C   UNL     1       7.787   5.155  13.271  0.00  0.00    +0.000 A 
ATOM      4  C   UNL     1       7.100   4.938  14.458  0.00  0.00    +0.000 A 
ATOM      5  N   UNL     1       7.507   5.554  15.574  0.00  0.00    +0.000 NA
ATOM      6  C   UNL     1       6.796   5.328  16.709  0.00  0.00    +0.000 A 
ATOM      7  C   UNL     1       5.671   4.507  16.836  0.00  0.00    +0.000 A 
ATOM      8  C   UNL     1       5.291   3.874  15.649  0.00  0.00    +0.000 A 
ATOM      9  C   UNL     1       5.986   4.078  14.441  0.00  0.00    +0.000 A 
ATOM     10  C   UNL     1       5.592   3.461  13.240  0.00  0.00    +0.000 A 
ENDROOT
BRANCH   7  11
ATOM     11  N   UNL     1       4.996   4.329  18.022  0.00  0.00    +0.000 N 
ATOM     12  C   UNL     1       5.054   5.288  19.134  0.00  0.00    +0.000 C 
ATOM     13  C   UNL     1       3.618   5.678  19.567  0.00  0.00    +0.000 C 
ATOM     14  N   UNL     1       2.741   4.526  19.862  0.00  0.00    +0.000 NA
ATOM     15  C   UNL     1       2.737   3.603  18.710  0.00  0.00    +0.000 C 
ATOM     16  C   UNL     1       4.153   3.153  18.293  0.00  0.00    +0.000 C 
ATOM     17  H   UNL     1       1.793   4.863  20.020  0.00  0.00    +0.000 HD
ENDBRANCH   7  11
TORSDOF 1
ENDMDL
MODEL 5
REMARK VINA RESULT:      -7.0      2.229      2.833
REMARK  Name = 
REMARK  1 active torsions:
REMARK  status: ('A' for Active; 'I' for Inactive)
REMARK    1  A    between atoms: C_7  and  N_8
REMARK                            x       y       z     vdW  Elec       q    Type
REMARK                         _______ _______ _______ _____ _____    ______ ____
ROOT
ATOM      1  C   UNL     1       8.187   6.717  18.627  0.00  0.00    +0.000 A 
ATOM      2  C   UNL     1       7.751   7.442  17.523  0.00  0.00    +0.000 A 
ATOM      3  C   UNL     1       6.455   7.257  17.038  0.00  0.00    +0.000 A 
ATOM      4  C   UNL     1       5.578   6.356  17.626  0.00  0.00    +0.000 A 
ATOM      5  N   UNL     1       4.350   6.206  17.116  0.00  0.00    +0.000 NA
ATOM      6  C   UNL     1       3.531   5.300  17.712  0.00  0.00    +0.000 A 
ATOM      7  C   UNL     1       3.838   4.502  18.817  0.00  0.00    +0.000 A 
ATOM      8  C   UNL     1       5.125   4.702  19.325  0.00  0.00    +0.000 A 
ATOM      9  C   UNL     1       6.019   5.621  18.743  0.00  0.00    +0.000 A 
ATOM     10  C   UNL     1       7.323   5.808  19.238  0.00  0.00    +0.000 A 
ENDROOT
BRANCH   7  11
ATOM     11  N   UNL     1       2.955   3.600  19.365  0.00  0.00    +0.000 N 
ATOM     12  C   UNL     1       3.327   2.646  20.420  0.00  0.00    +0.000 C 
ATOM     13  C   UNL     1       2.341   2.767  21.610  0.00  0.00    +0.000 C 
ATOM     14  N   UNL     1       0.917   2.659  21.230  0.00  0.00    +0.000 NA
ATOM     15  C   UNL     1       0.617   3.636  20.165  0.00  0.00    +0.000 C 
ATOM     16  C   UNL     1       1.548   3.500  18.942  0.00  0.00    +0.000 C 
ATOM     17  H   UNL     1       0.340   2.868  22.043  0.00  0.00    +0.000 HD
ENDBRANCH   7  11
TORSDOF 1
ENDMDL
MODEL 6
REMARK VINA RESULT:      -7.0      1.588      2.794
REMARK  Name = 
REMARK  1 active torsions:
REMARK  status: ('A' for Active; 'I' for Inactive)
REMARK    1  A    between atoms: C_7  and  N_8
REMARK                            x       y       z     vdW  Elec       q    Type
REMARK                         _______ _______ _______ _____ _____    ______ ____
ROOT
ATOM      1  C   UNL     1       6.397   3.673  12.007  0.00  0.00    +0.000 A 
ATOM      2  C   UNL     1       7.508   4.508  12.047  0.00  0.00    +0.000 A 
ATOM      3  C   UNL     1       7.825   5.187  13.226  0.00  0.00    +0.000 A 
ATOM      4  C   UNL     1       7.052   5.057  14.372  0.00  0.00    +0.000 A 
ATOM      5  N   UNL     1       7.391   5.738  15.473  0.00  0.00    +0.000 NA
ATOM      6  C   UNL     1       6.597   5.595  16.566  0.00  0.00    +0.000 A 
ATOM      7  C   UNL     1       5.452   4.799  16.665  0.00  0.00    +0.000 A 
ATOM      8  C   UNL     1       5.145   4.097  15.496  0.00  0.00    +0.000 A 
ATOM      9  C   UNL     1       5.927   4.213  14.331  0.00  0.00    +0.000 A 
ATOM     10  C   UNL     1       5.607   3.524  13.147  0.00  0.00    +0.000 A 
ENDROOT
BRANCH   7  11
ATOM     11  N   UNL     1       4.692   4.708  17.808  0.00  0.00    +0.000 N 
ATOM     12  C   UNL     1       3.262   5.045  17.856  0.00  0.00    +0.000 C 
ATOM     13  C   UNL     1       2.464   3.865  18.467  0.00  0.00    +0.000 C 
ATOM     14  N   UNL     1       2.977   3.400  19.773  0.00  0.00    +0.000 NA
ATOM     15  C   UNL     1       4.415   3.089  19.654  0.00  0.00    +0.000 C 
ATOM     16  C   UNL     1       5.243   4.268  19.101  0.00  0.00    +0.000 C 
ATOM     17  H   UNL     1       2.477   2.555  20.044  0.00  0.00    +0.000 HD
ENDBRANCH   7  11
TORSDOF 1
ENDMDL
MODEL 7
REMARK VINA RESULT:      -6.9      1.816      6.065
REMARK  Name = 
REMARK  1 active torsions:
REMARK  status: ('A' for Active; 'I' for Inactive)
REMARK    1  A    between atoms: C_7  and  N_8
REMARK                            x       y       z     vdW  Elec       q    Type
REMARK                         _______ _______ _______ _____ _____    ______ ____
ROOT
ATOM      1  C   UNL     1       2.652   2.249  21.575  0.00  0.00    +0.000 A 
ATOM      2  C   UNL     1       1.367   2.774  21.486  0.00  0.00    +0.000 A 
ATOM      3  C   UNL     1       1.068   3.716  20.500  0.00  0.00    +0.000 A 
ATOM      4  C   UNL     1       2.027   4.155  19.597  0.00  0.00    +0.000 A 
ATOM      5  N   UNL     1       1.694   5.069  18.678  0.00  0.00    +0.000 NA
ATOM      6  C   UNL     1       2.667   5.484  17.826  0.00  0.00    +0.000 A 
ATOM      7  C   UNL     1       3.995   5.049  17.806  0.00  0.00    +0.000 A 
ATOM      8  C   UNL     1       4.294   4.086  18.773  0.00  0.00    +0.000 A 
ATOM      9  C   UNL     1       3.328   3.625  19.688  0.00  0.00    +0.000 A 
ATOM     10  C   UNL     1       3.631   2.672  20.677  0.00  0.00    +0.000 A 
ENDROOT
BRANCH   7  11
ATOM     11  N   UNL     1       4.930   5.520  16.912  0.00  0.00    +0.000 N 
ATOM     12  C   UNL     1       5.668   6.778  17.104  0.00  0.00    +0.000 C 
ATOM     13  C   UNL     1       7.190   6.518  16.979  0.00  0.00    +0.000 C 
ATOM     14  N   UNL     1       7.585   5.818  15.739  0.00  0.00    +0.000 NA
ATOM     15  C   UNL     1       6.802   4.573  15.607  0.00  0.00    +0.000 C 
ATOM     16  C   UNL     1       5.278   4.810  15.671  0.00  0.00    +0.000 C 
ATOM     17  H   UNL     1       8.575   5.581  15.792  0.00  0.00    +0.000 HD
ENDBRANCH   7  11
TORSDOF 1
ENDMDL
MODEL 8
REMARK VINA RESULT:      -6.8      1.700      5.896
REMARK  Name = 
REMARK  1 active torsions:
REMARK  status: ('A' for Active; 'I' for Inactive)
REMARK    1  A    between atoms: C_7  and  N_8
REMARK                            x       y       z     vdW  Elec       q    Type
REMARK                         _______ _______ _______ _____ _____    ______ ____
ROOT
ATOM      1  C   UNL     1       0.649   3.282  20.553  0.00  0.00    +0.000 A 
ATOM      2  C   UNL     1       1.471   2.624  21.461  0.00  0.00    +0.000 A 
ATOM      3  C   UNL     1       2.853   2.597  21.254  0.00  0.00    +0.000 A 
ATOM      4  C   UNL     1       3.437   3.209  20.154  0.00  0.00    +0.000 A 
ATOM      5  N   UNL     1       4.764   3.144  19.994  0.00  0.00    +0.000 NA
ATOM      6  C   UNL     1       5.292   3.742  18.894  0.00  0.00    +0.000 A 
ATOM      7  C   UNL     1       4.587   4.428  17.901  0.00  0.00    +0.000 A 
ATOM      8  C   UNL     1       3.207   4.482  18.116  0.00  0.00    +0.000 A 
ATOM      9  C   UNL     1       2.604   3.874  19.234  0.00  0.00    +0.000 A 
ATOM     10  C   UNL     1       1.213   3.907  19.442  0.00  0.00    +0.000 A 
ENDROOT
BRANCH   7  11
ATOM     11  N   UNL     1       5.191   5.006  16.808  0.00  0.00    +0.000 N 
ATOM     12  C   UNL     1       5.809   6.340  16.839  0.00  0.00    +0.000 C 
ATOM     13  C   UNL     1       7.262   6.259  16.307  0.00  0.00    +0.000 C 
ATOM     14  N   UNL     1       7.388   5.611  14.985  0.00  0.00    +0.000 NA
ATOM     15  C   UNL     1       6.742   4.284  15.024  0.00  0.00    +0.000 C 
ATOM     16  C   UNL     1       5.273   4.342  15.496  0.00  0.00    +0.000 C 
ATOM     17  H   UNL     1       8.375   5.491  14.767  0.00  0.00    +0.000 HD
ENDBRANCH   7  11
TORSDOF 1
ENDMDL
MODEL 9
REMARK VINA RESULT:      -6.8      1.842      5.915
REMARK  Name = 
REMARK  1 active torsions:
REMARK  status: ('A' for Active; 'I' for Inactive)
REMARK    1  A    between atoms: C_7  and  N_8
REMARK                            x       y       z     vdW  Elec       q    Type
REMARK                         _______ _______ _______ _____ _____    ______ ____
ROOT
ATOM      1  C   UNL     1       0.709   2.134  19.062  0.00  0.00    +0.000 A 
ATOM      2  C   UNL     1       0.399   2.935  20.156  0.00  0.00    +0.000 A 
ATOM      3  C   UNL     1       1.066   4.149  20.339  0.00  0.00    +0.000 A 
ATOM      4  C   UNL     1       2.044   4.584  19.455  0.00  0.00    +0.000 A 
ATOM      5  N   UNL     1       2.663   5.749  19.681  0.00  0.00    +0.000 NA
ATOM      6  C   UNL     1       3.626   6.127  18.800  0.00  0.00    +0.000 A 
ATOM      7  C   UNL     1       4.041   5.421  17.668  0.00  0.00    +0.000 A 
ATOM      8  C   UNL     1       3.359   4.218  17.464  0.00  0.00    +0.000 A 
ATOM      9  C   UNL     1       2.358   3.772  18.348  0.00  0.00    +0.000 A 
ATOM     10  C   UNL     1       1.685   2.551  18.159  0.00  0.00    +0.000 A 
ENDROOT
BRANCH   7  11
ATOM     11  N   UNL     1       5.030   5.867  16.821  0.00  0.00    +0.000 N 
ATOM     12  C   UNL     1       5.946   6.967  17.159  0.00  0.00    +0.000 C 
ATOM     13  C   UNL     1       7.413   6.508  16.963  0.00  0.00    +0.000 C 
ATOM     14  N   UNL     1       7.694   5.930  15.632  0.00  0.00    +0.000 NA
ATOM     15  C   UNL     1       6.735   4.841  15.356  0.00  0.00    +0.000 C 
ATOM     16  C   UNL     1       5.263   5.286  15.489  0.00  0.00    +0.000 C 
ATOM     17  H   UNL     1       8.638   5.548  15.628  0.00  0.00    +0.000 HD
ENDBRANCH   7  11
TORSDOF 1
ENDMDL
