MODEL 1
REMARK VINA RESULT:      -8.4      0.000      0.000
REMARK  Name = 
REMARK  9 active torsions:
REMARK  status: ('A' for Active; 'I' for Inactive)
REMARK    1  A    between atoms: C_1  and  C_2
REMARK    2  A    between atoms: C_4  and  C_5
REMARK    3  A    between atoms: C_6  and  C_7
REMARK    4  A    between atoms: C_7  and  N_8
REMARK    5  A    between atoms: C_11  and  O_12
REMARK    6  A    between atoms: O_12  and  C_13
REMARK    7  A    between atoms: C_13  and  C_14
REMARK    8  A    between atoms: C_16  and  C_17
REMARK    9  A    between atoms: C_24  and  C_25
REMARK                            x       y       z     vdW  Elec       q    Type
REMARK                         _______ _______ _______ _____ _____    ______ ____
ROOT
ATOM      1  N   UNL     1       3.760   6.078  17.457  0.00  0.00    +0.000 N 
ATOM      2  C   UNL     1       2.911   6.020  18.571  0.00  0.00    +0.000 A 
ATOM      3  C   UNL     1       2.583   7.202  19.205  0.00  0.00    +0.000 A 
ATOM      4  C   UNL     1       1.824   7.081  20.335  0.00  0.00    +0.000 A 
ATOM      5  N   UNL     1       1.330   5.918  20.767  0.00  0.00    +0.000 NA
ATOM      6  C   UNL     1       1.623   4.819  20.063  0.00  0.00    +0.000 A 
ATOM      7  N   UNL     1       2.435   4.837  18.980  0.00  0.00    +0.000 NA
ATOM      8  H   UNL     1       3.223   6.390  16.653  0.00  0.00    +0.000 HD
ENDROOT
BRANCH   6   9
ATOM      9  C   UNL     1       0.993   3.512  20.466  0.00  0.00    +0.000 C 
ATOM     10  C   UNL     1       1.777   2.221  20.376  0.00  0.00    +0.000 C 
ATOM     11  C   UNL     1       1.448   2.794  21.722  0.00  0.00    +0.000 C 
ENDBRANCH   6   9
BRANCH   1  12
ATOM     12  C   UNL     1       4.482   4.837  17.178  0.00  0.00    +0.000 C 
BRANCH  12  18
ATOM     13  C   UNL     1       7.555   4.845  12.832  0.00  0.00    +0.000 C 
ATOM     14  C   UNL     1       6.989   5.015  14.196  0.00  0.00    +0.000 A 
ATOM     15  N   UNL     1       7.635   5.560  15.203  0.00  0.00    +0.000 NA
ATOM     16  C   UNL     1       6.835   5.572  16.334  0.00  0.00    +0.000 A 
ATOM     17  C   UNL     1       7.393   6.145  17.588  0.00  0.00    +0.000 C 
ATOM     18  C   UNL     1       5.573   5.021  16.163  0.00  0.00    +0.000 A 
ATOM     19  S   UNL     1       5.394   4.483  14.545  0.00  0.00    +0.000 S 
ENDBRANCH  12  18
ENDBRANCH   1  12
BRANCH   4  20
ATOM     20  O   UNL     1       1.540   8.234  21.040  0.00  0.00    +0.000 OA
BRANCH  20  21
ATOM     21  C   UNL     1       1.499   9.394  20.200  0.00  0.00    +0.000 C 
BRANCH  21  22
ATOM     22  C   UNL     1       0.082   9.871  20.135  0.00  0.00    +0.000 C 
ATOM     23  C   UNL     1      -0.309  11.218  20.677  0.00  0.00    +0.000 C 
ATOM     24  C   UNL     1      -0.317  10.990  19.182  0.00  0.00    +0.000 C 
BRANCH  24  25
ATOM     25  C   UNL     1      -1.603  10.815  18.410  0.00  0.00    +0.000 A 
ATOM     26  C   UNL     1      -1.693   9.954  17.315  0.00  0.00    +0.000 A 
ATOM     27  C   UNL     1      -2.894   9.848  16.615  0.00  0.00    +0.000 A 
ATOM     28  C   UNL     1      -3.987  10.599  17.025  0.00  0.00    +0.000 A 
ATOM     29  C   UNL     1      -3.834  11.415  18.129  0.00  0.00    +0.000 A 
ATOM     30  N   UNL     1      -2.679  11.532  18.822  0.00  0.00    +0.000 NA
ENDBRANCH  24  25
ENDBRANCH  21  22
ENDBRANCH  20  21
ENDBRANCH   4  20
TORSDOF 7
ENDMDL
MODEL 2
REMARK VINA RESULT:      -8.2      4.630      8.856
REMARK  Name = 
REMARK  9 active torsions:
REMARK  status: ('A' for Active; 'I' for Inactive)
REMARK    1  A    between atoms: C_1  and  C_2
REMARK    2  A    between atoms: C_4  and  C_5
REMARK    3  A    between atoms: C_6  and  C_7
REMARK    4  A    between atoms: C_7  and  N_8
REMARK    5  A    between atoms: C_11  and  O_12
REMARK    6  A    between atoms: O_12  and  C_13
REMARK    7  A    between atoms: C_13  and  C_14
REMARK    8  A    between atoms: C_16  and  C_17
REMARK    9  A    between atoms: C_24  and  C_25
REMARK                            x       y       z     vdW  Elec       q    Type
REMARK                         _______ _______ _______ _____ _____    ______ ____
ROOT
ATOM      1  N   UNL     1       5.743   3.945  19.374  0.00  0.00    +0.000 N 
ATOM      2  C   UNL     1       6.244   4.842  18.419  0.00  0.00    +0.000 A 
ATOM      3  C   UNL     1       7.105   5.834  18.844  0.00  0.00    +0.000 A 
ATOM      4  C   UNL     1       7.494   6.733  17.891  0.00  0.00    +0.000 A 
ATOM      5  N   UNL     1       7.162   6.626  16.601  0.00  0.00    +0.000 NA
ATOM      6  C   UNL     1       6.386   5.597  16.243  0.00  0.00    +0.000 A 
ATOM      7  N   UNL     1       5.888   4.709  17.134  0.00  0.00    +0.000 NA
ATOM      8  H   UNL     1       6.463   3.262  19.589  0.00  0.00    +0.000 HD
ENDROOT
BRANCH   6   9
ATOM      9  C   UNL     1       6.085   5.393  14.782  0.00  0.00    +0.000 C 
ATOM     10  C   UNL     1       7.123   4.794  13.860  0.00  0.00    +0.000 C 
ATOM     11  C   UNL     1       5.907   3.995  14.221  0.00  0.00    +0.000 C 
ENDBRANCH   6   9
BRANCH   1  12
ATOM     12  C   UNL     1       4.483   3.303  19.001  0.00  0.00    +0.000 C 
BRANCH  12  18
ATOM     13  C   UNL     1       1.037   6.874  20.927  0.00  0.00    +0.000 C 
ATOM     14  C   UNL     1       1.711   5.646  20.426  0.00  0.00    +0.000 A 
ATOM     15  N   UNL     1       1.142   4.463  20.366  0.00  0.00    +0.000 NA
ATOM     16  C   UNL     1       2.031   3.531  19.854  0.00  0.00    +0.000 A 
ATOM     17  C   UNL     1       1.575   2.122  19.714  0.00  0.00    +0.000 C 
ATOM     18  C   UNL     1       3.284   4.034  19.532  0.00  0.00    +0.000 A 
ATOM     19  S   UNL     1       3.337   5.712  19.879  0.00  0.00    +0.000 S 
ENDBRANCH  12  18
ENDBRANCH   1  12
BRANCH   4  20
ATOM     20  O   UNL     1       8.294   7.784  18.293  0.00  0.00    +0.000 OA
BRANCH  20  21
ATOM     21  C   UNL     1       8.108   8.954  17.486  0.00  0.00    +0.000 C 
BRANCH  21  22
ATOM     22  C   UNL     1       8.466  10.149  18.311  0.00  0.00    +0.000 C 
ATOM     23  C   UNL     1       9.290  10.010  19.562  0.00  0.00    +0.000 C 
ATOM     24  C   UNL     1       9.898  10.669  18.344  0.00  0.00    +0.000 C 
BRANCH  24  25
ATOM     25  C   UNL     1      10.092  12.164  18.260  0.00  0.00    +0.000 A 
ATOM     26  C   UNL     1      10.716  12.766  17.166  0.00  0.00    +0.000 A 
ATOM     27  C   UNL     1      10.899  14.148  17.148  0.00  0.00    +0.000 A 
ATOM     28  C   UNL     1      10.451  14.906  18.220  0.00  0.00    +0.000 A 
ATOM     29  C   UNL     1       9.824  14.248  19.260  0.00  0.00    +0.000 A 
ATOM     30  N   UNL     1       9.635  12.910  19.298  0.00  0.00    +0.000 NA
ENDBRANCH  24  25
ENDBRANCH  21  22
ENDBRANCH  20  21
ENDBRANCH   4  20
TORSDOF 7
ENDMDL
MODEL 3
REMARK VINA RESULT:      -8.2      2.579      8.656
REMARK  Name = 
REMARK  9 active torsions:
REMARK  status: ('A' for Active; 'I' for Inactive)
REMARK    1  A    between atoms: C_1  and  C_2
REMARK    2  A    between atoms: C_4  and  C_5
REMARK    3  A    between atoms: C_6  and  C_7
REMARK    4  A    between atoms: C_7  and  N_8
REMARK    5  A    between atoms: C_11  and  O_12
REMARK    6  A    between atoms: O_12  and  C_13
REMARK    7  A    between atoms: C_13  and  C_14
REMARK    8  A    between atoms: C_16  and  C_17
REMARK    9  A    between atoms: C_24  and  C_25
REMARK                            x       y       z     vdW  Elec       q    Type
REMARK                         _______ _______ _______ _____ _____    ______ ____
ROOT
ATOM      1  N   UNL     1       1.859   8.232  20.868  0.00  0.00    +0.000 N 
ATOM      2  C   UNL     1       2.093   6.976  20.289  0.00  0.00    +0.000 A 
ATOM      3  C   UNL     1       3.103   6.866  19.355  0.00  0.00    +0.000 A 
ATOM      4  C   UNL     1       3.233   5.643  18.759  0.00  0.00    +0.000 A 
ATOM      5  N   UNL     1       2.510   4.575  19.109  0.00  0.00    +0.000 NA
ATOM      6  C   UNL     1       1.599   4.732  20.076  0.00  0.00    +0.000 A 
ATOM      7  N   UNL     1       1.349   5.926  20.661  0.00  0.00    +0.000 NA
ATOM      8  H   UNL     1       2.567   8.402  21.576  0.00  0.00    +0.000 HD
ENDROOT
BRANCH   6   9
ATOM      9  C   UNL     1       0.846   3.522  20.564  0.00  0.00    +0.000 C 
ATOM     10  C   UNL     1       1.272   2.133  20.145  0.00  0.00    +0.000 C 
ATOM     11  C   UNL     1       1.480   2.574  21.563  0.00  0.00    +0.000 C 
ENDBRANCH   6   9
BRANCH   1  12
ATOM     12  C   UNL     1       0.508   8.414  21.398  0.00  0.00    +0.000 C 
BRANCH  12  18
ATOM     13  C   UNL     1      -1.203  12.681  18.713  0.00  0.00    +0.000 C 
ATOM     14  C   UNL     1      -0.884  11.663  19.750  0.00  0.00    +0.000 A 
ATOM     15  N   UNL     1      -1.194  11.780  21.022  0.00  0.00    +0.000 NA
ATOM     16  C   UNL     1      -0.762  10.666  21.723  0.00  0.00    +0.000 A 
ATOM     17  C   UNL     1      -1.013  10.613  23.189  0.00  0.00    +0.000 C 
ATOM     18  C   UNL     1      -0.115   9.707  20.957  0.00  0.00    +0.000 A 
ATOM     19  S   UNL     1      -0.057  10.220  19.322  0.00  0.00    +0.000 S 
ENDBRANCH  12  18
ENDBRANCH   1  12
BRANCH   4  20
ATOM     20  O   UNL     1       4.181   5.514  17.764  0.00  0.00    +0.000 OA
BRANCH  20  21
ATOM     21  C   UNL     1       5.313   6.369  17.971  0.00  0.00    +0.000 C 
BRANCH  21  22
ATOM     22  C   UNL     1       6.071   6.456  16.684  0.00  0.00    +0.000 C 
ATOM     23  C   UNL     1       7.559   6.675  16.674  0.00  0.00    +0.000 C 
ATOM     24  C   UNL     1       7.004   5.331  16.255  0.00  0.00    +0.000 C 
BRANCH  24  25
ATOM     25  C   UNL     1       6.954   4.907  14.807  0.00  0.00    +0.000 A 
ATOM     26  C   UNL     1       6.055   3.939  14.354  0.00  0.00    +0.000 A 
ATOM     27  C   UNL     1       6.067   3.559  13.012  0.00  0.00    +0.000 A 
ATOM     28  C   UNL     1       6.971   4.155  12.146  0.00  0.00    +0.000 A 
ATOM     29  C   UNL     1       7.819   5.119  12.656  0.00  0.00    +0.000 A 
ATOM     30  N   UNL     1       7.824   5.504  13.952  0.00  0.00    +0.000 NA
ENDBRANCH  24  25
ENDBRANCH  21  22
ENDBRANCH  20  21
ENDBRANCH   4  20
TORSDOF 7
ENDMDL
MODEL 4
REMARK VINA RESULT:      -7.9      0.883      1.277
REMARK  Name = 
REMARK  9 active torsions:
REMARK  status: ('A' for Active; 'I' for Inactive)
REMARK    1  A    between atoms: C_1  and  C_2
REMARK    2  A    between atoms: C_4  and  C_5
REMARK    3  A    between atoms: C_6  and  C_7
REMARK    4  A    between atoms: C_7  and  N_8
REMARK    5  A    between atoms: C_11  and  O_12
REMARK    6  A    between atoms: O_12  and  C_13
REMARK    7  A    between atoms: C_13  and  C_14
REMARK    8  A    between atoms: C_16  and  C_17
REMARK    9  A    between atoms: C_24  and  C_25
REMARK                            x       y       z     vdW  Elec       q    Type
REMARK                         _______ _______ _______ _____ _____    ______ ____
ROOT
ATOM      1  N   UNL     1       4.012   6.419  18.127  0.00  0.00    +0.000 N 
ATOM      2  C   UNL     1       3.003   6.299  19.093  0.00  0.00    +0.000 A 
ATOM      3  C   UNL     1       2.391   7.452  19.544  0.00  0.00    +0.000 A 
ATOM      4  C   UNL     1       1.478   7.287  20.547  0.00  0.00    +0.000 A 
ATOM      5  N   UNL     1       1.103   6.092  21.011  0.00  0.00    +0.000 NA
ATOM      6  C   UNL     1       1.681   5.009  20.477  0.00  0.00    +0.000 A 
ATOM      7  N   UNL     1       2.654   5.085  19.540  0.00  0.00    +0.000 NA
ATOM      8  H   UNL     1       3.580   6.574  17.221  0.00  0.00    +0.000 HD
ENDROOT
BRANCH   6   9
ATOM      9  C   UNL     1       1.203   3.648  20.906  0.00  0.00    +0.000 C 
ATOM     10  C   UNL     1       1.740   2.400  20.242  0.00  0.00    +0.000 C 
ATOM     11  C   UNL     1       2.127   2.709  21.657  0.00  0.00    +0.000 C 
ENDBRANCH   6   9
BRANCH   1  12
ATOM     12  C   UNL     1       4.955   5.302  18.092  0.00  0.00    +0.000 C 
BRANCH  12  18
ATOM     13  C   UNL     1       7.060   4.274  13.311  0.00  0.00    +0.000 C 
ATOM     14  C   UNL     1       6.751   4.805  14.665  0.00  0.00    +0.000 A 
ATOM     15  N   UNL     1       7.468   5.716  15.285  0.00  0.00    +0.000 NA
ATOM     16  C   UNL     1       6.918   5.996  16.525  0.00  0.00    +0.000 A 
ATOM     17  C   UNL     1       7.595   7.002  17.387  0.00  0.00    +0.000 C 
ATOM     18  C   UNL     1       5.773   5.276  16.833  0.00  0.00    +0.000 A 
ATOM     19  S   UNL     1       5.383   4.231  15.531  0.00  0.00    +0.000 S 
ENDBRANCH  12  18
ENDBRANCH   1  12
BRANCH   4  20
ATOM     20  O   UNL     1       0.900   8.423  21.078  0.00  0.00    +0.000 OA
BRANCH  20  21
ATOM     21  C   UNL     1       0.980   9.545  20.190  0.00  0.00    +0.000 C 
BRANCH  21  22
ATOM     22  C   UNL     1      -0.222  10.406  20.419  0.00  0.00    +0.000 C 
ATOM     23  C   UNL     1      -0.079  11.857  20.787  0.00  0.00    +0.000 C 
ATOM     24  C   UNL     1      -0.604  11.488  19.417  0.00  0.00    +0.000 C 
BRANCH  24  25
ATOM     25  C   UNL     1      -2.066  11.617  19.064  0.00  0.00    +0.000 A 
ATOM     26  C   UNL     1      -2.954  12.348  19.857  0.00  0.00    +0.000 A 
ATOM     27  C   UNL     1      -4.302  12.413  19.505  0.00  0.00    +0.000 A 
ATOM     28  C   UNL     1      -4.739  11.754  18.365  0.00  0.00    +0.000 A 
ATOM     29  C   UNL     1      -3.804  11.067  17.616  0.00  0.00    +0.000 A 
ATOM     30  N   UNL     1      -2.493  10.991  17.937  0.00  0.00    +0.000 NA
ENDBRANCH  24  25
ENDBRANCH  21  22
ENDBRANCH  20  21
ENDBRANCH   4  20
TORSDOF 7
ENDMDL
MODEL 5
REMARK VINA RESULT:      -7.9      2.820      9.111
REMARK  Name = 
REMARK  9 active torsions:
REMARK  status: ('A' for Active; 'I' for Inactive)
REMARK    1  A    between atoms: C_1  and  C_2
REMARK    2  A    between atoms: C_4  and  C_5
REMARK    3  A    between atoms: C_6  and  C_7
REMARK    4  A    between atoms: C_7  and  N_8
REMARK    5  A    between atoms: C_11  and  O_12
REMARK    6  A    between atoms: O_12  and  C_13
REMARK    7  A    between atoms: C_13  and  C_14
REMARK    8  A    between atoms: C_16  and  C_17
REMARK    9  A    between atoms: C_24  and  C_25
REMARK                            x       y       z     vdW  Elec       q    Type
REMARK                         _______ _______ _______ _____ _____    ______ ____
ROOT
ATOM      1  N   UNL     1       1.479   8.793  20.446  0.00  0.00    +0.000 N 
ATOM      2  C   UNL     1       1.866   7.513  20.023  0.00  0.00    +0.000 A 
ATOM      3  C   UNL     1       2.755   7.413  18.972  0.00  0.00    +0.000 A 
ATOM      4  C   UNL     1       3.031   6.146  18.544  0.00  0.00    +0.000 A 
ATOM      5  N   UNL     1       2.566   5.048  19.148  0.00  0.00    +0.000 NA
ATOM      6  C   UNL     1       1.768   5.215  20.209  0.00  0.00    +0.000 A 
ATOM      7  N   UNL     1       1.378   6.434  20.649  0.00  0.00    +0.000 NA
ATOM      8  H   UNL     1       2.226   9.191  21.007  0.00  0.00    +0.000 HD
ENDROOT
BRANCH   6   9
ATOM      9  C   UNL     1       1.316   3.998  20.972  0.00  0.00    +0.000 C 
ATOM     10  C   UNL     1       1.569   2.611  20.426  0.00  0.00    +0.000 C 
ATOM     11  C   UNL     1       2.330   3.082  21.629  0.00  0.00    +0.000 C 
ENDBRANCH   6   9
BRANCH   1  12
ATOM     12  C   UNL     1       0.194   8.841  21.142  0.00  0.00    +0.000 C 
BRANCH  12  18
ATOM     13  C   UNL     1      -2.021  13.542  22.297  0.00  0.00    +0.000 C 
ATOM     14  C   UNL     1      -1.453  12.343  21.625  0.00  0.00    +0.000 A 
ATOM     15  N   UNL     1      -1.405  12.178  20.322  0.00  0.00    +0.000 NA
ATOM     16  C   UNL     1      -0.818  10.961  20.015  0.00  0.00    +0.000 A 
ATOM     17  C   UNL     1      -0.679  10.585  18.583  0.00  0.00    +0.000 C 
ATOM     18  C   UNL     1      -0.427  10.207  21.113  0.00  0.00    +0.000 A 
ATOM     19  S   UNL     1      -0.804  11.053  22.556  0.00  0.00    +0.000 S 
ENDBRANCH  12  18
ENDBRANCH   1  12
BRANCH   4  20
ATOM     20  O   UNL     1       3.857   6.007  17.446  0.00  0.00    +0.000 OA
BRANCH  20  21
ATOM     21  C   UNL     1       4.964   5.133  17.699  0.00  0.00    +0.000 C 
BRANCH  21  22
ATOM     22  C   UNL     1       6.006   5.389  16.658  0.00  0.00    +0.000 C 
ATOM     23  C   UNL     1       7.456   5.084  16.920  0.00  0.00    +0.000 C 
ATOM     24  C   UNL     1       6.685   4.232  15.937  0.00  0.00    +0.000 C 
BRANCH  24  25
ATOM     25  C   UNL     1       6.877   4.365  14.445  0.00  0.00    +0.000 A 
ATOM     26  C   UNL     1       6.184   3.561  13.539  0.00  0.00    +0.000 A 
ATOM     27  C   UNL     1       6.417   3.700  12.171  0.00  0.00    +0.000 A 
ATOM     28  C   UNL     1       7.334   4.644  11.732  0.00  0.00    +0.000 A 
ATOM     29  C   UNL     1       7.970   5.420  12.682  0.00  0.00    +0.000 A 
ATOM     30  N   UNL     1       7.758   5.302  14.012  0.00  0.00    +0.000 NA
ENDBRANCH  24  25
ENDBRANCH  21  22
ENDBRANCH  20  21
ENDBRANCH   4  20
TORSDOF 7
ENDMDL
MODEL 6
REMARK VINA RESULT:      -7.8      1.948      2.987
REMARK  Name = 
REMARK  9 active torsions:
REMARK  status: ('A' for Active; 'I' for Inactive)
REMARK    1  A    between atoms: C_1  and  C_2
REMARK    2  A    between atoms: C_4  and  C_5
REMARK    3  A    between atoms: C_6  and  C_7
REMARK    4  A    between atoms: C_7  and  N_8
REMARK    5  A    between atoms: C_11  and  O_12
REMARK    6  A    between atoms: O_12  and  C_13
REMARK    7  A    between atoms: C_13  and  C_14
REMARK    8  A    between atoms: C_16  and  C_17
REMARK    9  A    between atoms: C_24  and  C_25
REMARK                            x       y       z     vdW  Elec       q    Type
REMARK                         _______ _______ _______ _____ _____    ______ ____
ROOT
ATOM      1  N   UNL     1       3.673   6.194  17.537  0.00  0.00    +0.000 N 
ATOM      2  C   UNL     1       2.880   6.182  18.694  0.00  0.00    +0.000 A 
ATOM      3  C   UNL     1       2.544   7.392  19.268  0.00  0.00    +0.000 A 
ATOM      4  C   UNL     1       1.846   7.321  20.440  0.00  0.00    +0.000 A 
ATOM      5  N   UNL     1       1.412   6.173  20.969  0.00  0.00    +0.000 NA
ATOM      6  C   UNL     1       1.707   5.040  20.321  0.00  0.00    +0.000 A 
ATOM      7  N   UNL     1       2.465   5.013  19.199  0.00  0.00    +0.000 NA
ATOM      8  H   UNL     1       3.087   6.437  16.743  0.00  0.00    +0.000 HD
ENDROOT
BRANCH   6   9
ATOM      9  C   UNL     1       1.142   3.744  20.836  0.00  0.00    +0.000 C 
ATOM     10  C   UNL     1       1.513   2.430  20.184  0.00  0.00    +0.000 C 
ATOM     11  C   UNL     1       2.032   2.748  21.555  0.00  0.00    +0.000 C 
ENDBRANCH   6   9
BRANCH   1  12
ATOM     12  C   UNL     1       4.421   4.960  17.300  0.00  0.00    +0.000 C 
BRANCH  12  18
ATOM     13  C   UNL     1       7.608   4.886  13.036  0.00  0.00    +0.000 C 
ATOM     14  C   UNL     1       6.998   5.099  14.376  0.00  0.00    +0.000 A 
ATOM     15  N   UNL     1       7.592   5.723  15.369  0.00  0.00    +0.000 NA
ATOM     16  C   UNL     1       6.762   5.756  16.478  0.00  0.00    +0.000 A 
ATOM     17  C   UNL     1       7.261   6.416  17.714  0.00  0.00    +0.000 C 
ATOM     18  C   UNL     1       5.530   5.141  16.304  0.00  0.00    +0.000 A 
ATOM     19  S   UNL     1       5.418   4.515  14.712  0.00  0.00    +0.000 S 
ENDBRANCH  12  18
ENDBRANCH   1  12
BRANCH   4  20
ATOM     20  O   UNL     1       1.557   8.507  21.085  0.00  0.00    +0.000 OA
BRANCH  20  21
ATOM     21  C   UNL     1       0.216   8.950  20.845  0.00  0.00    +0.000 C 
BRANCH  21  22
ATOM     22  C   UNL     1       0.279  10.253  20.114  0.00  0.00    +0.000 C 
ATOM     23  C   UNL     1      -0.805  11.284  20.269  0.00  0.00    +0.000 C 
ATOM     24  C   UNL     1       0.561  11.550  20.861  0.00  0.00    +0.000 C 
BRANCH  24  25
ATOM     25  C   UNL     1       1.530  12.517  20.225  0.00  0.00    +0.000 A 
ATOM     26  C   UNL     1       1.648  12.638  18.839  0.00  0.00    +0.000 A 
ATOM     27  C   UNL     1       2.578  13.524  18.299  0.00  0.00    +0.000 A 
ATOM     28  C   UNL     1       3.371  14.280  19.151  0.00  0.00    +0.000 A 
ATOM     29  C   UNL     1       3.188  14.126  20.511  0.00  0.00    +0.000 A 
ATOM     30  N   UNL     1       2.292  13.273  21.057  0.00  0.00    +0.000 NA
ENDBRANCH  24  25
ENDBRANCH  21  22
ENDBRANCH  20  21
ENDBRANCH   4  20
TORSDOF 7
ENDMDL
MODEL 7
REMARK VINA RESULT:      -7.8      0.835      1.115
REMARK  Name = 
REMARK  9 active torsions:
REMARK  status: ('A' for Active; 'I' for Inactive)
REMARK    1  A    between atoms: C_1  and  C_2
REMARK    2  A    between atoms: C_4  and  C_5
REMARK    3  A    between atoms: C_6  and  C_7
REMARK    4  A    between atoms: C_7  and  N_8
REMARK    5  A    between atoms: C_11  and  O_12
REMARK    6  A    between atoms: O_12  and  C_13
REMARK    7  A    between atoms: C_13  and  C_14
REMARK    8  A    between atoms: C_16  and  C_17
REMARK    9  A    between atoms: C_24  and  C_25
REMARK                            x       y       z     vdW  Elec       q    Type
REMARK                         _______ _______ _______ _____ _____    ______ ____
ROOT
ATOM      1  N   UNL     1       3.681   6.099  17.244  0.00  0.00    +0.000 N 
ATOM      2  C   UNL     1       2.959   6.209  18.441  0.00  0.00    +0.000 A 
ATOM      3  C   UNL     1       2.580   7.468  18.862  0.00  0.00    +0.000 A 
ATOM      4  C   UNL     1       1.956   7.527  20.076  0.00  0.00    +0.000 A 
ATOM      5  N   UNL     1       1.629   6.444  20.788  0.00  0.00    +0.000 NA
ATOM      6  C   UNL     1       1.959   5.248  20.286  0.00  0.00    +0.000 A 
ATOM      7  N   UNL     1       2.650   5.103  19.131  0.00  0.00    +0.000 NA
ATOM      8  H   UNL     1       3.036   6.193  16.465  0.00  0.00    +0.000 HD
ENDROOT
BRANCH   6   9
ATOM      9  C   UNL     1       1.508   4.009  21.013  0.00  0.00    +0.000 C 
ATOM     10  C   UNL     1       1.348   2.700  20.274  0.00  0.00    +0.000 C 
ATOM     11  C   UNL     1       2.473   2.864  21.251  0.00  0.00    +0.000 C 
ENDBRANCH   6   9
BRANCH   1  12
ATOM     12  C   UNL     1       4.492   4.888  17.132  0.00  0.00    +0.000 C 
BRANCH  12  18
ATOM     13  C   UNL     1       7.517   4.557  12.764  0.00  0.00    +0.000 C 
ATOM     14  C   UNL     1       6.959   4.848  14.111  0.00  0.00    +0.000 A 
ATOM     15  N   UNL     1       7.591   5.524  15.045  0.00  0.00    +0.000 NA
ATOM     16  C   UNL     1       6.803   5.623  16.180  0.00  0.00    +0.000 A 
ATOM     17  C   UNL     1       7.350   6.349  17.358  0.00  0.00    +0.000 C 
ATOM     18  C   UNL     1       5.564   5.006  16.087  0.00  0.00    +0.000 A 
ATOM     19  S   UNL     1       5.391   4.292  14.538  0.00  0.00    +0.000 S 
ENDBRANCH  12  18
ENDBRANCH   1  12
BRANCH   4  20
ATOM     20  O   UNL     1       1.630   8.775  20.568  0.00  0.00    +0.000 OA
BRANCH  20  21
ATOM     21  C   UNL     1       0.601   8.721  21.563  0.00  0.00    +0.000 C 
BRANCH  21  22
ATOM     22  C   UNL     1      -0.565   9.517  21.071  0.00  0.00    +0.000 C 
ATOM     23  C   UNL     1      -0.753  10.952  21.481  0.00  0.00    +0.000 C 
ATOM     24  C   UNL     1      -0.369  10.633  20.054  0.00  0.00    +0.000 C 
BRANCH  24  25
ATOM     25  C   UNL     1      -1.366  10.720  18.923  0.00  0.00    +0.000 A 
ATOM     26  C   UNL     1      -2.472  11.570  18.979  0.00  0.00    +0.000 A 
ATOM     27  C   UNL     1      -3.381  11.593  17.922  0.00  0.00    +0.000 A 
ATOM     28  C   UNL     1      -3.166  10.773  16.824  0.00  0.00    +0.000 A 
ATOM     29  C   UNL     1      -2.041   9.973  16.824  0.00  0.00    +0.000 A 
ATOM     30  N   UNL     1      -1.146   9.935  17.838  0.00  0.00    +0.000 NA
ENDBRANCH  24  25
ENDBRANCH  21  22
ENDBRANCH  20  21
ENDBRANCH   4  20
TORSDOF 7
ENDMDL
MODEL 8
REMARK VINA RESULT:      -7.7      1.660      2.484
REMARK  Name = 
REMARK  9 active torsions:
REMARK  status: ('A' for Active; 'I' for Inactive)
REMARK    1  A    between atoms: C_1  and  C_2
REMARK    2  A    between atoms: C_4  and  C_5
REMARK    3  A    between atoms: C_6  and  C_7
REMARK    4  A    between atoms: C_7  and  N_8
REMARK    5  A    between atoms: C_11  and  O_12
REMARK    6  A    between atoms: O_12  and  C_13
REMARK    7  A    between atoms: C_13  and  C_14
REMARK    8  A    between atoms: C_16  and  C_17
REMARK    9  A    between atoms: C_24  and  C_25
REMARK                            x       y       z     vdW  Elec       q    Type
REMARK                         _______ _______ _______ _____ _____    ______ ____
ROOT
ATOM      1  N   UNL     1       5.638   6.414  15.737  0.00  0.00    +0.000 N 
ATOM      2  C   UNL     1       4.757   6.051  16.766  0.00  0.00    +0.000 A 
ATOM      3  C   UNL     1       4.020   7.047  17.375  0.00  0.00    +0.000 A 
ATOM      4  C   UNL     1       3.243   6.653  18.427  0.00  0.00    +0.000 A 
ATOM      5  N   UNL     1       3.105   5.378  18.803  0.00  0.00    +0.000 NA
ATOM      6  C   UNL     1       3.789   4.453  18.120  0.00  0.00    +0.000 A 
ATOM      7  N   UNL     1       4.645   4.764  17.119  0.00  0.00    +0.000 NA
ATOM      8  H   UNL     1       5.102   6.571  14.889  0.00  0.00    +0.000 HD
ENDROOT
BRANCH   6   9
ATOM      9  C   UNL     1       3.571   3.001  18.452  0.00  0.00    +0.000 C 
ATOM     10  C   UNL     1       2.344   2.565  19.223  0.00  0.00    +0.000 C 
ATOM     11  C   UNL     1       2.469   2.213  17.771  0.00  0.00    +0.000 C 
ENDBRANCH   6   9
BRANCH   1  12
ATOM     12  C   UNL     1       6.736   5.472  15.517  0.00  0.00    +0.000 C 
BRANCH  12  18
ATOM     13  C   UNL     1       5.471   2.300  11.434  0.00  0.00    +0.000 C 
ATOM     14  C   UNL     1       6.078   3.314  12.336  0.00  0.00    +0.000 A 
ATOM     15  N   UNL     1       7.097   4.079  12.011  0.00  0.00    +0.000 NA
ATOM     16  C   UNL     1       7.422   4.915  13.066  0.00  0.00    +0.000 A 
ATOM     17  C   UNL     1       8.561   5.857  12.895  0.00  0.00    +0.000 C 
ATOM     18  C   UNL     1       6.633   4.765  14.197  0.00  0.00    +0.000 A 
ATOM     19  S   UNL     1       5.456   3.548  13.920  0.00  0.00    +0.000 S 
ENDBRANCH  12  18
ENDBRANCH   1  12
BRANCH   4  20
ATOM     20  O   UNL     1       2.549   7.632  19.111  0.00  0.00    +0.000 OA
BRANCH  20  21
ATOM     21  C   UNL     1       2.047   8.656  18.244  0.00  0.00    +0.000 C 
BRANCH  21  22
ATOM     22  C   UNL     1       0.753   9.150  18.808  0.00  0.00    +0.000 C 
ATOM     23  C   UNL     1       0.724  10.235  19.850  0.00  0.00    +0.000 C 
ATOM     24  C   UNL     1       0.230  10.536  18.453  0.00  0.00    +0.000 C 
BRANCH  24  25
ATOM     25  C   UNL     1      -1.242  10.659  18.138  0.00  0.00    +0.000 A 
ATOM     26  C   UNL     1      -1.847   9.900  17.134  0.00  0.00    +0.000 A 
ATOM     27  C   UNL     1      -3.203  10.071  16.861  0.00  0.00    +0.000 A 
ATOM     28  C   UNL     1      -3.934  10.990  17.599  0.00  0.00    +0.000 A 
ATOM     29  C   UNL     1      -3.278  11.691  18.592  0.00  0.00    +0.000 A 
ATOM     30  N   UNL     1      -1.965  11.542  18.874  0.00  0.00    +0.000 NA
ENDBRANCH  24  25
ENDBRANCH  21  22
ENDBRANCH  20  21
ENDBRANCH   4  20
TORSDOF 7
ENDMDL
MODEL 9
REMARK VINA RESULT:      -7.7      1.571      2.158
REMARK  Name = 
REMARK  9 active torsions:
REMARK  status: ('A' for Active; 'I' for Inactive)
REMARK    1  A    between atoms: C_1  and  C_2
REMARK    2  A    between atoms: C_4  and  C_5
REMARK    3  A    between atoms: C_6  and  C_7
REMARK    4  A    between atoms: C_7  and  N_8
REMARK    5  A    between atoms: C_11  and  O_12
REMARK    6  A    between atoms: O_12  and  C_13
REMARK    7  A    between atoms: C_13  and  C_14
REMARK    8  A    between atoms: C_16  and  C_17
REMARK    9  A    between atoms: C_24  and  C_25
REMARK                            x       y       z     vdW  Elec       q    Type
REMARK                         _______ _______ _______ _____ _____    ______ ____
ROOT
ATOM      1  N   UNL     1       3.640   5.759  17.224  0.00  0.00    +0.000 N 
ATOM      2  C   UNL     1       3.010   5.927  18.465  0.00  0.00    +0.000 A 
ATOM      3  C   UNL     1       2.421   7.145  18.740  0.00  0.00    +0.000 A 
ATOM      4  C   UNL     1       1.898   7.285  19.994  0.00  0.00    +0.000 A 
ATOM      5  N   UNL     1       1.851   6.291  20.885  0.00  0.00    +0.000 NA
ATOM      6  C   UNL     1       2.371   5.111  20.528  0.00  0.00    +0.000 A 
ATOM      7  N   UNL     1       2.983   4.910  19.337  0.00  0.00    +0.000 NA
ATOM      8  H   UNL     1       2.929   5.604  16.515  0.00  0.00    +0.000 HD
ENDROOT
BRANCH   6   9
ATOM      9  C   UNL     1       2.237   3.946  21.471  0.00  0.00    +0.000 C 
ATOM     10  C   UNL     1       1.134   2.928  21.284  0.00  0.00    +0.000 C 
ATOM     11  C   UNL     1       2.555   2.538  21.005  0.00  0.00    +0.000 C 
ENDBRANCH   6   9
BRANCH   1  12
ATOM     12  C   UNL     1       4.665   4.716  17.199  0.00  0.00    +0.000 C 
BRANCH  12  18
ATOM     13  C   UNL     1       7.569   4.742  12.738  0.00  0.00    +0.000 C 
ATOM     14  C   UNL     1       7.034   4.949  14.110  0.00  0.00    +0.000 A 
ATOM     15  N   UNL     1       7.647   5.636  15.048  0.00  0.00    +0.000 NA
ATOM     16  C   UNL     1       6.890   5.643  16.208  0.00  0.00    +0.000 A 
ATOM     17  C   UNL     1       7.422   6.366  17.394  0.00  0.00    +0.000 C 
ATOM     18  C   UNL     1       5.694   4.944  16.129  0.00  0.00    +0.000 A 
ATOM     19  S   UNL     1       5.522   4.271  14.562  0.00  0.00    +0.000 S 
ENDBRANCH  12  18
ENDBRANCH   1  12
BRANCH   4  20
ATOM     20  O   UNL     1       1.369   8.514  20.332  0.00  0.00    +0.000 OA
BRANCH  20  21
ATOM     21  C   UNL     1       1.186   8.662  21.746  0.00  0.00    +0.000 C 
BRANCH  21  22
ATOM     22  C   UNL     1      -0.147   9.300  21.979  0.00  0.00    +0.000 C 
ATOM     23  C   UNL     1      -0.556   9.766  23.349  0.00  0.00    +0.000 C 
ATOM     24  C   UNL     1      -0.253  10.789  22.278  0.00  0.00    +0.000 C 
BRANCH  24  25
ATOM     25  C   UNL     1      -1.349  11.558  21.579  0.00  0.00    +0.000 A 
ATOM     26  C   UNL     1      -2.383  12.175  22.286  0.00  0.00    +0.000 A 
ATOM     27  C   UNL     1      -3.388  12.848  21.594  0.00  0.00    +0.000 A 
ATOM     28  C   UNL     1      -3.341  12.900  20.209  0.00  0.00    +0.000 A 
ATOM     29  C   UNL     1      -2.279  12.287  19.574  0.00  0.00    +0.000 A 
ATOM     30  N   UNL     1      -1.293  11.629  20.224  0.00  0.00    +0.000 NA
ENDBRANCH  24  25
ENDBRANCH  21  22
ENDBRANCH  20  21
ENDBRANCH   4  20
TORSDOF 7
ENDMDL
