MODEL 1
REMARK VINA RESULT:      -8.4      0.000      0.000
REMARK  Name = 
REMARK  7 active torsions:
REMARK  status: ('A' for Active; 'I' for Inactive)
REMARK    1  A    between atoms: C_1  and  C_2
REMARK    2  A    between atoms: C_5  and  C_6
REMARK    3  A    between atoms: C_7  and  C_8
REMARK    4  A    between atoms: C_8  and  N_9
REMARK    5  A    between atoms: C_13  and  O_14
REMARK    6  A    between atoms: C_16  and  C_17
REMARK    7  A    between atoms: N_19  and  C_20
REMARK                            x       y       z     vdW  Elec       q    Type
REMARK                         _______ _______ _______ _____ _____    ______ ____
ROOT
ATOM      1  N   UNL     1      -0.922  11.931  20.595  0.00  0.00    +0.000 N 
ATOM      2  N   UNL     1      -1.495  12.449  21.709  0.00  0.00    +0.000 NA
ATOM      3  N   UNL     1      -1.105  11.707  22.749  0.00  0.00    +0.000 NA
ATOM      4  C   UNL     1      -0.321  10.692  22.270  0.00  0.00    +0.000 A 
ATOM      5  C   UNL     1       0.302   9.577  22.831  0.00  0.00    +0.000 A 
ATOM      6  N   UNL     1       0.983   8.699  22.050  0.00  0.00    +0.000 NA
ATOM      7  C   UNL     1       1.049   8.989  20.724  0.00  0.00    +0.000 A 
ATOM      8  N   UNL     1       0.493  10.037  20.080  0.00  0.00    +0.000 NA
ATOM      9  C   UNL     1      -0.175  10.836  20.910  0.00  0.00    +0.000 A 
ENDROOT
BRANCH   7  10
ATOM     10  C   UNL     1       1.785   8.055  19.806  0.00  0.00    +0.000 C 
ATOM     11  O   UNL     1       2.070   8.479  18.684  0.00  0.00    +0.000 OA
ATOM     12  N   UNL     1       2.031   6.766  20.261  0.00  0.00    +0.000 N 
ATOM     13  H   UNL     1       1.612   6.508  21.151  0.00  0.00    +0.000 HD
BRANCH  12  14
ATOM     14  C   UNL     1       2.680   5.767  19.495  0.00  0.00    +0.000 A 
ATOM     15  C   UNL     1       4.069   5.569  19.534  0.00  0.00    +0.000 A 
ATOM     16  C   UNL     1       4.689   4.613  18.728  0.00  0.00    +0.000 A 
ATOM     17  C   UNL     1       3.916   3.838  17.883  0.00  0.00    +0.000 A 
ATOM     18  F   UNL     1       4.506   2.929  17.098  0.00  0.00    +0.000 F 
ATOM     19  C   UNL     1       2.533   3.994  17.843  0.00  0.00    +0.000 A 
ATOM     20  C   UNL     1       1.912   4.952  18.655  0.00  0.00    +0.000 A 
ENDBRANCH  12  14
ENDBRANCH   7  10
BRANCH   5  21
ATOM     21  O   UNL     1       0.228   9.281  24.171  0.00  0.00    +0.000 OA
ATOM     22  H   UNL     1       0.391   8.321  24.248  0.00  0.00    +0.000 HD
ENDBRANCH   5  21
BRANCH   1  23
ATOM     23  C   UNL     1      -1.312  12.330  19.254  0.00  0.00    +0.000 C 
BRANCH  23  30
ATOM     24  C   UNL     1      -6.321  12.526  19.743  0.00  0.00    +0.000 C 
ATOM     25  C   UNL     1      -5.108  11.914  19.104  0.00  0.00    +0.000 A 
ATOM     26  C   UNL     1      -5.236  10.861  18.199  0.00  0.00    +0.000 A 
ATOM     27  C   UNL     1      -4.103  10.285  17.621  0.00  0.00    +0.000 A 
ATOM     28  C   UNL     1      -2.817  10.743  17.938  0.00  0.00    +0.000 A 
ATOM     29  C   UNL     1      -1.630  10.088  17.285  0.00  0.00    +0.000 C 
ATOM     30  C   UNL     1      -2.670  11.801  18.858  0.00  0.00    +0.000 A 
ATOM     31  C   UNL     1      -3.826  12.381  19.426  0.00  0.00    +0.000 A 
ENDBRANCH  23  30
ENDBRANCH   1  23
TORSDOF 5
ENDMDL
MODEL 2
REMARK VINA RESULT:      -8.3      4.148      9.201
REMARK  Name = 
REMARK  7 active torsions:
REMARK  status: ('A' for Active; 'I' for Inactive)
REMARK    1  A    between atoms: C_1  and  C_2
REMARK    2  A    between atoms: C_5  and  C_6
REMARK    3  A    between atoms: C_7  and  C_8
REMARK    4  A    between atoms: C_8  and  N_9
REMARK    5  A    between atoms: C_13  and  O_14
REMARK    6  A    between atoms: C_16  and  C_17
REMARK    7  A    between atoms: N_19  and  C_20
REMARK                            x       y       z     vdW  Elec       q    Type
REMARK                         _______ _______ _______ _____ _____    ______ ____
ROOT
ATOM      1  N   UNL     1       3.943   3.516  17.991  0.00  0.00    +0.000 N 
ATOM      2  N   UNL     1       4.192   2.237  18.367  0.00  0.00    +0.000 NA
ATOM      3  N   UNL     1       3.613   2.043  19.555  0.00  0.00    +0.000 NA
ATOM      4  C   UNL     1       3.039   3.225  19.940  0.00  0.00    +0.000 A 
ATOM      5  C   UNL     1       2.376   3.674  21.083  0.00  0.00    +0.000 A 
ATOM      6  N   UNL     1       1.966   4.965  21.182  0.00  0.00    +0.000 NA
ATOM      7  C   UNL     1       2.204   5.763  20.108  0.00  0.00    +0.000 A 
ATOM      8  N   UNL     1       2.827   5.433  18.957  0.00  0.00    +0.000 NA
ATOM      9  C   UNL     1       3.218   4.160  18.948  0.00  0.00    +0.000 A 
ENDROOT
BRANCH   7  10
ATOM     10  C   UNL     1       1.778   7.203  20.157  0.00  0.00    +0.000 C 
ATOM     11  O   UNL     1       2.220   7.949  19.281  0.00  0.00    +0.000 OA
ATOM     12  N   UNL     1       0.975   7.601  21.217  0.00  0.00    +0.000 N 
ATOM     13  H   UNL     1       0.804   6.912  21.946  0.00  0.00    +0.000 HD
BRANCH  12  14
ATOM     14  C   UNL     1       0.526   8.930  21.414  0.00  0.00    +0.000 A 
ATOM     15  C   UNL     1       0.795   9.962  20.500  0.00  0.00    +0.000 A 
ATOM     16  C   UNL     1       0.387  11.273  20.745  0.00  0.00    +0.000 A 
ATOM     17  C   UNL     1      -0.308  11.558  21.906  0.00  0.00    +0.000 A 
ATOM     18  F   UNL     1      -0.690  12.818  22.153  0.00  0.00    +0.000 F 
ATOM     19  C   UNL     1      -0.612  10.551  22.818  0.00  0.00    +0.000 A 
ATOM     20  C   UNL     1      -0.204   9.233  22.569  0.00  0.00    +0.000 A 
ENDBRANCH  12  14
ENDBRANCH   7  10
BRANCH   5  21
ATOM     21  O   UNL     1       2.143   2.869  22.171  0.00  0.00    +0.000 OA
ATOM     22  H   UNL     1       1.466   2.223  21.894  0.00  0.00    +0.000 HD
ENDBRANCH   5  21
BRANCH   1  23
ATOM     23  C   UNL     1       4.619   4.150  16.873  0.00  0.00    +0.000 C 
BRANCH  23  30
ATOM     24  C   UNL     1       8.367   5.320  20.027  0.00  0.00    +0.000 C 
ATOM     25  C   UNL     1       7.505   5.684  18.852  0.00  0.00    +0.000 A 
ATOM     26  C   UNL     1       7.660   6.912  18.210  0.00  0.00    +0.000 A 
ATOM     27  C   UNL     1       6.845   7.251  17.128  0.00  0.00    +0.000 A 
ATOM     28  C   UNL     1       5.853   6.374  16.667  0.00  0.00    +0.000 A 
ATOM     29  C   UNL     1       5.004   6.789  15.496  0.00  0.00    +0.000 C 
ATOM     30  C   UNL     1       5.679   5.132  17.310  0.00  0.00    +0.000 A 
ATOM     31  C   UNL     1       6.518   4.799  18.396  0.00  0.00    +0.000 A 
ENDBRANCH  23  30
ENDBRANCH   1  23
TORSDOF 5
ENDMDL
MODEL 3
REMARK VINA RESULT:      -8.1      3.964      8.996
REMARK  Name = 
REMARK  7 active torsions:
REMARK  status: ('A' for Active; 'I' for Inactive)
REMARK    1  A    between atoms: C_1  and  C_2
REMARK    2  A    between atoms: C_5  and  C_6
REMARK    3  A    between atoms: C_7  and  C_8
REMARK    4  A    between atoms: C_8  and  N_9
REMARK    5  A    between atoms: C_13  and  O_14
REMARK    6  A    between atoms: C_16  and  C_17
REMARK    7  A    between atoms: N_19  and  C_20
REMARK                            x       y       z     vdW  Elec       q    Type
REMARK                         _______ _______ _______ _____ _____    ______ ____
ROOT
ATOM      1  N   UNL     1       3.819   3.712  17.953  0.00  0.00    +0.000 N 
ATOM      2  N   UNL     1       3.983   2.425  18.346  0.00  0.00    +0.000 NA
ATOM      3  N   UNL     1       3.379   2.281  19.528  0.00  0.00    +0.000 NA
ATOM      4  C   UNL     1       2.874   3.500  19.893  0.00  0.00    +0.000 A 
ATOM      5  C   UNL     1       2.226   4.003  21.022  0.00  0.00    +0.000 A 
ATOM      6  N   UNL     1       1.895   5.318  21.102  0.00  0.00    +0.000 NA
ATOM      7  C   UNL     1       2.195   6.086  20.021  0.00  0.00    +0.000 A 
ATOM      8  N   UNL     1       2.811   5.705  18.883  0.00  0.00    +0.000 NA
ATOM      9  C   UNL     1       3.123   4.410  18.893  0.00  0.00    +0.000 A 
ENDROOT
BRANCH   7  10
ATOM     10  C   UNL     1       1.858   7.550  20.049  0.00  0.00    +0.000 C 
ATOM     11  O   UNL     1       1.639   8.055  21.153  0.00  0.00    +0.000 OA
ATOM     12  N   UNL     1       1.755   8.211  18.832  0.00  0.00    +0.000 N 
ATOM     13  H   UNL     1       1.820   7.639  17.994  0.00  0.00    +0.000 HD
BRANCH  12  14
ATOM     14  C   UNL     1       1.409   9.579  18.702  0.00  0.00    +0.000 A 
ATOM     15  C   UNL     1       2.325  10.552  18.273  0.00  0.00    +0.000 A 
ATOM     16  C   UNL     1       1.974  11.900  18.205  0.00  0.00    +0.000 A 
ATOM     17  C   UNL     1       0.692  12.282  18.555  0.00  0.00    +0.000 A 
ATOM     18  F   UNL     1       0.352  13.577  18.505  0.00  0.00    +0.000 F 
ATOM     19  C   UNL     1      -0.246  11.336  18.959  0.00  0.00    +0.000 A 
ATOM     20  C   UNL     1       0.108   9.981  19.024  0.00  0.00    +0.000 A 
ENDBRANCH  12  14
ENDBRANCH   7  10
BRANCH   5  21
ATOM     21  O   UNL     1       1.930   3.226  22.116  0.00  0.00    +0.000 OA
ATOM     22  H   UNL     1       2.741   2.723  22.321  0.00  0.00    +0.000 HD
ENDBRANCH   5  21
BRANCH   1  23
ATOM     23  C   UNL     1       4.546   4.289  16.837  0.00  0.00    +0.000 C 
BRANCH  23  30
ATOM     24  C   UNL     1       8.307   5.343  20.016  0.00  0.00    +0.000 C 
ATOM     25  C   UNL     1       7.470   5.730  18.831  0.00  0.00    +0.000 A 
ATOM     26  C   UNL     1       7.677   6.947  18.182  0.00  0.00    +0.000 A 
ATOM     27  C   UNL     1       6.884   7.308  17.090  0.00  0.00    +0.000 A 
ATOM     28  C   UNL     1       5.864   6.465  16.626  0.00  0.00    +0.000 A 
ATOM     29  C   UNL     1       5.041   6.902  15.445  0.00  0.00    +0.000 C 
ATOM     30  C   UNL     1       5.638   5.235  17.277  0.00  0.00    +0.000 A 
ATOM     31  C   UNL     1       6.455   4.879  18.372  0.00  0.00    +0.000 A 
ENDBRANCH  23  30
ENDBRANCH   1  23
TORSDOF 5
ENDMDL
MODEL 4
REMARK VINA RESULT:      -8.1      4.033      9.331
REMARK  Name = 
REMARK  7 active torsions:
REMARK  status: ('A' for Active; 'I' for Inactive)
REMARK    1  A    between atoms: C_1  and  C_2
REMARK    2  A    between atoms: C_5  and  C_6
REMARK    3  A    between atoms: C_7  and  C_8
REMARK    4  A    between atoms: C_8  and  N_9
REMARK    5  A    between atoms: C_13  and  O_14
REMARK    6  A    between atoms: C_16  and  C_17
REMARK    7  A    between atoms: N_19  and  C_20
REMARK                            x       y       z     vdW  Elec       q    Type
REMARK                         _______ _______ _______ _____ _____    ______ ____
ROOT
ATOM      1  N   UNL     1       3.151   3.402  17.740  0.00  0.00    +0.000 N 
ATOM      2  N   UNL     1       3.434   2.114  18.054  0.00  0.00    +0.000 NA
ATOM      3  N   UNL     1       3.108   1.927  19.335  0.00  0.00    +0.000 NA
ATOM      4  C   UNL     1       2.662   3.121  19.834  0.00  0.00    +0.000 A 
ATOM      5  C   UNL     1       2.264   3.579  21.090  0.00  0.00    +0.000 A 
ATOM      6  N   UNL     1       1.922   4.881  21.276  0.00  0.00    +0.000 NA
ATOM      7  C   UNL     1       1.956   5.680  20.177  0.00  0.00    +0.000 A 
ATOM      8  N   UNL     1       2.317   5.342  18.921  0.00  0.00    +0.000 NA
ATOM      9  C   UNL     1       2.659   4.059  18.828  0.00  0.00    +0.000 A 
ENDROOT
BRANCH   7  10
ATOM     10  C   UNL     1       1.592   7.131  20.317  0.00  0.00    +0.000 C 
ATOM     11  O   UNL     1       2.246   7.940  19.655  0.00  0.00    +0.000 OA
ATOM     12  N   UNL     1       0.595   7.461  21.226  0.00  0.00    +0.000 N 
ATOM     13  H   UNL     1       0.240   6.707  21.809  0.00  0.00    +0.000 HD
BRANCH  12  14
ATOM     14  C   UNL     1       0.173   8.787  21.490  0.00  0.00    +0.000 A 
ATOM     15  C   UNL     1       0.167   9.788  20.506  0.00  0.00    +0.000 A 
ATOM     16  C   UNL     1      -0.203  11.100  20.807  0.00  0.00    +0.000 A 
ATOM     17  C   UNL     1      -0.584  11.414  22.098  0.00  0.00    +0.000 A 
ATOM     18  F   UNL     1      -0.927  12.674  22.396  0.00  0.00    +0.000 F 
ATOM     19  C   UNL     1      -0.613  10.436  23.089  0.00  0.00    +0.000 A 
ATOM     20  C   UNL     1      -0.244   9.119  22.784  0.00  0.00    +0.000 A 
ENDBRANCH  12  14
ENDBRANCH   7  10
BRANCH   5  21
ATOM     21  O   UNL     1       2.238   2.771  22.202  0.00  0.00    +0.000 OA
ATOM     22  H   UNL     1       2.437   3.348  22.963  0.00  0.00    +0.000 HD
ENDBRANCH   5  21
BRANCH   1  23
ATOM     23  C   UNL     1       3.598   4.026  16.508  0.00  0.00    +0.000 C 
BRANCH  23  30
ATOM     24  C   UNL     1       7.538   5.683  19.173  0.00  0.00    +0.000 C 
ATOM     25  C   UNL     1       6.964   5.225  17.863  0.00  0.00    +0.000 A 
ATOM     26  C   UNL     1       7.750   5.205  16.711  0.00  0.00    +0.000 A 
ATOM     27  C   UNL     1       7.207   4.794  15.492  0.00  0.00    +0.000 A 
ATOM     28  C   UNL     1       5.865   4.400  15.395  0.00  0.00    +0.000 A 
ATOM     29  C   UNL     1       5.330   3.965  14.058  0.00  0.00    +0.000 C 
ATOM     30  C   UNL     1       5.055   4.423  16.549  0.00  0.00    +0.000 A 
ATOM     31  C   UNL     1       5.622   4.830  17.776  0.00  0.00    +0.000 A 
ENDBRANCH  23  30
ENDBRANCH   1  23
TORSDOF 5
ENDMDL
MODEL 5
REMARK VINA RESULT:      -8.0      6.657      9.358
REMARK  Name = 
REMARK  7 active torsions:
REMARK  status: ('A' for Active; 'I' for Inactive)
REMARK    1  A    between atoms: C_1  and  C_2
REMARK    2  A    between atoms: C_5  and  C_6
REMARK    3  A    between atoms: C_7  and  C_8
REMARK    4  A    between atoms: C_8  and  N_9
REMARK    5  A    between atoms: C_13  and  O_14
REMARK    6  A    between atoms: C_16  and  C_17
REMARK    7  A    between atoms: N_19  and  C_20
REMARK                            x       y       z     vdW  Elec       q    Type
REMARK                         _______ _______ _______ _____ _____    ______ ____
ROOT
ATOM      1  N   UNL     1       4.995   3.895  18.187  0.00  0.00    +0.000 N 
ATOM      2  N   UNL     1       4.483   3.118  17.202  0.00  0.00    +0.000 NA
ATOM      3  N   UNL     1       5.068   3.477  16.056  0.00  0.00    +0.000 NA
ATOM      4  C   UNL     1       5.916   4.517  16.325  0.00  0.00    +0.000 A 
ATOM      5  C   UNL     1       6.727   5.354  15.557  0.00  0.00    +0.000 A 
ATOM      6  N   UNL     1       7.425   6.364  16.138  0.00  0.00    +0.000 NA
ATOM      7  C   UNL     1       7.315   6.480  17.488  0.00  0.00    +0.000 A 
ATOM      8  N   UNL     1       6.571   5.727  18.324  0.00  0.00    +0.000 NA
ATOM      9  C   UNL     1       5.900   4.776  17.675  0.00  0.00    +0.000 A 
ENDROOT
BRANCH   7  10
ATOM     10  C   UNL     1       8.060   7.580  18.190  0.00  0.00    +0.000 C 
ATOM     11  O   UNL     1       8.686   7.274  19.208  0.00  0.00    +0.000 OA
ATOM     12  N   UNL     1       7.939   8.867  17.682  0.00  0.00    +0.000 N 
ATOM     13  H   UNL     1       7.276   8.998  16.922  0.00  0.00    +0.000 HD
BRANCH  12  14
ATOM     14  C   UNL     1       8.553  10.006  18.259  0.00  0.00    +0.000 A 
ATOM     15  C   UNL     1       9.288   9.945  19.453  0.00  0.00    +0.000 A 
ATOM     16  C   UNL     1       9.837  11.092  20.027  0.00  0.00    +0.000 A 
ATOM     17  C   UNL     1       9.664  12.311  19.397  0.00  0.00    +0.000 A 
ATOM     18  F   UNL     1      10.177  13.418  19.950  0.00  0.00    +0.000 F 
ATOM     19  C   UNL     1       8.963  12.398  18.198  0.00  0.00    +0.000 A 
ATOM     20  C   UNL     1       8.414  11.244  17.621  0.00  0.00    +0.000 A 
ENDBRANCH  12  14
ENDBRANCH   7  10
BRANCH   5  21
ATOM     21  O   UNL     1       6.830   5.240  14.192  0.00  0.00    +0.000 OA
ATOM     22  H   UNL     1       7.412   4.474  14.025  0.00  0.00    +0.000 HD
ENDBRANCH   5  21
BRANCH   1  23
ATOM     23  C   UNL     1       4.421   3.952  19.520  0.00  0.00    +0.000 C 
BRANCH  23  30
ATOM     24  C   UNL     1       2.580   8.378  17.977  0.00  0.00    +0.000 C 
ATOM     25  C   UNL     1       2.497   7.194  18.896  0.00  0.00    +0.000 A 
ATOM     26  C   UNL     1       1.510   7.124  19.878  0.00  0.00    +0.000 A 
ATOM     27  C   UNL     1       1.448   6.028  20.741  0.00  0.00    +0.000 A 
ATOM     28  C   UNL     1       2.375   4.980  20.646  0.00  0.00    +0.000 A 
ATOM     29  C   UNL     1       2.262   3.821  21.599  0.00  0.00    +0.000 C 
ATOM     30  C   UNL     1       3.384   5.040  19.664  0.00  0.00    +0.000 A 
ATOM     31  C   UNL     1       3.427   6.149  18.792  0.00  0.00    +0.000 A 
ENDBRANCH  23  30
ENDBRANCH   1  23
TORSDOF 5
ENDMDL
MODEL 6
REMARK VINA RESULT:      -8.0      0.656      1.763
REMARK  Name = 
REMARK  7 active torsions:
REMARK  status: ('A' for Active; 'I' for Inactive)
REMARK    1  A    between atoms: C_1  and  C_2
REMARK    2  A    between atoms: C_5  and  C_6
REMARK    3  A    between atoms: C_7  and  C_8
REMARK    4  A    between atoms: C_8  and  N_9
REMARK    5  A    between atoms: C_13  and  O_14
REMARK    6  A    between atoms: C_16  and  C_17
REMARK    7  A    between atoms: N_19  and  C_20
REMARK                            x       y       z     vdW  Elec       q    Type
REMARK                         _______ _______ _______ _____ _____    ______ ____
ROOT
ATOM      1  N   UNL     1      -0.702  12.254  20.827  0.00  0.00    +0.000 N 
ATOM      2  N   UNL     1      -1.263  12.716  21.971  0.00  0.00    +0.000 NA
ATOM      3  N   UNL     1      -0.962  11.856  22.948  0.00  0.00    +0.000 NA
ATOM      4  C   UNL     1      -0.248  10.827  22.396  0.00  0.00    +0.000 A 
ATOM      5  C   UNL     1       0.268   9.619  22.867  0.00  0.00    +0.000 A 
ATOM      6  N   UNL     1       0.899   8.760  22.024  0.00  0.00    +0.000 NA
ATOM      7  C   UNL     1       1.024   9.161  20.731  0.00  0.00    +0.000 A 
ATOM      8  N   UNL     1       0.571  10.303  20.173  0.00  0.00    +0.000 NA
ATOM      9  C   UNL     1      -0.054  11.078  21.058  0.00  0.00    +0.000 A 
ENDROOT
BRANCH   7  10
ATOM     10  C   UNL     1       1.709   8.254  19.748  0.00  0.00    +0.000 C 
ATOM     11  O   UNL     1       1.838   8.672  18.595  0.00  0.00    +0.000 OA
ATOM     12  N   UNL     1       2.085   6.992  20.189  0.00  0.00    +0.000 N 
ATOM     13  H   UNL     1       1.787   6.727  21.125  0.00  0.00    +0.000 HD
BRANCH  12  14
ATOM     14  C   UNL     1       2.705   6.019  19.367  0.00  0.00    +0.000 A 
ATOM     15  C   UNL     1       4.100   5.890  19.269  0.00  0.00    +0.000 A 
ATOM     16  C   UNL     1       4.684   4.959  18.411  0.00  0.00    +0.000 A 
ATOM     17  C   UNL     1       3.871   4.138  17.651  0.00  0.00    +0.000 A 
ATOM     18  F   UNL     1       4.426   3.251  16.815  0.00  0.00    +0.000 F 
ATOM     19  C   UNL     1       2.485   4.225  17.746  0.00  0.00    +0.000 A 
ATOM     20  C   UNL     1       1.899   5.159  18.612  0.00  0.00    +0.000 A 
ENDBRANCH  12  14
ENDBRANCH   7  10
BRANCH   5  21
ATOM     21  O   UNL     1       0.133   9.213  24.172  0.00  0.00    +0.000 OA
ATOM     22  H   UNL     1       0.019   8.244  24.146  0.00  0.00    +0.000 HD
ENDBRANCH   5  21
BRANCH   1  23
ATOM     23  C   UNL     1      -1.022  12.801  19.521  0.00  0.00    +0.000 C 
BRANCH  23  30
ATOM     24  C   UNL     1      -2.666   9.662  15.941  0.00  0.00    +0.000 C 
ATOM     25  C   UNL     1      -2.961  10.556  17.111  0.00  0.00    +0.000 A 
ATOM     26  C   UNL     1      -4.272  10.751  17.544  0.00  0.00    +0.000 A 
ATOM     27  C   UNL     1      -4.541  11.597  18.622  0.00  0.00    +0.000 A 
ATOM     28  C   UNL     1      -3.508  12.271  19.288  0.00  0.00    +0.000 A 
ATOM     29  C   UNL     1      -3.853  13.169  20.444  0.00  0.00    +0.000 C 
ATOM     30  C   UNL     1      -2.178  12.091  18.856  0.00  0.00    +0.000 A 
ATOM     31  C   UNL     1      -1.920  11.224  17.772  0.00  0.00    +0.000 A 
ENDBRANCH  23  30
ENDBRANCH   1  23
TORSDOF 5
ENDMDL
MODEL 7
REMARK VINA RESULT:      -8.0      3.850      9.348
REMARK  Name = 
REMARK  7 active torsions:
REMARK  status: ('A' for Active; 'I' for Inactive)
REMARK    1  A    between atoms: C_1  and  C_2
REMARK    2  A    between atoms: C_5  and  C_6
REMARK    3  A    between atoms: C_7  and  C_8
REMARK    4  A    between atoms: C_8  and  N_9
REMARK    5  A    between atoms: C_13  and  O_14
REMARK    6  A    between atoms: C_16  and  C_17
REMARK    7  A    between atoms: N_19  and  C_20
REMARK                            x       y       z     vdW  Elec       q    Type
REMARK                         _______ _______ _______ _____ _____    ______ ____
ROOT
ATOM      1  N   UNL     1       4.841   4.079  19.419  0.00  0.00    +0.000 N 
ATOM      2  N   UNL     1       4.866   2.730  19.553  0.00  0.00    +0.000 NA
ATOM      3  N   UNL     1       3.656   2.340  19.964  0.00  0.00    +0.000 NA
ATOM      4  C   UNL     1       2.888   3.461  20.130  0.00  0.00    +0.000 A 
ATOM      5  C   UNL     1       1.599   3.714  20.603  0.00  0.00    +0.000 A 
ATOM      6  N   UNL     1       1.136   4.987  20.701  0.00  0.00    +0.000 NA
ATOM      7  C   UNL     1       1.974   5.972  20.283  0.00  0.00    +0.000 A 
ATOM      8  N   UNL     1       3.229   5.841  19.806  0.00  0.00    +0.000 NA
ATOM      9  C   UNL     1       3.617   4.568  19.764  0.00  0.00    +0.000 A 
ENDROOT
BRANCH   7  10
ATOM     10  C   UNL     1       1.521   7.402  20.370  0.00  0.00    +0.000 C 
ATOM     11  O   UNL     1       2.107   8.221  19.658  0.00  0.00    +0.000 OA
ATOM     12  N   UNL     1       0.525   7.709  21.288  0.00  0.00    +0.000 N 
ATOM     13  H   UNL     1       0.232   6.960  21.911  0.00  0.00    +0.000 HD
BRANCH  12  14
ATOM     14  C   UNL     1       0.024   9.016  21.505  0.00  0.00    +0.000 A 
ATOM     15  C   UNL     1      -0.192   9.539  22.789  0.00  0.00    +0.000 A 
ATOM     16  C   UNL     1      -0.737  10.810  22.974  0.00  0.00    +0.000 A 
ATOM     17  C   UNL     1      -1.057  11.574  21.866  0.00  0.00    +0.000 A 
ATOM     18  F   UNL     1      -1.593  12.789  22.037  0.00  0.00    +0.000 F 
ATOM     19  C   UNL     1      -0.830  11.092  20.581  0.00  0.00    +0.000 A 
ATOM     20  C   UNL     1      -0.279   9.816  20.397  0.00  0.00    +0.000 A 
ENDBRANCH  12  14
ENDBRANCH   7  10
BRANCH   5  21
ATOM     21  O   UNL     1       0.757   2.717  21.031  0.00  0.00    +0.000 OA
ATOM     22  H   UNL     1       1.259   1.883  20.956  0.00  0.00    +0.000 HD
ENDBRANCH   5  21
BRANCH   1  23
ATOM     23  C   UNL     1       6.043   4.870  19.224  0.00  0.00    +0.000 C 
BRANCH  23  30
ATOM     24  C   UNL     1       5.339   3.627  14.394  0.00  0.00    +0.000 C 
ATOM     25  C   UNL     1       5.983   4.516  15.419  0.00  0.00    +0.000 A 
ATOM     26  C   UNL     1       6.860   5.528  15.032  0.00  0.00    +0.000 A 
ATOM     27  C   UNL     1       7.469   6.340  15.991  0.00  0.00    +0.000 A 
ATOM     28  C   UNL     1       7.219   6.155  17.359  0.00  0.00    +0.000 A 
ATOM     29  C   UNL     1       7.900   7.059  18.350  0.00  0.00    +0.000 C 
ATOM     30  C   UNL     1       6.341   5.131  17.766  0.00  0.00    +0.000 A 
ATOM     31  C   UNL     1       5.725   4.325  16.784  0.00  0.00    +0.000 A 
ENDBRANCH  23  30
ENDBRANCH   1  23
TORSDOF 5
ENDMDL
MODEL 8
REMARK VINA RESULT:      -7.9      3.499      5.245
REMARK  Name = 
REMARK  7 active torsions:
REMARK  status: ('A' for Active; 'I' for Inactive)
REMARK    1  A    between atoms: C_1  and  C_2
REMARK    2  A    between atoms: C_5  and  C_6
REMARK    3  A    between atoms: C_7  and  C_8
REMARK    4  A    between atoms: C_8  and  N_9
REMARK    5  A    between atoms: C_13  and  O_14
REMARK    6  A    between atoms: C_16  and  C_17
REMARK    7  A    between atoms: N_19  and  C_20
REMARK                            x       y       z     vdW  Elec       q    Type
REMARK                         _______ _______ _______ _____ _____    ______ ____
ROOT
ATOM      1  N   UNL     1       1.925   8.603  19.108  0.00  0.00    +0.000 N 
ATOM      2  N   UNL     1       1.244   8.309  20.242  0.00  0.00    +0.000 NA
ATOM      3  N   UNL     1       1.571   7.066  20.602  0.00  0.00    +0.000 NA
ATOM      4  C   UNL     1       2.427   6.566  19.658  0.00  0.00    +0.000 A 
ATOM      5  C   UNL     1       3.040   5.333  19.434  0.00  0.00    +0.000 A 
ATOM      6  N   UNL     1       3.814   5.134  18.336  0.00  0.00    +0.000 NA
ATOM      7  C   UNL     1       3.980   6.200  17.509  0.00  0.00    +0.000 A 
ATOM      8  N   UNL     1       3.443   7.432  17.632  0.00  0.00    +0.000 NA
ATOM      9  C   UNL     1       2.681   7.538  18.719  0.00  0.00    +0.000 A 
ENDROOT
BRANCH   7  10
ATOM     10  C   UNL     1       4.822   6.043  16.274  0.00  0.00    +0.000 C 
ATOM     11  O   UNL     1       5.250   7.075  15.752  0.00  0.00    +0.000 OA
ATOM     12  N   UNL     1       5.002   4.759  15.776  0.00  0.00    +0.000 N 
ATOM     13  H   UNL     1       4.472   4.016  16.224  0.00  0.00    +0.000 HD
BRANCH  12  14
ATOM     14  C   UNL     1       5.739   4.462  14.603  0.00  0.00    +0.000 A 
ATOM     15  C   UNL     1       7.029   4.965  14.374  0.00  0.00    +0.000 A 
ATOM     16  C   UNL     1       7.711   4.701  13.185  0.00  0.00    +0.000 A 
ATOM     17  C   UNL     1       7.107   3.916  12.221  0.00  0.00    +0.000 A 
ATOM     18  F   UNL     1       7.751   3.670  11.073  0.00  0.00    +0.000 F 
ATOM     19  C   UNL     1       5.839   3.382  12.431  0.00  0.00    +0.000 A 
ATOM     20  C   UNL     1       5.156   3.646  13.627  0.00  0.00    +0.000 A 
ENDBRANCH  12  14
ENDBRANCH   7  10
BRANCH   5  21
ATOM     21  O   UNL     1       2.865   4.255  20.267  0.00  0.00    +0.000 OA
ATOM     22  H   UNL     1       3.612   4.270  20.895  0.00  0.00    +0.000 HD
ENDBRANCH   5  21
BRANCH   1  23
ATOM     23  C   UNL     1       1.634   9.773  18.299  0.00  0.00    +0.000 C 
BRANCH  23  30
ATOM     24  C   UNL     1      -3.284   9.841  17.218  0.00  0.00    +0.000 C 
ATOM     25  C   UNL     1      -2.133  10.358  18.031  0.00  0.00    +0.000 A 
ATOM     26  C   UNL     1      -2.326  11.363  18.978  0.00  0.00    +0.000 A 
ATOM     27  C   UNL     1      -1.248  11.852  19.718  0.00  0.00    +0.000 A 
ATOM     28  C   UNL     1       0.048  11.353  19.526  0.00  0.00    +0.000 A 
ATOM     29  C   UNL     1       1.174  11.913  20.352  0.00  0.00    +0.000 C 
ATOM     30  C   UNL     1       0.261  10.342  18.566  0.00  0.00    +0.000 A 
ATOM     31  C   UNL     1      -0.841   9.850  17.833  0.00  0.00    +0.000 A 
ENDBRANCH  23  30
ENDBRANCH   1  23
TORSDOF 5
ENDMDL
MODEL 9
REMARK VINA RESULT:      -7.9      3.366      5.114
REMARK  Name = 
REMARK  7 active torsions:
REMARK  status: ('A' for Active; 'I' for Inactive)
REMARK    1  A    between atoms: C_1  and  C_2
REMARK    2  A    between atoms: C_5  and  C_6
REMARK    3  A    between atoms: C_7  and  C_8
REMARK    4  A    between atoms: C_8  and  N_9
REMARK    5  A    between atoms: C_13  and  O_14
REMARK    6  A    between atoms: C_16  and  C_17
REMARK    7  A    between atoms: N_19  and  C_20
REMARK                            x       y       z     vdW  Elec       q    Type
REMARK                         _______ _______ _______ _____ _____    ______ ____
ROOT
ATOM      1  N   UNL     1       1.979   8.285  19.099  0.00  0.00    +0.000 N 
ATOM      2  N   UNL     1       1.316   8.445  20.271  0.00  0.00    +0.000 NA
ATOM      3  N   UNL     1       1.451   7.315  20.971  0.00  0.00    +0.000 NA
ATOM      4  C   UNL     1       2.164   6.431  20.209  0.00  0.00    +0.000 A 
ATOM      5  C   UNL     1       2.552   5.097  20.346  0.00  0.00    +0.000 A 
ATOM      6  N   UNL     1       3.227   4.467  19.350  0.00  0.00    +0.000 NA
ATOM      7  C   UNL     1       3.525   5.211  18.252  0.00  0.00    +0.000 A 
ATOM      8  N   UNL     1       3.207   6.502  18.019  0.00  0.00    +0.000 NA
ATOM      9  C   UNL     1       2.528   7.040  19.030  0.00  0.00    +0.000 A 
ENDROOT
BRANCH   7  10
ATOM     10  C   UNL     1       4.267   4.570  17.114  0.00  0.00    +0.000 C 
ATOM     11  O   UNL     1       4.430   3.349  17.167  0.00  0.00    +0.000 OA
ATOM     12  N   UNL     1       4.770   5.402  16.122  0.00  0.00    +0.000 N 
ATOM     13  H   UNL     1       4.685   6.404  16.279  0.00  0.00    +0.000 HD
BRANCH  12  14
ATOM     14  C   UNL     1       5.518   4.945  15.010  0.00  0.00    +0.000 A 
ATOM     15  C   UNL     1       6.863   5.293  14.809  0.00  0.00    +0.000 A 
ATOM     16  C   UNL     1       7.561   4.872  13.677  0.00  0.00    +0.000 A 
ATOM     17  C   UNL     1       6.917   4.084  12.741  0.00  0.00    +0.000 A 
ATOM     18  F   UNL     1       7.578   3.688  11.646  0.00  0.00    +0.000 F 
ATOM     19  C   UNL     1       5.592   3.702  12.926  0.00  0.00    +0.000 A 
ATOM     20  C   UNL     1       4.893   4.123  14.066  0.00  0.00    +0.000 A 
ENDBRANCH  12  14
ENDBRANCH   7  10
BRANCH   5  21
ATOM     21  O   UNL     1       2.242   4.344  21.452  0.00  0.00    +0.000 OA
ATOM     22  H   UNL     1       1.828   4.955  22.091  0.00  0.00    +0.000 HD
ENDBRANCH   5  21
BRANCH   1  23
ATOM     23  C   UNL     1       1.847   9.213  17.990  0.00  0.00    +0.000 C 
BRANCH  23  30
ATOM     24  C   UNL     1      -3.122   9.746  17.361  0.00  0.00    +0.000 C 
ATOM     25  C   UNL     1      -1.805  10.323  17.792  0.00  0.00    +0.000 A 
ATOM     26  C   UNL     1      -1.719  11.640  18.244  0.00  0.00    +0.000 A 
ATOM     27  C   UNL     1      -0.489  12.176  18.628  0.00  0.00    +0.000 A 
ATOM     28  C   UNL     1       0.686  11.412  18.563  0.00  0.00    +0.000 A 
ATOM     29  C   UNL     1       1.985  12.039  18.990  0.00  0.00    +0.000 C 
ATOM     30  C   UNL     1       0.617  10.083  18.099  0.00  0.00    +0.000 A 
ATOM     31  C   UNL     1      -0.636   9.551  17.726  0.00  0.00    +0.000 A 
ENDBRANCH  23  30
ENDBRANCH   1  23
TORSDOF 5
ENDMDL
