MODEL 1
REMARK VINA RESULT:      -8.5      0.000      0.000
REMARK  Name = 
REMARK  8 active torsions:
REMARK  status: ('A' for Active; 'I' for Inactive)
REMARK    1  A    between atoms: C_1  and  C_2
REMARK    2  A    between atoms: C_2  and  C_3
REMARK    3  A    between atoms: C_17  and  O_18
REMARK    4  A    between atoms: O_18  and  C_19
REMARK    5  A    between atoms: C_19  and  C_21
REMARK    6  A    between atoms: C_22  and  C_23
REMARK    7  A    between atoms: C_26  and  O_27
REMARK    8  A    between atoms: C_28  and  O_29
REMARK                            x       y       z     vdW  Elec       q    Type
REMARK                         _______ _______ _______ _____ _____    ______ ____
ROOT
ATOM      1  C   UNL     1       7.313   5.419  14.784  0.00  0.00    +0.000 C 
ATOM      2  C   UNL     1       6.200   5.809  15.769  0.00  0.00    +0.000 C 
ATOM      3  C   UNL     1       5.274   6.807  15.048  0.00  0.00    +0.000 C 
ATOM      4  O   UNL     1       5.474   4.587  16.027  0.00  0.00    +0.000 OA
ATOM      5  C   UNL     1       4.608   4.616  17.087  0.00  0.00    +0.000 A 
ATOM      6  C   UNL     1       3.676   3.584  17.131  0.00  0.00    +0.000 A 
ATOM      7  C   UNL     1       2.711   3.586  18.133  0.00  0.00    +0.000 A 
ATOM      8  O   UNL     1       1.771   2.538  18.124  0.00  0.00    +0.000 OA
ATOM      9  C   UNL     1       0.752   2.481  19.063  0.00  0.00    +0.000 A 
ATOM     10  O   UNL     1      -0.080   1.581  19.078  0.00  0.00    +0.000 OA
ATOM     11  C   UNL     1       0.703   3.567  20.059  0.00  0.00    +0.000 A 
ATOM     12  C   UNL     1       1.596   4.560  20.086  0.00  0.00    +0.000 A 
ATOM     13  C   UNL     1       2.663   4.591  19.095  0.00  0.00    +0.000 A 
ATOM     14  C   UNL     1       3.629   5.601  19.071  0.00  0.00    +0.000 A 
ATOM     15  C   UNL     1       4.623   5.608  18.076  0.00  0.00    +0.000 A 
ATOM     16  C   UNL     1       5.667   6.692  18.060  0.00  0.00    +0.000 C 
ATOM     17  C   UNL     1       6.807   6.351  17.090  0.00  0.00    +0.000 C 
ENDROOT
BRANCH  17  18
ATOM     18  O   UNL     1       7.637   7.512  16.857  0.00  0.00    +0.000 OA
BRANCH  18  19
ATOM     19  C   UNL     1       8.225   8.032  17.970  0.00  0.00    +0.000 C 
ATOM     20  O   UNL     1       8.533   7.413  18.976  0.00  0.00    +0.000 OA
BRANCH  19  21
ATOM     21  C   UNL     1       8.424   9.485  17.783  0.00  0.00    +0.000 C 
ATOM     22  C   UNL     1       9.305  10.149  18.549  0.00  0.00    +0.000 C 
BRANCH  22  23
ATOM     23  C   UNL     1       9.547  11.602  18.476  0.00  0.00    +0.000 A 
ATOM     24  C   UNL     1       9.076  12.427  19.514  0.00  0.00    +0.000 A 
ATOM     25  C   UNL     1       9.254  13.818  19.475  0.00  0.00    +0.000 A 
ATOM     26  C   UNL     1       9.917  14.382  18.394  0.00  0.00    +0.000 A 
ATOM     27  C   UNL     1      10.421  13.571  17.382  0.00  0.00    +0.000 A 
ATOM     28  C   UNL     1      10.254  12.191  17.419  0.00  0.00    +0.000 A 
BRANCH  26  29
ATOM     29  O   UNL     1      10.099  15.732  18.276  0.00  0.00    +0.000 OA
ATOM     30  H   UNL     1       9.268  16.174  18.522  0.00  0.00    +0.000 HD
ENDBRANCH  26  29
BRANCH  27  31
ATOM     31  O   UNL     1      11.080  14.131  16.325  0.00  0.00    +0.000 OA
ATOM     32  H   UNL     1      10.372  14.369  15.693  0.00  0.00    +0.000 HD
ENDBRANCH  27  31
ENDBRANCH  22  23
ENDBRANCH  19  21
ENDBRANCH  18  19
ENDBRANCH  17  18
TORSDOF 6
ENDMDL
MODEL 2
REMARK VINA RESULT:      -8.5      7.068     10.434
REMARK  Name = 
REMARK  8 active torsions:
REMARK  status: ('A' for Active; 'I' for Inactive)
REMARK    1  A    between atoms: C_1  and  C_2
REMARK    2  A    between atoms: C_2  and  C_3
REMARK    3  A    between atoms: C_17  and  O_18
REMARK    4  A    between atoms: O_18  and  C_19
REMARK    5  A    between atoms: C_19  and  C_21
REMARK    6  A    between atoms: C_22  and  C_23
REMARK    7  A    between atoms: C_26  and  O_27
REMARK    8  A    between atoms: C_28  and  O_29
REMARK                            x       y       z     vdW  Elec       q    Type
REMARK                         _______ _______ _______ _____ _____    ______ ____
ROOT
ATOM      1  C   UNL     1       1.202  10.371  21.831  0.00  0.00    +0.000 C 
ATOM      2  C   UNL     1       0.086  10.059  20.822  0.00  0.00    +0.000 C 
ATOM      3  C   UNL     1      -0.644   8.795  21.317  0.00  0.00    +0.000 C 
ATOM      4  O   UNL     1      -0.815  11.186  20.890  0.00  0.00    +0.000 OA
ATOM      5  C   UNL     1      -1.741  11.275  19.886  0.00  0.00    +0.000 A 
ATOM      6  C   UNL     1      -2.805  12.140  20.123  0.00  0.00    +0.000 A 
ATOM      7  C   UNL     1      -3.829  12.226  19.186  0.00  0.00    +0.000 A 
ATOM      8  O   UNL     1      -4.900  13.093  19.479  0.00  0.00    +0.000 OA
ATOM      9  C   UNL     1      -5.980  13.214  18.618  0.00  0.00    +0.000 A 
ATOM     10  O   UNL     1      -6.925  13.960  18.849  0.00  0.00    +0.000 OA
ATOM     11  C   UNL     1      -5.952  12.393  17.394  0.00  0.00    +0.000 A 
ATOM     12  C   UNL     1      -4.937  11.576  17.099  0.00  0.00    +0.000 A 
ATOM     13  C   UNL     1      -3.809  11.475  18.014  0.00  0.00    +0.000 A 
ATOM     14  C   UNL     1      -2.716  10.641  17.762  0.00  0.00    +0.000 A 
ATOM     15  C   UNL     1      -1.662  10.551  18.689  0.00  0.00    +0.000 A 
ATOM     16  C   UNL     1      -0.482   9.660  18.408  0.00  0.00    +0.000 C 
ATOM     17  C   UNL     1       0.667   9.933  19.389  0.00  0.00    +0.000 C 
ENDROOT
BRANCH  17  18
ATOM     18  O   UNL     1       1.660   8.885  19.308  0.00  0.00    +0.000 OA
BRANCH  18  19
ATOM     19  C   UNL     1       2.186   8.686  18.068  0.00  0.00    +0.000 C 
ATOM     20  O   UNL     1       2.470   9.555  17.259  0.00  0.00    +0.000 OA
BRANCH  19  21
ATOM     21  C   UNL     1       2.350   7.235  17.834  0.00  0.00    +0.000 C 
ATOM     22  C   UNL     1       2.899   6.457  18.781  0.00  0.00    +0.000 C 
BRANCH  22  23
ATOM     23  C   UNL     1       3.149   5.012  18.633  0.00  0.00    +0.000 A 
ATOM     24  C   UNL     1       2.409   4.282  17.684  0.00  0.00    +0.000 A 
ATOM     25  C   UNL     1       2.590   2.900  17.528  0.00  0.00    +0.000 A 
ATOM     26  C   UNL     1       3.524   2.248  18.321  0.00  0.00    +0.000 A 
ATOM     27  C   UNL     1       4.288   2.968  19.234  0.00  0.00    +0.000 A 
ATOM     28  C   UNL     1       4.119   4.339  19.388  0.00  0.00    +0.000 A 
BRANCH  26  29
ATOM     29  O   UNL     1       3.729   0.899  18.243  0.00  0.00    +0.000 OA
ATOM     30  H   UNL     1       3.015   0.453  18.730  0.00  0.00    +0.000 HD
ENDBRANCH  26  29
BRANCH  27  31
ATOM     31  O   UNL     1       5.212   2.322  20.007  0.00  0.00    +0.000 OA
ATOM     32  H   UNL     1       4.946   2.523  20.926  0.00  0.00    +0.000 HD
ENDBRANCH  27  31
ENDBRANCH  22  23
ENDBRANCH  19  21
ENDBRANCH  18  19
ENDBRANCH  17  18
TORSDOF 6
ENDMDL
MODEL 3
REMARK VINA RESULT:      -8.5      0.764      1.007
REMARK  Name = 
REMARK  8 active torsions:
REMARK  status: ('A' for Active; 'I' for Inactive)
REMARK    1  A    between atoms: C_1  and  C_2
REMARK    2  A    between atoms: C_2  and  C_3
REMARK    3  A    between atoms: C_17  and  O_18
REMARK    4  A    between atoms: O_18  and  C_19
REMARK    5  A    between atoms: C_19  and  C_21
REMARK    6  A    between atoms: C_22  and  C_23
REMARK    7  A    between atoms: C_26  and  O_27
REMARK    8  A    between atoms: C_28  and  O_29
REMARK                            x       y       z     vdW  Elec       q    Type
REMARK                         _______ _______ _______ _____ _____    ______ ____
ROOT
ATOM      1  C   UNL     1       7.342   5.275  14.719  0.00  0.00    +0.000 C 
ATOM      2  C   UNL     1       6.268   5.706  15.730  0.00  0.00    +0.000 C 
ATOM      3  C   UNL     1       5.368   6.746  15.033  0.00  0.00    +0.000 C 
ATOM      4  O   UNL     1       5.496   4.514  15.997  0.00  0.00    +0.000 OA
ATOM      5  C   UNL     1       4.655   4.573  17.075  0.00  0.00    +0.000 A 
ATOM      6  C   UNL     1       3.681   3.580  17.134  0.00  0.00    +0.000 A 
ATOM      7  C   UNL     1       2.739   3.617  18.156  0.00  0.00    +0.000 A 
ATOM      8  O   UNL     1       1.755   2.608  18.162  0.00  0.00    +0.000 OA
ATOM      9  C   UNL     1       0.755   2.588  19.122  0.00  0.00    +0.000 A 
ATOM     10  O   UNL     1      -0.113   1.724  19.150  0.00  0.00    +0.000 OA
ATOM     11  C   UNL     1       0.772   3.670  20.124  0.00  0.00    +0.000 A 
ATOM     12  C   UNL     1       1.706   4.625  20.136  0.00  0.00    +0.000 A 
ATOM     13  C   UNL     1       2.752   4.618  19.123  0.00  0.00    +0.000 A 
ATOM     14  C   UNL     1       3.759   5.586  19.084  0.00  0.00    +0.000 A 
ATOM     15  C   UNL     1       4.732   5.558  18.068  0.00  0.00    +0.000 A 
ATOM     16  C   UNL     1       5.820   6.598  18.035  0.00  0.00    +0.000 C 
ATOM     17  C   UNL     1       6.924   6.215  17.040  0.00  0.00    +0.000 C 
ENDROOT
BRANCH  17  18
ATOM     18  O   UNL     1       7.796   7.342  16.795  0.00  0.00    +0.000 OA
BRANCH  18  19
ATOM     19  C   UNL     1       8.239   7.980  17.913  0.00  0.00    +0.000 C 
ATOM     20  O   UNL     1       8.469   7.462  18.994  0.00  0.00    +0.000 OA
BRANCH  19  21
ATOM     21  C   UNL     1       8.387   9.423  17.625  0.00  0.00    +0.000 C 
ATOM     22  C   UNL     1       9.166  10.190  18.405  0.00  0.00    +0.000 C 
BRANCH  22  23
ATOM     23  C   UNL     1       9.346  11.644  18.234  0.00  0.00    +0.000 A 
ATOM     24  C   UNL     1      10.615  12.209  18.463  0.00  0.00    +0.000 A 
ATOM     25  C   UNL     1      10.828  13.590  18.343  0.00  0.00    +0.000 A 
ATOM     26  C   UNL     1       9.766  14.407  17.981  0.00  0.00    +0.000 A 
ATOM     27  C   UNL     1       8.518  13.853  17.715  0.00  0.00    +0.000 A 
ATOM     28  C   UNL     1       8.302  12.485  17.825  0.00  0.00    +0.000 A 
BRANCH  26  29
ATOM     29  O   UNL     1       9.896  15.763  17.876  0.00  0.00    +0.000 OA
ATOM     30  H   UNL     1       9.046  16.170  18.115  0.00  0.00    +0.000 HD
ENDBRANCH  26  29
BRANCH  27  31
ATOM     31  O   UNL     1       7.478  14.661  17.352  0.00  0.00    +0.000 OA
ATOM     32  H   UNL     1       7.125  15.001  18.198  0.00  0.00    +0.000 HD
ENDBRANCH  27  31
ENDBRANCH  22  23
ENDBRANCH  19  21
ENDBRANCH  18  19
ENDBRANCH  17  18
TORSDOF 6
ENDMDL
MODEL 4
REMARK VINA RESULT:      -8.4      5.398      7.828
REMARK  Name = 
REMARK  8 active torsions:
REMARK  status: ('A' for Active; 'I' for Inactive)
REMARK    1  A    between atoms: C_1  and  C_2
REMARK    2  A    between atoms: C_2  and  C_3
REMARK    3  A    between atoms: C_17  and  O_18
REMARK    4  A    between atoms: O_18  and  C_19
REMARK    5  A    between atoms: C_19  and  C_21
REMARK    6  A    between atoms: C_22  and  C_23
REMARK    7  A    between atoms: C_26  and  O_27
REMARK    8  A    between atoms: C_28  and  O_29
REMARK                            x       y       z     vdW  Elec       q    Type
REMARK                         _______ _______ _______ _____ _____    ______ ____
ROOT
ATOM      1  C   UNL     1       2.717   3.869  21.180  0.00  0.00    +0.000 C 
ATOM      2  C   UNL     1       2.328   5.008  20.224  0.00  0.00    +0.000 C 
ATOM      3  C   UNL     1       1.267   4.454  19.253  0.00  0.00    +0.000 C 
ATOM      4  O   UNL     1       1.724   6.019  21.061  0.00  0.00    +0.000 OA
ATOM      5  C   UNL     1       1.546   7.248  20.485  0.00  0.00    +0.000 A 
ATOM      6  C   UNL     1       0.676   8.105  21.151  0.00  0.00    +0.000 A 
ATOM      7  C   UNL     1       0.382   9.342  20.588  0.00  0.00    +0.000 A 
ATOM      8  O   UNL     1      -0.525  10.166  21.282  0.00  0.00    +0.000 OA
ATOM      9  C   UNL     1      -0.904  11.401  20.775  0.00  0.00    +0.000 A 
ATOM     10  O   UNL     1      -1.691  12.138  21.357  0.00  0.00    +0.000 OA
ATOM     11  C   UNL     1      -0.317  11.798  19.483  0.00  0.00    +0.000 A 
ATOM     12  C   UNL     1       0.553  11.031  18.821  0.00  0.00    +0.000 A 
ATOM     13  C   UNL     1       0.943   9.744  19.379  0.00  0.00    +0.000 A 
ATOM     14  C   UNL     1       1.850   8.896  18.738  0.00  0.00    +0.000 A 
ATOM     15  C   UNL     1       2.175   7.648  19.298  0.00  0.00    +0.000 A 
ATOM     16  C   UNL     1       3.160   6.742  18.609  0.00  0.00    +0.000 C 
ATOM     17  C   UNL     1       3.585   5.585  19.523  0.00  0.00    +0.000 C 
ENDROOT
BRANCH  17  18
ATOM     18  O   UNL     1       4.283   4.571  18.764  0.00  0.00    +0.000 OA
BRANCH  18  19
ATOM     19  C   UNL     1       5.637   4.572  18.912  0.00  0.00    +0.000 C 
ATOM     20  O   UNL     1       6.245   4.613  19.970  0.00  0.00    +0.000 OA
BRANCH  19  21
ATOM     21  C   UNL     1       6.274   4.532  17.578  0.00  0.00    +0.000 C 
ATOM     22  C   UNL     1       5.521   4.608  16.468  0.00  0.00    +0.000 C 
BRANCH  22  23
ATOM     23  C   UNL     1       6.049   4.531  15.094  0.00  0.00    +0.000 A 
ATOM     24  C   UNL     1       5.361   3.762  14.137  0.00  0.00    +0.000 A 
ATOM     25  C   UNL     1       5.840   3.634  12.826  0.00  0.00    +0.000 A 
ATOM     26  C   UNL     1       7.010   4.289  12.469  0.00  0.00    +0.000 A 
ATOM     27  C   UNL     1       7.677   5.084  13.396  0.00  0.00    +0.000 A 
ATOM     28  C   UNL     1       7.202   5.220  14.696  0.00  0.00    +0.000 A 
BRANCH  26  29
ATOM     29  O   UNL     1       7.550   4.183  11.218  0.00  0.00    +0.000 OA
ATOM     30  H   UNL     1       8.457   3.843  11.305  0.00  0.00    +0.000 HD
ENDBRANCH  26  29
BRANCH  27  31
ATOM     31  O   UNL     1       8.824   5.733  13.037  0.00  0.00    +0.000 OA
ATOM     32  H   UNL     1       8.844   5.675  12.062  0.00  0.00    +0.000 HD
ENDBRANCH  27  31
ENDBRANCH  22  23
ENDBRANCH  19  21
ENDBRANCH  18  19
ENDBRANCH  17  18
TORSDOF 6
ENDMDL
MODEL 5
REMARK VINA RESULT:      -8.4      7.385     10.702
REMARK  Name = 
REMARK  8 active torsions:
REMARK  status: ('A' for Active; 'I' for Inactive)
REMARK    1  A    between atoms: C_1  and  C_2
REMARK    2  A    between atoms: C_2  and  C_3
REMARK    3  A    between atoms: C_17  and  O_18
REMARK    4  A    between atoms: O_18  and  C_19
REMARK    5  A    between atoms: C_19  and  C_21
REMARK    6  A    between atoms: C_22  and  C_23
REMARK    7  A    between atoms: C_26  and  O_27
REMARK    8  A    between atoms: C_28  and  O_29
REMARK                            x       y       z     vdW  Elec       q    Type
REMARK                         _______ _______ _______ _____ _____    ______ ____
ROOT
ATOM      1  C   UNL     1       1.270   9.423  17.949  0.00  0.00    +0.000 C 
ATOM      2  C   UNL     1       0.339  10.468  18.585  0.00  0.00    +0.000 C 
ATOM      3  C   UNL     1       0.969  11.854  18.345  0.00  0.00    +0.000 C 
ATOM      4  O   UNL     1      -0.899  10.374  17.846  0.00  0.00    +0.000 OA
ATOM      5  C   UNL     1      -1.978  11.008  18.401  0.00  0.00    +0.000 A 
ATOM      6  C   UNL     1      -3.061  11.209  17.550  0.00  0.00    +0.000 A 
ATOM      7  C   UNL     1      -4.164  11.916  18.015  0.00  0.00    +0.000 A 
ATOM      8  O   UNL     1      -5.226  12.120  17.112  0.00  0.00    +0.000 OA
ATOM      9  C   UNL     1      -6.350  12.845  17.479  0.00  0.00    +0.000 A 
ATOM     10  O   UNL     1      -7.287  13.039  16.714  0.00  0.00    +0.000 OA
ATOM     11  C   UNL     1      -6.373  13.389  18.849  0.00  0.00    +0.000 A 
ATOM     12  C   UNL     1      -5.378  13.192  19.719  0.00  0.00    +0.000 A 
ATOM     13  C   UNL     1      -4.213  12.418  19.312  0.00  0.00    +0.000 A 
ATOM     14  C   UNL     1      -3.141  12.175  20.175  0.00  0.00    +0.000 A 
ATOM     15  C   UNL     1      -2.022  11.448  19.730  0.00  0.00    +0.000 A 
ATOM     16  C   UNL     1      -0.874  11.180  20.666  0.00  0.00    +0.000 C 
ATOM     17  C   UNL     1       0.089  10.138  20.079  0.00  0.00    +0.000 C 
ENDROOT
BRANCH  17  18
ATOM     18  O   UNL     1       1.323  10.110  20.832  0.00  0.00    +0.000 OA
BRANCH  18  19
ATOM     19  C   UNL     1       1.356   9.206  21.850  0.00  0.00    +0.000 C 
ATOM     20  O   UNL     1       1.557   9.455  23.027  0.00  0.00    +0.000 OA
BRANCH  19  21
ATOM     21  C   UNL     1       1.123   7.850  21.306  0.00  0.00    +0.000 C 
ATOM     22  C   UNL     1       2.049   7.268  20.526  0.00  0.00    +0.000 C 
BRANCH  22  23
ATOM     23  C   UNL     1       1.898   5.943  19.898  0.00  0.00    +0.000 A 
ATOM     24  C   UNL     1       2.332   5.761  18.571  0.00  0.00    +0.000 A 
ATOM     25  C   UNL     1       2.182   4.528  17.920  0.00  0.00    +0.000 A 
ATOM     26  C   UNL     1       1.603   3.470  18.606  0.00  0.00    +0.000 A 
ATOM     27  C   UNL     1       1.206   3.629  19.930  0.00  0.00    +0.000 A 
ATOM     28  C   UNL     1       1.359   4.846  20.583  0.00  0.00    +0.000 A 
BRANCH  26  29
ATOM     29  O   UNL     1       1.398   2.250  18.023  0.00  0.00    +0.000 OA
ATOM     30  H   UNL     1       1.822   1.572  18.577  0.00  0.00    +0.000 HD
ENDBRANCH  26  29
BRANCH  27  31
ATOM     31  O   UNL     1       0.643   2.582  20.603  0.00  0.00    +0.000 OA
ATOM     32  H   UNL     1       0.388   2.955  21.470  0.00  0.00    +0.000 HD
ENDBRANCH  27  31
ENDBRANCH  22  23
ENDBRANCH  19  21
ENDBRANCH  18  19
ENDBRANCH  17  18
TORSDOF 6
ENDMDL
MODEL 6
REMARK VINA RESULT:      -8.4      5.131      7.878
REMARK  Name = 
REMARK  8 active torsions:
REMARK  status: ('A' for Active; 'I' for Inactive)
REMARK    1  A    between atoms: C_1  and  C_2
REMARK    2  A    between atoms: C_2  and  C_3
REMARK    3  A    between atoms: C_17  and  O_18
REMARK    4  A    between atoms: O_18  and  C_19
REMARK    5  A    between atoms: C_19  and  C_21
REMARK    6  A    between atoms: C_22  and  C_23
REMARK    7  A    between atoms: C_26  and  O_27
REMARK    8  A    between atoms: C_28  and  O_29
REMARK                            x       y       z     vdW  Elec       q    Type
REMARK                         _______ _______ _______ _____ _____    ______ ____
ROOT
ATOM      1  C   UNL     1       2.115   2.967  21.955  0.00  0.00    +0.000 C 
ATOM      2  C   UNL     1       1.947   3.927  20.767  0.00  0.00    +0.000 C 
ATOM      3  C   UNL     1       0.646   3.537  20.038  0.00  0.00    +0.000 C 
ATOM      4  O   UNL     1       1.787   5.237  21.355  0.00  0.00    +0.000 OA
ATOM      5  C   UNL     1       1.898   6.298  20.496  0.00  0.00    +0.000 A 
ATOM      6  C   UNL     1       1.418   7.513  20.976  0.00  0.00    +0.000 A 
ATOM      7  C   UNL     1       1.422   8.621  20.135  0.00  0.00    +0.000 A 
ATOM      8  O   UNL     1       0.901   9.823  20.652  0.00  0.00    +0.000 OA
ATOM      9  C   UNL     1       0.833  10.968  19.872  0.00  0.00    +0.000 A 
ATOM     10  O   UNL     1       0.384  12.027  20.295  0.00  0.00    +0.000 OA
ATOM     11  C   UNL     1       1.325  10.860  18.486  0.00  0.00    +0.000 A 
ATOM     12  C   UNL     1       1.832   9.729  17.988  0.00  0.00    +0.000 A 
ATOM     13  C   UNL     1       1.903   8.543  18.831  0.00  0.00    +0.000 A 
ATOM     14  C   UNL     1       2.424   7.331  18.371  0.00  0.00    +0.000 A 
ATOM     15  C   UNL     1       2.445   6.202  19.210  0.00  0.00    +0.000 A 
ATOM     16  C   UNL     1       3.016   4.902  18.713  0.00  0.00    +0.000 C 
ATOM     17  C   UNL     1       3.208   3.904  19.864  0.00  0.00    +0.000 C 
ENDROOT
BRANCH  17  18
ATOM     18  O   UNL     1       3.466   2.579  19.346  0.00  0.00    +0.000 OA
BRANCH  18  19
ATOM     19  C   UNL     1       3.281   2.440  18.004  0.00  0.00    +0.000 C 
ATOM     20  O   UNL     1       2.294   1.972  17.458  0.00  0.00    +0.000 OA
BRANCH  19  21
ATOM     21  C   UNL     1       4.479   2.934  17.292  0.00  0.00    +0.000 C 
ATOM     22  C   UNL     1       4.346   3.671  16.177  0.00  0.00    +0.000 C 
BRANCH  22  23
ATOM     23  C   UNL     1       5.472   4.174  15.369  0.00  0.00    +0.000 A 
ATOM     24  C   UNL     1       6.398   5.055  15.957  0.00  0.00    +0.000 A 
ATOM     25  C   UNL     1       7.467   5.584  15.220  0.00  0.00    +0.000 A 
ATOM     26  C   UNL     1       7.614   5.219  13.889  0.00  0.00    +0.000 A 
ATOM     27  C   UNL     1       6.727   4.318  13.309  0.00  0.00    +0.000 A 
ATOM     28  C   UNL     1       5.670   3.785  14.037  0.00  0.00    +0.000 A 
BRANCH  26  29
ATOM     29  O   UNL     1       8.615   5.720  13.104  0.00  0.00    +0.000 OA
ATOM     30  H   UNL     1       9.043   6.450  13.584  0.00  0.00    +0.000 HD
ENDBRANCH  26  29
BRANCH  27  31
ATOM     31  O   UNL     1       6.881   3.956  12.001  0.00  0.00    +0.000 OA
ATOM     32  H   UNL     1       6.741   4.783  11.500  0.00  0.00    +0.000 HD
ENDBRANCH  27  31
ENDBRANCH  22  23
ENDBRANCH  19  21
ENDBRANCH  18  19
ENDBRANCH  17  18
TORSDOF 6
ENDMDL
MODEL 7
REMARK VINA RESULT:      -8.3      3.966      4.930
REMARK  Name = 
REMARK  8 active torsions:
REMARK  status: ('A' for Active; 'I' for Inactive)
REMARK    1  A    between atoms: C_1  and  C_2
REMARK    2  A    between atoms: C_2  and  C_3
REMARK    3  A    between atoms: C_17  and  O_18
REMARK    4  A    between atoms: O_18  and  C_19
REMARK    5  A    between atoms: C_19  and  C_21
REMARK    6  A    between atoms: C_22  and  C_23
REMARK    7  A    between atoms: C_26  and  O_27
REMARK    8  A    between atoms: C_28  and  O_29
REMARK                            x       y       z     vdW  Elec       q    Type
REMARK                         _______ _______ _______ _____ _____    ______ ____
ROOT
ATOM      1  C   UNL     1       4.428   4.599  19.352  0.00  0.00    +0.000 C 
ATOM      2  C   UNL     1       3.569   5.693  18.700  0.00  0.00    +0.000 C 
ATOM      3  C   UNL     1       2.472   4.990  17.877  0.00  0.00    +0.000 C 
ATOM      4  O   UNL     1       2.957   6.403  19.800  0.00  0.00    +0.000 OA
ATOM      5  C   UNL     1       2.364   7.597  19.487  0.00  0.00    +0.000 A 
ATOM      6  C   UNL     1       1.497   8.108  20.448  0.00  0.00    +0.000 A 
ATOM      7  C   UNL     1       0.795   9.276  20.173  0.00  0.00    +0.000 A 
ATOM      8  O   UNL     1      -0.092   9.743  21.162  0.00  0.00    +0.000 OA
ATOM      9  C   UNL     1      -0.859  10.880  20.958  0.00  0.00    +0.000 A 
ATOM     10  O   UNL     1      -1.640  11.308  21.800  0.00  0.00    +0.000 OA
ATOM     11  C   UNL     1      -0.702  11.566  19.662  0.00  0.00    +0.000 A 
ATOM     12  C   UNL     1       0.145  11.140  18.721  0.00  0.00    +0.000 A 
ATOM     13  C   UNL     1       0.948   9.950  18.964  0.00  0.00    +0.000 A 
ATOM     14  C   UNL     1       1.853   9.455  18.022  0.00  0.00    +0.000 A 
ATOM     15  C   UNL     1       2.585   8.283  18.287  0.00  0.00    +0.000 A 
ATOM     16  C   UNL     1       3.567   7.760  17.273  0.00  0.00    +0.000 C 
ATOM     17  C   UNL     1       4.455   6.662  17.875  0.00  0.00    +0.000 C 
ENDROOT
BRANCH  17  18
ATOM     18  O   UNL     1       5.175   5.966  16.831  0.00  0.00    +0.000 OA
BRANCH  18  19
ATOM     19  C   UNL     1       6.518   6.192  16.811  0.00  0.00    +0.000 C 
ATOM     20  O   UNL     1       7.377   5.391  16.478  0.00  0.00    +0.000 OA
BRANCH  19  21
ATOM     21  C   UNL     1       6.789   7.570  17.275  0.00  0.00    +0.000 C 
ATOM     22  C   UNL     1       8.044   7.950  17.563  0.00  0.00    +0.000 C 
BRANCH  22  23
ATOM     23  C   UNL     1       8.416   9.282  18.075  0.00  0.00    +0.000 A 
ATOM     24  C   UNL     1       9.041   9.382  19.332  0.00  0.00    +0.000 A 
ATOM     25  C   UNL     1       9.386  10.629  19.875  0.00  0.00    +0.000 A 
ATOM     26  C   UNL     1       9.112  11.779  19.149  0.00  0.00    +0.000 A 
ATOM     27  C   UNL     1       8.530  11.688  17.888  0.00  0.00    +0.000 A 
ATOM     28  C   UNL     1       8.193  10.455  17.342  0.00  0.00    +0.000 A 
BRANCH  26  29
ATOM     29  O   UNL     1       9.394  13.027  19.630  0.00  0.00    +0.000 OA
ATOM     30  H   UNL     1      10.348  13.077  19.809  0.00  0.00    +0.000 HD
ENDBRANCH  26  29
BRANCH  27  31
ATOM     31  O   UNL     1       8.270  12.823  17.174  0.00  0.00    +0.000 OA
ATOM     32  H   UNL     1       8.364  12.552  16.240  0.00  0.00    +0.000 HD
ENDBRANCH  27  31
ENDBRANCH  22  23
ENDBRANCH  19  21
ENDBRANCH  18  19
ENDBRANCH  17  18
TORSDOF 6
ENDMDL
MODEL 8
REMARK VINA RESULT:      -8.3      7.449     10.536
REMARK  Name = 
REMARK  8 active torsions:
REMARK  status: ('A' for Active; 'I' for Inactive)
REMARK    1  A    between atoms: C_1  and  C_2
REMARK    2  A    between atoms: C_2  and  C_3
REMARK    3  A    between atoms: C_17  and  O_18
REMARK    4  A    between atoms: O_18  and  C_19
REMARK    5  A    between atoms: C_19  and  C_21
REMARK    6  A    between atoms: C_22  and  C_23
REMARK    7  A    between atoms: C_26  and  O_27
REMARK    8  A    between atoms: C_28  and  O_29
REMARK                            x       y       z     vdW  Elec       q    Type
REMARK                         _______ _______ _______ _____ _____    ______ ____
ROOT
ATOM      1  C   UNL     1       1.684   8.711  21.725  0.00  0.00    +0.000 C 
ATOM      2  C   UNL     1       0.397   9.442  21.310  0.00  0.00    +0.000 C 
ATOM      3  C   UNL     1      -0.779   8.474  21.540  0.00  0.00    +0.000 C 
ATOM      4  O   UNL     1       0.281  10.556  22.223  0.00  0.00    +0.000 OA
ATOM      5  C   UNL     1      -0.633  11.517  21.884  0.00  0.00    +0.000 A 
ATOM      6  C   UNL     1      -0.989  12.395  22.903  0.00  0.00    +0.000 A 
ATOM      7  C   UNL     1      -1.971  13.350  22.661  0.00  0.00    +0.000 A 
ATOM      8  O   UNL     1      -2.320  14.201  23.728  0.00  0.00    +0.000 OA
ATOM      9  C   UNL     1      -3.313  15.158  23.586  0.00  0.00    +0.000 A 
ATOM     10  O   UNL     1      -3.638  15.910  24.498  0.00  0.00    +0.000 OA
ATOM     11  C   UNL     1      -3.982  15.234  22.274  0.00  0.00    +0.000 A 
ATOM     12  C   UNL     1      -3.652  14.441  21.251  0.00  0.00    +0.000 A 
ATOM     13  C   UNL     1      -2.597  13.452  21.422  0.00  0.00    +0.000 A 
ATOM     14  C   UNL     1      -2.204  12.595  20.390  0.00  0.00    +0.000 A 
ATOM     15  C   UNL     1      -1.202  11.633  20.609  0.00  0.00    +0.000 A 
ATOM     16  C   UNL     1      -0.774  10.720  19.492  0.00  0.00    +0.000 C 
ATOM     17  C   UNL     1       0.512   9.964  19.854  0.00  0.00    +0.000 C 
ENDROOT
BRANCH  17  18
ATOM     18  O   UNL     1       0.744   8.884  18.920  0.00  0.00    +0.000 OA
BRANCH  18  19
ATOM     19  C   UNL     1       1.884   8.996  18.184  0.00  0.00    +0.000 C 
ATOM     20  O   UNL     1       2.154   9.899  17.408  0.00  0.00    +0.000 OA
BRANCH  19  21
ATOM     21  C   UNL     1       2.757   7.834  18.456  0.00  0.00    +0.000 C 
ATOM     22  C   UNL     1       2.232   6.600  18.535  0.00  0.00    +0.000 C 
BRANCH  22  23
ATOM     23  C   UNL     1       3.003   5.383  18.846  0.00  0.00    +0.000 A 
ATOM     24  C   UNL     1       2.371   4.326  19.527  0.00  0.00    +0.000 A 
ATOM     25  C   UNL     1       3.071   3.161  19.872  0.00  0.00    +0.000 A 
ATOM     26  C   UNL     1       4.409   3.050  19.523  0.00  0.00    +0.000 A 
ATOM     27  C   UNL     1       5.033   4.073  18.815  0.00  0.00    +0.000 A 
ATOM     28  C   UNL     1       4.343   5.227  18.464  0.00  0.00    +0.000 A 
BRANCH  26  29
ATOM     29  O   UNL     1       5.159   1.957  19.855  0.00  0.00    +0.000 OA
ATOM     30  H   UNL     1       5.984   1.985  19.340  0.00  0.00    +0.000 HD
ENDBRANCH  26  29
BRANCH  27  31
ATOM     31  O   UNL     1       6.349   3.955  18.467  0.00  0.00    +0.000 OA
ATOM     32  H   UNL     1       6.650   3.142  18.918  0.00  0.00    +0.000 HD
ENDBRANCH  27  31
ENDBRANCH  22  23
ENDBRANCH  19  21
ENDBRANCH  18  19
ENDBRANCH  17  18
TORSDOF 6
ENDMDL
MODEL 9
REMARK VINA RESULT:      -8.3      7.953     10.667
REMARK  Name = 
REMARK  8 active torsions:
REMARK  status: ('A' for Active; 'I' for Inactive)
REMARK    1  A    between atoms: C_1  and  C_2
REMARK    2  A    between atoms: C_2  and  C_3
REMARK    3  A    between atoms: C_17  and  O_18
REMARK    4  A    between atoms: O_18  and  C_19
REMARK    5  A    between atoms: C_19  and  C_21
REMARK    6  A    between atoms: C_22  and  C_23
REMARK    7  A    between atoms: C_26  and  O_27
REMARK    8  A    between atoms: C_28  and  O_29
REMARK                            x       y       z     vdW  Elec       q    Type
REMARK                         _______ _______ _______ _____ _____    ______ ____
ROOT
ATOM      1  C   UNL     1      -0.853  10.377  21.823  0.00  0.00    +0.000 C 
ATOM      2  C   UNL     1       0.252  10.167  20.776  0.00  0.00    +0.000 C 
ATOM      3  C   UNL     1       1.414  11.114  21.134  0.00  0.00    +0.000 C 
ATOM      4  O   UNL     1       0.684   8.799  20.948  0.00  0.00    +0.000 OA
ATOM      5  C   UNL     1       1.467   8.287  19.948  0.00  0.00    +0.000 A 
ATOM      6  C   UNL     1       2.153   7.117  20.261  0.00  0.00    +0.000 A 
ATOM      7  C   UNL     1       3.030   6.577  19.326  0.00  0.00    +0.000 A 
ATOM      8  O   UNL     1       3.724   5.408  19.694  0.00  0.00    +0.000 OA
ATOM      9  C   UNL     1       4.646   4.823  18.839  0.00  0.00    +0.000 A 
ATOM     10  O   UNL     1       5.264   3.807  19.134  0.00  0.00    +0.000 OA
ATOM     11  C   UNL     1       4.861   5.484  17.539  0.00  0.00    +0.000 A 
ATOM     12  C   UNL     1       4.200   6.586  17.173  0.00  0.00    +0.000 A 
ATOM     13  C   UNL     1       3.230   7.175  18.085  0.00  0.00    +0.000 A 
ATOM     14  C   UNL     1       2.505   8.325  17.761  0.00  0.00    +0.000 A 
ATOM     15  C   UNL     1       1.600   8.878  18.685  0.00  0.00    +0.000 A 
ATOM     16  C   UNL     1       0.814  10.111  18.328  0.00  0.00    +0.000 C 
ATOM     17  C   UNL     1      -0.309  10.367  19.344  0.00  0.00    +0.000 C 
ENDROOT
BRANCH  17  18
ATOM     18  O   UNL     1      -0.856  11.694  19.168  0.00  0.00    +0.000 OA
BRANCH  18  19
ATOM     19  C   UNL     1      -2.035  11.745  18.488  0.00  0.00    +0.000 C 
ATOM     20  O   UNL     1      -2.174  11.635  17.280  0.00  0.00    +0.000 OA
BRANCH  19  21
ATOM     21  C   UNL     1      -3.140  11.971  19.444  0.00  0.00    +0.000 C 
ATOM     22  C   UNL     1      -2.951  12.749  20.522  0.00  0.00    +0.000 C 
BRANCH  22  23
ATOM     23  C   UNL     1      -3.969  13.003  21.558  0.00  0.00    +0.000 A 
ATOM     24  C   UNL     1      -5.187  13.603  21.189  0.00  0.00    +0.000 A 
ATOM     25  C   UNL     1      -6.174  13.893  22.143  0.00  0.00    +0.000 A 
ATOM     26  C   UNL     1      -5.941  13.569  23.472  0.00  0.00    +0.000 A 
ATOM     27  C   UNL     1      -4.756  12.940  23.841  0.00  0.00    +0.000 A 
ATOM     28  C   UNL     1      -3.778  12.644  22.899  0.00  0.00    +0.000 A 
BRANCH  26  29
ATOM     29  O   UNL     1      -6.846  13.851  24.457  0.00  0.00    +0.000 OA
ATOM     30  H   UNL     1      -6.363  14.211  25.221  0.00  0.00    +0.000 HD
ENDBRANCH  26  29
BRANCH  27  31
ATOM     31  O   UNL     1      -4.537  12.617  25.150  0.00  0.00    +0.000 OA
ATOM     32  H   UNL     1      -5.429  12.583  25.548  0.00  0.00    +0.000 HD
ENDBRANCH  27  31
ENDBRANCH  22  23
ENDBRANCH  19  21
ENDBRANCH  18  19
ENDBRANCH  17  18
TORSDOF 6
ENDMDL
