MODEL 1
REMARK VINA RESULT:      -6.8      0.000      0.000
REMARK  Name = 
REMARK  10 active torsions:
REMARK  status: ('A' for Active; 'I' for Inactive)
REMARK    1  A    between atoms: C_1  and  C_2
REMARK    2  A    between atoms: C_2  and  C_3
REMARK    3  A    between atoms: C_3  and  C_4
REMARK    4  A    between atoms: C_6  and  C_7
REMARK    5  A    between atoms: C_7  and  N_8
REMARK    6  A    between atoms: N_11  and  C_12
REMARK    7  A    between atoms: C_12  and  C_13
REMARK    8  A    between atoms: C_16  and  C_17
REMARK    9  A    between atoms: C_17  and  C_18
REMARK   10  A    between atoms: C_18  and  C_19
REMARK                            x       y       z     vdW  Elec       q    Type
REMARK                         _______ _______ _______ _____ _____    ______ ____
ROOT
ATOM      1  N   UNL     1       4.098   6.563  18.746  0.00  0.00    +0.000 NA
ATOM      2  C   UNL     1       4.985   5.580  19.399  0.00  0.00    +0.000 C 
ATOM      3  C   UNL     1       4.964   4.161  18.782  0.00  0.00    +0.000 C 
ATOM      4  N   UNL     1       5.155   4.096  17.320  0.00  0.00    +0.000 NA
ATOM      5  C   UNL     1       4.353   5.135  16.643  0.00  0.00    +0.000 C 
ATOM      6  C   UNL     1       4.362   6.542  17.295  0.00  0.00    +0.000 C 
ENDROOT
BRANCH   1   7
ATOM      7  C   UNL     1       2.658   6.335  19.017  0.00  0.00    +0.000 C 
BRANCH   7  10
ATOM      8  C   UNL     1       1.141   9.378  19.949  0.00  0.00    +0.000 A 
ATOM      9  N   UNL     1       1.820   8.689  19.064  0.00  0.00    +0.000 NA
ATOM     10  C   UNL     1       1.994   7.488  19.706  0.00  0.00    +0.000 A 
ATOM     11  N   UNL     1       1.509   7.444  20.957  0.00  0.00    +0.000 NA
ATOM     12  O   UNL     1       0.924   8.705  21.116  0.00  0.00    +0.000 OA
BRANCH   8  13
ATOM     13  C   UNL     1       0.478  10.693  19.779  0.00  0.00    +0.000 C 
BRANCH  13  15
ATOM     14  C   UNL     1      -0.812  11.729  21.718  0.00  0.00    +0.000 C 
ATOM     15  C   UNL     1      -0.838  10.729  20.566  0.00  0.00    +0.000 C 
ENDBRANCH  13  15
ENDBRANCH   8  13
ENDBRANCH   7  10
ENDBRANCH   1   7
BRANCH   4  16
ATOM     16  C   UNL     1       6.573   4.166  16.913  0.00  0.00    +0.000 C 
BRANCH  16  17
ATOM     17  C   UNL     1       6.779   4.490  15.456  0.00  0.00    +0.000 A 
ATOM     18  N   UNL     1       7.582   5.470  15.012  0.00  0.00    +0.000 NA
ATOM     19  O   UNL     1       7.569   5.296  13.627  0.00  0.00    +0.000 OA
ATOM     20  C   UNL     1       6.772   4.217  13.379  0.00  0.00    +0.000 A 
ATOM     21  N   UNL     1       6.243   3.698  14.464  0.00  0.00    +0.000 NA
BRANCH  20  22
ATOM     22  C   UNL     1       6.729   3.718  11.983  0.00  0.00    +0.000 C 
BRANCH  22  23
ATOM     23  C   UNL     1       5.683   2.625  11.774  0.00  0.00    +0.000 C 
ATOM     24  C   UNL     1       4.335   3.231  11.407  0.00  0.00    +0.000 C 
ENDBRANCH  22  23
ENDBRANCH  20  22
ENDBRANCH  16  17
ENDBRANCH   4  16
TORSDOF 8
ENDMDL
MODEL 2
REMARK VINA RESULT:      -6.7      1.064      9.193
REMARK  Name = 
REMARK  10 active torsions:
REMARK  status: ('A' for Active; 'I' for Inactive)
REMARK    1  A    between atoms: C_1  and  C_2
REMARK    2  A    between atoms: C_2  and  C_3
REMARK    3  A    between atoms: C_3  and  C_4
REMARK    4  A    between atoms: C_6  and  C_7
REMARK    5  A    between atoms: C_7  and  N_8
REMARK    6  A    between atoms: N_11  and  C_12
REMARK    7  A    between atoms: C_12  and  C_13
REMARK    8  A    between atoms: C_16  and  C_17
REMARK    9  A    between atoms: C_17  and  C_18
REMARK   10  A    between atoms: C_18  and  C_19
REMARK                            x       y       z     vdW  Elec       q    Type
REMARK                         _______ _______ _______ _____ _____    ______ ____
ROOT
ATOM      1  N   UNL     1       4.950   4.024  17.265  0.00  0.00    +0.000 NA
ATOM      2  C   UNL     1       4.529   3.901  18.676  0.00  0.00    +0.000 C 
ATOM      3  C   UNL     1       4.604   5.206  19.503  0.00  0.00    +0.000 C 
ATOM      4  N   UNL     1       3.951   6.384  18.899  0.00  0.00    +0.000 NA
ATOM      5  C   UNL     1       4.275   6.480  17.461  0.00  0.00    +0.000 C 
ATOM      6  C   UNL     1       4.225   5.156  16.657  0.00  0.00    +0.000 C 
ENDROOT
BRANCH   1   7
ATOM      7  C   UNL     1       6.413   4.190  17.095  0.00  0.00    +0.000 C 
BRANCH   7  10
ATOM      8  C   UNL     1       6.859   4.281  13.599  0.00  0.00    +0.000 A 
ATOM      9  N   UNL     1       6.364   3.674  14.650  0.00  0.00    +0.000 NA
ATOM     10  C   UNL     1       6.819   4.461  15.678  0.00  0.00    +0.000 A 
ATOM     11  N   UNL     1       7.616   5.474  15.301  0.00  0.00    +0.000 NA
ATOM     12  O   UNL     1       7.632   5.362  13.906  0.00  0.00    +0.000 OA
BRANCH   8  13
ATOM     13  C   UNL     1       6.566   4.028  12.168  0.00  0.00    +0.000 C 
BRANCH  13  15
ATOM     14  C   UNL     1       7.100   1.779  11.096  0.00  0.00    +0.000 C 
ATOM     15  C   UNL     1       6.129   2.573  11.965  0.00  0.00    +0.000 C 
ENDBRANCH  13  15
ENDBRANCH   8  13
ENDBRANCH   7  10
ENDBRANCH   1   7
BRANCH   4  16
ATOM     16  C   UNL     1       2.492   6.421  19.122  0.00  0.00    +0.000 C 
BRANCH  16  17
ATOM     17  C   UNL     1       1.933   7.807  19.312  0.00  0.00    +0.000 A 
ATOM     18  N   UNL     1       1.672   8.655  18.305  0.00  0.00    +0.000 NA
ATOM     19  O   UNL     1       1.044   9.728  18.941  0.00  0.00    +0.000 OA
ATOM     20  C   UNL     1       0.976   9.409  20.265  0.00  0.00    +0.000 A 
ATOM     21  N   UNL     1       1.528   8.251  20.553  0.00  0.00    +0.000 NA
BRANCH  20  22
ATOM     22  C   UNL     1       0.195  10.318  21.138  0.00  0.00    +0.000 C 
BRANCH  22  23
ATOM     23  C   UNL     1      -0.609   9.575  22.202  0.00  0.00    +0.000 C 
ATOM     24  C   UNL     1       0.171   9.490  23.508  0.00  0.00    +0.000 C 
ENDBRANCH  22  23
ENDBRANCH  20  22
ENDBRANCH  16  17
ENDBRANCH   4  16
TORSDOF 8
ENDMDL
MODEL 3
REMARK VINA RESULT:      -6.6      4.647      6.948
REMARK  Name = 
REMARK  10 active torsions:
REMARK  status: ('A' for Active; 'I' for Inactive)
REMARK    1  A    between atoms: C_1  and  C_2
REMARK    2  A    between atoms: C_2  and  C_3
REMARK    3  A    between atoms: C_3  and  C_4
REMARK    4  A    between atoms: C_6  and  C_7
REMARK    5  A    between atoms: C_7  and  N_8
REMARK    6  A    between atoms: N_11  and  C_12
REMARK    7  A    between atoms: C_12  and  C_13
REMARK    8  A    between atoms: C_16  and  C_17
REMARK    9  A    between atoms: C_17  and  C_18
REMARK   10  A    between atoms: C_18  and  C_19
REMARK                            x       y       z     vdW  Elec       q    Type
REMARK                         _______ _______ _______ _____ _____    ______ ____
ROOT
ATOM      1  N   UNL     1       5.081   4.495  16.125  0.00  0.00    +0.000 NA
ATOM      2  C   UNL     1       4.608   5.787  16.660  0.00  0.00    +0.000 C 
ATOM      3  C   UNL     1       5.385   6.316  17.888  0.00  0.00    +0.000 C 
ATOM      4  N   UNL     1       6.854   6.354  17.749  0.00  0.00    +0.000 NA
ATOM      5  C   UNL     1       7.350   5.111  17.125  0.00  0.00    +0.000 C 
ATOM      6  C   UNL     1       6.539   4.579  15.915  0.00  0.00    +0.000 C 
ENDROOT
BRANCH   1   7
ATOM      7  C   UNL     1       4.746   3.336  16.987  0.00  0.00    +0.000 C 
BRANCH   7  10
ATOM      8  C   UNL     1       1.826   3.633  18.941  0.00  0.00    +0.000 A 
ATOM      9  N   UNL     1       3.133   3.543  18.885  0.00  0.00    +0.000 NA
ATOM     10  C   UNL     1       3.354   3.391  17.539  0.00  0.00    +0.000 A 
ATOM     11  N   UNL     1       2.241   3.322  16.791  0.00  0.00    +0.000 NA
ATOM     12  O   UNL     1       1.217   3.498  17.729  0.00  0.00    +0.000 OA
BRANCH   8  13
ATOM     13  C   UNL     1       0.978   4.001  20.101  0.00  0.00    +0.000 C 
BRANCH  13  15
ATOM     14  C   UNL     1       1.747   2.395  21.923  0.00  0.00    +0.000 C 
ATOM     15  C   UNL     1       1.763   3.830  21.407  0.00  0.00    +0.000 C 
ENDBRANCH  13  15
ENDBRANCH   8  13
ENDBRANCH   7  10
ENDBRANCH   1   7
BRANCH   4  16
ATOM     16  C   UNL     1       7.342   7.546  17.026  0.00  0.00    +0.000 C 
BRANCH  16  17
ATOM     17  C   UNL     1       8.048   8.549  17.901  0.00  0.00    +0.000 A 
ATOM     18  N   UNL     1       8.704   8.230  19.028  0.00  0.00    +0.000 NA
ATOM     19  O   UNL     1       9.306   9.434  19.402  0.00  0.00    +0.000 OA
ATOM     20  C   UNL     1       8.964  10.350  18.452  0.00  0.00    +0.000 A 
ATOM     21  N   UNL     1       8.174   9.867  17.520  0.00  0.00    +0.000 NA
BRANCH  20  22
ATOM     22  C   UNL     1       9.622  11.677  18.529  0.00  0.00    +0.000 C 
BRANCH  22  23
ATOM     23  C   UNL     1      10.770  11.714  19.536  0.00  0.00    +0.000 C 
ATOM     24  C   UNL     1      10.944  13.116  20.105  0.00  0.00    +0.000 C 
ENDBRANCH  22  23
ENDBRANCH  20  22
ENDBRANCH  16  17
ENDBRANCH   4  16
TORSDOF 8
ENDMDL
MODEL 4
REMARK VINA RESULT:      -6.5      1.779      2.329
REMARK  Name = 
REMARK  10 active torsions:
REMARK  status: ('A' for Active; 'I' for Inactive)
REMARK    1  A    between atoms: C_1  and  C_2
REMARK    2  A    between atoms: C_2  and  C_3
REMARK    3  A    between atoms: C_3  and  C_4
REMARK    4  A    between atoms: C_6  and  C_7
REMARK    5  A    between atoms: C_7  and  N_8
REMARK    6  A    between atoms: N_11  and  C_12
REMARK    7  A    between atoms: C_12  and  C_13
REMARK    8  A    between atoms: C_16  and  C_17
REMARK    9  A    between atoms: C_17  and  C_18
REMARK   10  A    between atoms: C_18  and  C_19
REMARK                            x       y       z     vdW  Elec       q    Type
REMARK                         _______ _______ _______ _____ _____    ______ ____
ROOT
ATOM      1  N   UNL     1       2.286   6.848  18.637  0.00  0.00    +0.000 NA
ATOM      2  C   UNL     1       3.232   7.049  17.521  0.00  0.00    +0.000 C 
ATOM      3  C   UNL     1       4.712   6.740  17.846  0.00  0.00    +0.000 C 
ATOM      4  N   UNL     1       4.968   5.429  18.473  0.00  0.00    +0.000 NA
ATOM      5  C   UNL     1       3.976   5.154  19.532  0.00  0.00    +0.000 C 
ATOM      6  C   UNL     1       2.503   5.501  19.198  0.00  0.00    +0.000 C 
ENDROOT
BRANCH   1   7
ATOM      7  C   UNL     1       2.394   7.878  19.699  0.00  0.00    +0.000 C 
BRANCH   7  10
ATOM      8  C   UNL     1      -0.215  10.136  18.975  0.00  0.00    +0.000 A 
ATOM      9  N   UNL     1       0.844   9.480  18.568  0.00  0.00    +0.000 NA
ATOM     10  C   UNL     1       1.243   8.838  19.713  0.00  0.00    +0.000 A 
ATOM     11  N   UNL     1       0.514   9.126  20.803  0.00  0.00    +0.000 NA
ATOM     12  O   UNL     1      -0.472   9.986  20.306  0.00  0.00    +0.000 OA
BRANCH   8  13
ATOM     13  C   UNL     1      -1.212  10.872  18.160  0.00  0.00    +0.000 C 
BRANCH  13  15
ATOM     14  C   UNL     1      -2.596  10.506  16.053  0.00  0.00    +0.000 C 
ATOM     15  C   UNL     1      -2.053   9.889  17.338  0.00  0.00    +0.000 C 
ENDBRANCH  13  15
ENDBRANCH   8  13
ENDBRANCH   7  10
ENDBRANCH   1   7
BRANCH   4  16
ATOM     16  C   UNL     1       5.033   4.319  17.502  0.00  0.00    +0.000 C 
BRANCH  16  17
ATOM     17  C   UNL     1       6.012   4.541  16.378  0.00  0.00    +0.000 A 
ATOM     18  N   UNL     1       7.345   4.546  16.535  0.00  0.00    +0.000 NA
ATOM     19  O   UNL     1       7.824   4.637  15.227  0.00  0.00    +0.000 OA
ATOM     20  C   UNL     1       6.730   4.661  14.414  0.00  0.00    +0.000 A 
ATOM     21  N   UNL     1       5.591   4.629  15.068  0.00  0.00    +0.000 NA
BRANCH  20  22
ATOM     22  C   UNL     1       6.974   4.584  12.953  0.00  0.00    +0.000 C 
BRANCH  22  23
ATOM     23  C   UNL     1       6.478   3.279  12.335  0.00  0.00    +0.000 C 
ATOM     24  C   UNL     1       5.051   3.432  11.823  0.00  0.00    +0.000 C 
ENDBRANCH  22  23
ENDBRANCH  20  22
ENDBRANCH  16  17
ENDBRANCH   4  16
TORSDOF 8
ENDMDL
MODEL 5
REMARK VINA RESULT:      -6.5      3.066      4.094
REMARK  Name = 
REMARK  10 active torsions:
REMARK  status: ('A' for Active; 'I' for Inactive)
REMARK    1  A    between atoms: C_1  and  C_2
REMARK    2  A    between atoms: C_2  and  C_3
REMARK    3  A    between atoms: C_3  and  C_4
REMARK    4  A    between atoms: C_6  and  C_7
REMARK    5  A    between atoms: C_7  and  N_8
REMARK    6  A    between atoms: N_11  and  C_12
REMARK    7  A    between atoms: C_12  and  C_13
REMARK    8  A    between atoms: C_16  and  C_17
REMARK    9  A    between atoms: C_17  and  C_18
REMARK   10  A    between atoms: C_18  and  C_19
REMARK                            x       y       z     vdW  Elec       q    Type
REMARK                         _______ _______ _______ _____ _____    ______ ____
ROOT
ATOM      1  N   UNL     1       5.641   4.911  18.581  0.00  0.00    +0.000 NA
ATOM      2  C   UNL     1       5.161   4.438  17.267  0.00  0.00    +0.000 C 
ATOM      3  C   UNL     1       5.364   5.427  16.095  0.00  0.00    +0.000 C 
ATOM      4  N   UNL     1       6.727   5.974  15.949  0.00  0.00    +0.000 NA
ATOM      5  C   UNL     1       7.275   6.368  17.263  0.00  0.00    +0.000 C 
ATOM      6  C   UNL     1       7.032   5.378  18.432  0.00  0.00    +0.000 C 
ENDROOT
BRANCH   1   7
ATOM      7  C   UNL     1       4.795   5.975  19.174  0.00  0.00    +0.000 C 
BRANCH   7  10
ATOM      8  C   UNL     1       2.115   4.117  20.513  0.00  0.00    +0.000 A 
ATOM      9  N   UNL     1       3.315   4.132  19.985  0.00  0.00    +0.000 NA
ATOM     10  C   UNL     1       3.495   5.466  19.716  0.00  0.00    +0.000 A 
ATOM     11  N   UNL     1       2.437   6.244  19.998  0.00  0.00    +0.000 NA
ATOM     12  O   UNL     1       1.517   5.342  20.545  0.00  0.00    +0.000 OA
BRANCH   8  13
ATOM     13  C   UNL     1       1.421   2.994  21.189  0.00  0.00    +0.000 C 
BRANCH  13  15
ATOM     14  C   UNL     1       0.710   2.616  18.772  0.00  0.00    +0.000 C 
ATOM     15  C   UNL     1       0.896   1.994  20.152  0.00  0.00    +0.000 C 
ENDBRANCH  13  15
ENDBRANCH   8  13
ENDBRANCH   7  10
ENDBRANCH   1   7
BRANCH   4  16
ATOM     16  C   UNL     1       7.648   5.066  15.238  0.00  0.00    +0.000 C 
BRANCH  16  17
ATOM     17  C   UNL     1       7.176   4.662  13.865  0.00  0.00    +0.000 A 
ATOM     18  N   UNL     1       7.651   5.186  12.724  0.00  0.00    +0.000 NA
ATOM     19  O   UNL     1       7.038   4.415  11.734  0.00  0.00    +0.000 OA
ATOM     20  C   UNL     1       6.269   3.494  12.381  0.00  0.00    +0.000 A 
ATOM     21  N   UNL     1       6.298   3.614  13.690  0.00  0.00    +0.000 NA
BRANCH  20  22
ATOM     22  C   UNL     1       5.641   2.437  11.550  0.00  0.00    +0.000 C 
BRANCH  22  23
ATOM     23  C   UNL     1       6.645   1.402  11.047  0.00  0.00    +0.000 C 
ATOM     24  C   UNL     1       6.120  -0.010  11.267  0.00  0.00    +0.000 C 
ENDBRANCH  22  23
ENDBRANCH  20  22
ENDBRANCH  16  17
ENDBRANCH   4  16
TORSDOF 8
ENDMDL
MODEL 6
REMARK VINA RESULT:      -6.5      1.289      1.917
REMARK  Name = 
REMARK  10 active torsions:
REMARK  status: ('A' for Active; 'I' for Inactive)
REMARK    1  A    between atoms: C_1  and  C_2
REMARK    2  A    between atoms: C_2  and  C_3
REMARK    3  A    between atoms: C_3  and  C_4
REMARK    4  A    between atoms: C_6  and  C_7
REMARK    5  A    between atoms: C_7  and  N_8
REMARK    6  A    between atoms: N_11  and  C_12
REMARK    7  A    between atoms: C_12  and  C_13
REMARK    8  A    between atoms: C_16  and  C_17
REMARK    9  A    between atoms: C_17  and  C_18
REMARK   10  A    between atoms: C_18  and  C_19
REMARK                            x       y       z     vdW  Elec       q    Type
REMARK                         _______ _______ _______ _____ _____    ______ ____
ROOT
ATOM      1  N   UNL     1       3.226   5.709  18.792  0.00  0.00    +0.000 NA
ATOM      2  C   UNL     1       3.758   6.038  17.454  0.00  0.00    +0.000 C 
ATOM      3  C   UNL     1       5.257   6.419  17.415  0.00  0.00    +0.000 C 
ATOM      4  N   UNL     1       6.173   5.476  18.087  0.00  0.00    +0.000 NA
ATOM      5  C   UNL     1       5.621   5.051  19.389  0.00  0.00    +0.000 C 
ATOM      6  C   UNL     1       4.110   4.705  19.414  0.00  0.00    +0.000 C 
ENDROOT
BRANCH   1   7
ATOM      7  C   UNL     1       3.074   6.889  19.677  0.00  0.00    +0.000 C 
BRANCH   7  10
ATOM      8  C   UNL     1       0.818   9.536  19.100  0.00  0.00    +0.000 A 
ATOM      9  N   UNL     1       1.388   8.714  19.947  0.00  0.00    +0.000 NA
ATOM     10  C   UNL     1       2.157   7.935  19.119  0.00  0.00    +0.000 A 
ATOM     11  N   UNL     1       2.028   8.207  17.811  0.00  0.00    +0.000 NA
ATOM     12  O   UNL     1       1.141   9.289  17.798  0.00  0.00    +0.000 OA
BRANCH   8  13
ATOM     13  C   UNL     1       0.015  10.748  19.392  0.00  0.00    +0.000 C 
BRANCH  13  15
ATOM     14  C   UNL     1      -2.182  10.133  18.258  0.00  0.00    +0.000 C 
ATOM     15  C   UNL     1      -0.952  11.035  18.237  0.00  0.00    +0.000 C 
ENDBRANCH  13  15
ENDBRANCH   8  13
ENDBRANCH   7  10
ENDBRANCH   1   7
BRANCH   4  16
ATOM     16  C   UNL     1       6.528   4.312  17.252  0.00  0.00    +0.000 C 
BRANCH  16  17
ATOM     17  C   UNL     1       6.793   4.648  15.807  0.00  0.00    +0.000 A 
ATOM     18  N   UNL     1       7.694   5.557  15.402  0.00  0.00    +0.000 NA
ATOM     19  O   UNL     1       7.691   5.418  14.012  0.00  0.00    +0.000 OA
ATOM     20  C   UNL     1       6.800   4.427  13.724  0.00  0.00    +0.000 A 
ATOM     21  N   UNL     1       6.203   3.935  14.786  0.00  0.00    +0.000 NA
BRANCH  20  22
ATOM     22  C   UNL     1       6.737   3.967  12.315  0.00  0.00    +0.000 C 
BRANCH  22  23
ATOM     23  C   UNL     1       5.468   3.177  12.004  0.00  0.00    +0.000 C 
ATOM     24  C   UNL     1       5.810   1.783  11.496  0.00  0.00    +0.000 C 
ENDBRANCH  22  23
ENDBRANCH  20  22
ENDBRANCH  16  17
ENDBRANCH   4  16
TORSDOF 8
ENDMDL
MODEL 7
REMARK VINA RESULT:      -6.5      1.318      1.973
REMARK  Name = 
REMARK  10 active torsions:
REMARK  status: ('A' for Active; 'I' for Inactive)
REMARK    1  A    between atoms: C_1  and  C_2
REMARK    2  A    between atoms: C_2  and  C_3
REMARK    3  A    between atoms: C_3  and  C_4
REMARK    4  A    between atoms: C_6  and  C_7
REMARK    5  A    between atoms: C_7  and  N_8
REMARK    6  A    between atoms: N_11  and  C_12
REMARK    7  A    between atoms: C_12  and  C_13
REMARK    8  A    between atoms: C_16  and  C_17
REMARK    9  A    between atoms: C_17  and  C_18
REMARK   10  A    between atoms: C_18  and  C_19
REMARK                            x       y       z     vdW  Elec       q    Type
REMARK                         _______ _______ _______ _____ _____    ______ ____
ROOT
ATOM      1  N   UNL     1       2.283   6.655  18.655  0.00  0.00    +0.000 NA
ATOM      2  C   UNL     1       3.240   6.850  17.548  0.00  0.00    +0.000 C 
ATOM      3  C   UNL     1       4.721   6.570  17.899  0.00  0.00    +0.000 C 
ATOM      4  N   UNL     1       4.988   5.275  18.553  0.00  0.00    +0.000 NA
ATOM      5  C   UNL     1       3.986   5.004  19.604  0.00  0.00    +0.000 C 
ATOM      6  C   UNL     1       2.512   5.322  19.243  0.00  0.00    +0.000 C 
ENDROOT
BRANCH   1   7
ATOM      7  C   UNL     1       2.360   7.705  19.698  0.00  0.00    +0.000 C 
BRANCH   7  10
ATOM      8  C   UNL     1      -0.051  10.255  20.034  0.00  0.00    +0.000 A 
ATOM      9  N   UNL     1       0.630   9.278  20.581  0.00  0.00    +0.000 NA
ATOM     10  C   UNL     1       1.351   8.798  19.516  0.00  0.00    +0.000 A 
ATOM     11  N   UNL     1       1.089   9.397  18.344  0.00  0.00    +0.000 NA
ATOM     12  O   UNL     1       0.159  10.383  18.692  0.00  0.00    +0.000 OA
BRANCH   8  13
ATOM     13  C   UNL     1      -0.875  11.291  20.703  0.00  0.00    +0.000 C 
BRANCH  13  15
ATOM     14  C   UNL     1      -1.825  11.560  23.052  0.00  0.00    +0.000 C 
ATOM     15  C   UNL     1      -0.579  11.312  22.208  0.00  0.00    +0.000 C 
ENDBRANCH  13  15
ENDBRANCH   8  13
ENDBRANCH   7  10
ENDBRANCH   1   7
BRANCH   4  16
ATOM     16  C   UNL     1       5.083   4.148  17.603  0.00  0.00    +0.000 C 
BRANCH  16  17
ATOM     17  C   UNL     1       5.945   4.430  16.399  0.00  0.00    +0.000 A 
ATOM     18  N   UNL     1       7.275   4.601  16.454  0.00  0.00    +0.000 NA
ATOM     19  O   UNL     1       7.646   4.683  15.110  0.00  0.00    +0.000 OA
ATOM     20  C   UNL     1       6.501   4.536  14.383  0.00  0.00    +0.000 A 
ATOM     21  N   UNL     1       5.425   4.401  15.124  0.00  0.00    +0.000 NA
BRANCH  20  22
ATOM     22  C   UNL     1       6.649   4.416  12.912  0.00  0.00    +0.000 C 
BRANCH  22  23
ATOM     23  C   UNL     1       6.044   3.128  12.357  0.00  0.00    +0.000 C 
ATOM     24  C   UNL     1       4.682   3.397  11.730  0.00  0.00    +0.000 C 
ENDBRANCH  22  23
ENDBRANCH  20  22
ENDBRANCH  16  17
ENDBRANCH   4  16
TORSDOF 8
ENDMDL
MODEL 8
REMARK VINA RESULT:      -6.5      1.282      8.864
REMARK  Name = 
REMARK  10 active torsions:
REMARK  status: ('A' for Active; 'I' for Inactive)
REMARK    1  A    between atoms: C_1  and  C_2
REMARK    2  A    between atoms: C_2  and  C_3
REMARK    3  A    between atoms: C_3  and  C_4
REMARK    4  A    between atoms: C_6  and  C_7
REMARK    5  A    between atoms: C_7  and  N_8
REMARK    6  A    between atoms: N_11  and  C_12
REMARK    7  A    between atoms: C_12  and  C_13
REMARK    8  A    between atoms: C_16  and  C_17
REMARK    9  A    between atoms: C_17  and  C_18
REMARK   10  A    between atoms: C_18  and  C_19
REMARK                            x       y       z     vdW  Elec       q    Type
REMARK                         _______ _______ _______ _____ _____    ______ ____
ROOT
ATOM      1  N   UNL     1       5.796   5.547  17.962  0.00  0.00    +0.000 NA
ATOM      2  C   UNL     1       5.006   6.658  17.397  0.00  0.00    +0.000 C 
ATOM      3  C   UNL     1       3.471   6.470  17.450  0.00  0.00    +0.000 C 
ATOM      4  N   UNL     1       2.918   6.097  18.766  0.00  0.00    +0.000 NA
ATOM      5  C   UNL     1       3.745   5.052  19.403  0.00  0.00    +0.000 C 
ATOM      6  C   UNL     1       5.281   5.243  19.310  0.00  0.00    +0.000 C 
ENDROOT
BRANCH   1   7
ATOM      7  C   UNL     1       5.796   4.329  17.117  0.00  0.00    +0.000 C 
BRANCH   7  10
ATOM      8  C   UNL     1       6.802   4.319  13.738  0.00  0.00    +0.000 A 
ATOM      9  N   UNL     1       6.073   3.792  14.692  0.00  0.00    +0.000 NA
ATOM     10  C   UNL     1       6.453   4.529  15.786  0.00  0.00    +0.000 A 
ATOM     11  N   UNL     1       7.420   5.430  15.549  0.00  0.00    +0.000 NA
ATOM     12  O   UNL     1       7.645   5.299  14.173  0.00  0.00    +0.000 OA
BRANCH   8  13
ATOM     13  C   UNL     1       6.712   4.087  12.276  0.00  0.00    +0.000 C 
BRANCH  13  15
ATOM     14  C   UNL     1       4.433   3.284  11.470  0.00  0.00    +0.000 C 
ATOM     15  C   UNL     1       5.811   2.882  11.985  0.00  0.00    +0.000 C 
ENDBRANCH  13  15
ENDBRANCH   8  13
ENDBRANCH   7  10
ENDBRANCH   1   7
BRANCH   4  16
ATOM     16  C   UNL     1       2.727   7.250  19.668  0.00  0.00    +0.000 C 
BRANCH  16  17
ATOM     17  C   UNL     1       1.857   8.340  19.098  0.00  0.00    +0.000 A 
ATOM     18  N   UNL     1       1.663   8.534  17.784  0.00  0.00    +0.000 NA
ATOM     19  O   UNL     1       0.690   9.535  17.746  0.00  0.00    +0.000 OA
ATOM     20  C   UNL     1       0.386   9.831  19.042  0.00  0.00    +0.000 A 
ATOM     21  N   UNL     1       1.090   9.144  19.914  0.00  0.00    +0.000 NA
BRANCH  20  22
ATOM     22  C   UNL     1      -0.752  10.752  19.273  0.00  0.00    +0.000 C 
BRANCH  22  23
ATOM     23  C   UNL     1      -0.333  12.058  19.944  0.00  0.00    +0.000 C 
ATOM     24  C   UNL     1       0.370  12.974  18.952  0.00  0.00    +0.000 C 
ENDBRANCH  22  23
ENDBRANCH  20  22
ENDBRANCH  16  17
ENDBRANCH   4  16
TORSDOF 8
ENDMDL
MODEL 9
REMARK VINA RESULT:      -6.4      0.982      1.215
REMARK  Name = 
REMARK  10 active torsions:
REMARK  status: ('A' for Active; 'I' for Inactive)
REMARK    1  A    between atoms: C_1  and  C_2
REMARK    2  A    between atoms: C_2  and  C_3
REMARK    3  A    between atoms: C_3  and  C_4
REMARK    4  A    between atoms: C_6  and  C_7
REMARK    5  A    between atoms: C_7  and  N_8
REMARK    6  A    between atoms: N_11  and  C_12
REMARK    7  A    between atoms: C_12  and  C_13
REMARK    8  A    between atoms: C_16  and  C_17
REMARK    9  A    between atoms: C_17  and  C_18
REMARK   10  A    between atoms: C_18  and  C_19
REMARK                            x       y       z     vdW  Elec       q    Type
REMARK                         _______ _______ _______ _____ _____    ______ ____
ROOT
ATOM      1  N   UNL     1       3.491   5.967  19.681  0.00  0.00    +0.000 NA
ATOM      2  C   UNL     1       3.823   4.529  19.620  0.00  0.00    +0.000 C 
ATOM      3  C   UNL     1       3.643   3.869  18.233  0.00  0.00    +0.000 C 
ATOM      4  N   UNL     1       4.289   4.567  17.104  0.00  0.00    +0.000 NA
ATOM      5  C   UNL     1       4.056   6.023  17.190  0.00  0.00    +0.000 C 
ATOM      6  C   UNL     1       4.209   6.660  18.595  0.00  0.00    +0.000 C 
ENDROOT
BRANCH   1   7
ATOM      7  C   UNL     1       2.036   6.244  19.603  0.00  0.00    +0.000 C 
BRANCH   7  10
ATOM      8  C   UNL     1       0.909   9.558  20.017  0.00  0.00    +0.000 A 
ATOM      9  N   UNL     1       1.192   8.563  19.212  0.00  0.00    +0.000 NA
ATOM     10  C   UNL     1       1.666   7.614  20.083  0.00  0.00    +0.000 A 
ATOM     11  N   UNL     1       1.741   8.012  21.363  0.00  0.00    +0.000 NA
ATOM     12  O   UNL     1       1.221   9.311  21.322  0.00  0.00    +0.000 OA
BRANCH   8  13
ATOM     13  C   UNL     1       0.180  10.812  19.709  0.00  0.00    +0.000 C 
BRANCH  13  15
ATOM     14  C   UNL     1      -1.820  10.346  18.202  0.00  0.00    +0.000 C 
ATOM     15  C   UNL     1      -0.358  10.774  18.274  0.00  0.00    +0.000 C 
ENDBRANCH  13  15
ENDBRANCH   8  13
ENDBRANCH   7  10
ENDBRANCH   1   7
BRANCH   4  16
ATOM     16  C   UNL     1       5.728   4.263  16.975  0.00  0.00    +0.000 C 
BRANCH  16  17
ATOM     17  C   UNL     1       6.297   4.549  15.609  0.00  0.00    +0.000 A 
ATOM     18  N   UNL     1       7.388   5.300  15.394  0.00  0.00    +0.000 NA
ATOM     19  O   UNL     1       7.612   5.159  14.023  0.00  0.00    +0.000 OA
ATOM     20  C   UNL     1       6.641   4.323  13.555  0.00  0.00    +0.000 A 
ATOM     21  N   UNL     1       5.793   3.937  14.481  0.00  0.00    +0.000 NA
BRANCH  20  22
ATOM     22  C   UNL     1       6.760   3.875  12.146  0.00  0.00    +0.000 C 
BRANCH  22  23
ATOM     23  C   UNL     1       5.839   2.703  11.816  0.00  0.00    +0.000 C 
ATOM     24  C   UNL     1       4.471   3.200  11.367  0.00  0.00    +0.000 C 
ENDBRANCH  22  23
ENDBRANCH  20  22
ENDBRANCH  16  17
ENDBRANCH   4  16
TORSDOF 8
ENDMDL
