MODEL 1
REMARK VINA RESULT:      -8.2      0.000      0.000
REMARK  Name = 
REMARK  6 active torsions:
REMARK  status: ('A' for Active; 'I' for Inactive)
REMARK    1  A    between atoms: C_1  and  C_2
REMARK    2  A    between atoms: C_2  and  C_3
REMARK    3  A    between atoms: C_2  and  C_17
REMARK    4  A    between atoms: C_3  and  C_4
REMARK    5  A    between atoms: C_12  and  C_13
REMARK    6  A    between atoms: C_13  and  O_15
REMARK                            x       y       z     vdW  Elec       q    Type
REMARK                         _______ _______ _______ _____ _____    ______ ____
ROOT
ATOM      1  C   UNL     1       3.815   3.560  18.120  0.00  0.00    +0.000 C 
ATOM      2  O   UNL     1       3.884   2.389  17.754  0.00  0.00    +0.000 OA
ATOM      3  N   UNL     1       4.585   4.563  17.556  0.00  0.00    +0.000 N 
ATOM      4  C   UNL     1       4.431   5.994  17.841  0.00  0.00    +0.000 C 
ATOM      5  C   UNL     1       5.525   6.783  17.099  0.00  0.00    +0.000 C 
ATOM      6  C   UNL     1       6.895   6.276  17.585  0.00  0.00    +0.000 C 
ATOM      7  C   UNL     1       6.989   4.754  17.389  0.00  0.00    +0.000 C 
ATOM      8  C   UNL     1       5.724   4.240  16.671  0.00  0.00    +0.000 C 
ATOM      9  C   UNL     1       5.507   4.975  15.334  0.00  0.00    +0.000 C 
ATOM     10  C   UNL     1       5.407   6.497  15.590  0.00  0.00    +0.000 C 
ENDROOT
BRANCH   9  11
ATOM     11  C   UNL     1       6.614   4.625  14.360  0.00  0.00    +0.000 C 
ATOM     12  O   UNL     1       7.592   5.322  14.138  0.00  0.00    +0.000 OA
BRANCH  11  13
ATOM     13  O   UNL     1       6.439   3.427  13.757  0.00  0.00    +0.000 OA
ATOM     14  H   UNL     1       5.533   3.254  13.439  0.00  0.00    +0.000 HD
ENDBRANCH  11  13
ENDBRANCH   9  11
BRANCH   1  15
ATOM     15  C   UNL     1       2.868   3.995  19.227  0.00  0.00    +0.000 C 
BRANCH  15  17
ATOM     16  C   UNL     1       0.675   2.807  19.330  0.00  0.00    +0.000 C 
ATOM     17  C   UNL     1       2.101   2.840  19.891  0.00  0.00    +0.000 C 
BRANCH  17  18
ATOM     18  C   UNL     1       2.095   2.947  21.419  0.00  0.00    +0.000 C 
ATOM     19  F   UNL     1       2.279   4.227  21.827  0.00  0.00    +0.000 F 
ATOM     20  F   UNL     1       0.912   2.547  21.931  0.00  0.00    +0.000 F 
ATOM     21  F   UNL     1       3.074   2.215  21.994  0.00  0.00    +0.000 F 
ENDBRANCH  17  18
ENDBRANCH  15  17
ENDBRANCH   1  15
TORSDOF 5
ENDMDL
MODEL 2
REMARK VINA RESULT:      -8.0      1.946      2.858
REMARK  Name = 
REMARK  6 active torsions:
REMARK  status: ('A' for Active; 'I' for Inactive)
REMARK    1  A    between atoms: C_1  and  C_2
REMARK    2  A    between atoms: C_2  and  C_3
REMARK    3  A    between atoms: C_2  and  C_17
REMARK    4  A    between atoms: C_3  and  C_4
REMARK    5  A    between atoms: C_12  and  C_13
REMARK    6  A    between atoms: C_13  and  O_15
REMARK                            x       y       z     vdW  Elec       q    Type
REMARK                         _______ _______ _______ _____ _____    ______ ____
ROOT
ATOM      1  C   UNL     1       2.979   5.491  18.380  0.00  0.00    +0.000 C 
ATOM      2  O   UNL     1       2.878   6.477  19.106  0.00  0.00    +0.000 OA
ATOM      3  N   UNL     1       4.108   5.240  17.619  0.00  0.00    +0.000 N 
ATOM      4  C   UNL     1       4.347   4.006  16.862  0.00  0.00    +0.000 C 
ATOM      5  C   UNL     1       5.661   4.139  16.070  0.00  0.00    +0.000 C 
ATOM      6  C   UNL     1       5.529   5.343  15.120  0.00  0.00    +0.000 C 
ATOM      7  C   UNL     1       5.158   6.603  15.919  0.00  0.00    +0.000 C 
ATOM      8  C   UNL     1       5.142   6.279  17.428  0.00  0.00    +0.000 C 
ATOM      9  C   UNL     1       6.493   5.690  17.884  0.00  0.00    +0.000 C 
ATOM     10  C   UNL     1       6.809   4.422  17.057  0.00  0.00    +0.000 C 
ENDROOT
BRANCH   9  11
ATOM     11  C   UNL     1       7.582   6.738  17.773  0.00  0.00    +0.000 C 
ATOM     12  O   UNL     1       7.829   7.382  16.766  0.00  0.00    +0.000 OA
BRANCH  11  13
ATOM     13  O   UNL     1       8.264   6.926  18.927  0.00  0.00    +0.000 OA
ATOM     14  H   UNL     1       7.711   7.127  19.705  0.00  0.00    +0.000 HD
ENDBRANCH  11  13
ENDBRANCH   9  11
BRANCH   1  15
ATOM     15  C   UNL     1       1.863   4.465  18.268  0.00  0.00    +0.000 C 
BRANCH  15  17
ATOM     16  C   UNL     1       1.102   2.155  18.829  0.00  0.00    +0.000 C 
ATOM     17  C   UNL     1       1.923   3.351  19.324  0.00  0.00    +0.000 C 
BRANCH  17  18
ATOM     18  C   UNL     1       1.440   3.825  20.699  0.00  0.00    +0.000 C 
ATOM     19  F   UNL     1       0.521   4.816  20.587  0.00  0.00    +0.000 F 
ATOM     20  F   UNL     1       0.844   2.823  21.379  0.00  0.00    +0.000 F 
ATOM     21  F   UNL     1       2.442   4.315  21.460  0.00  0.00    +0.000 F 
ENDBRANCH  17  18
ENDBRANCH  15  17
ENDBRANCH   1  15
TORSDOF 5
ENDMDL
MODEL 3
REMARK VINA RESULT:      -8.0      0.755      1.228
REMARK  Name = 
REMARK  6 active torsions:
REMARK  status: ('A' for Active; 'I' for Inactive)
REMARK    1  A    between atoms: C_1  and  C_2
REMARK    2  A    between atoms: C_2  and  C_3
REMARK    3  A    between atoms: C_2  and  C_17
REMARK    4  A    between atoms: C_3  and  C_4
REMARK    5  A    between atoms: C_12  and  C_13
REMARK    6  A    between atoms: C_13  and  O_15
REMARK                            x       y       z     vdW  Elec       q    Type
REMARK                         _______ _______ _______ _____ _____    ______ ____
ROOT
ATOM      1  C   UNL     1       4.318   3.440  18.319  0.00  0.00    +0.000 C 
ATOM      2  O   UNL     1       4.359   2.271  17.944  0.00  0.00    +0.000 OA
ATOM      3  N   UNL     1       4.974   4.459  17.650  0.00  0.00    +0.000 N 
ATOM      4  C   UNL     1       4.831   5.887  17.958  0.00  0.00    +0.000 C 
ATOM      5  C   UNL     1       5.786   6.700  17.064  0.00  0.00    +0.000 C 
ATOM      6  C   UNL     1       7.224   6.225  17.342  0.00  0.00    +0.000 C 
ATOM      7  C   UNL     1       7.323   4.705  17.131  0.00  0.00    +0.000 C 
ATOM      8  C   UNL     1       5.978   4.161  16.607  0.00  0.00    +0.000 C 
ATOM      9  C   UNL     1       5.549   4.889  15.317  0.00  0.00    +0.000 C 
ATOM     10  C   UNL     1       5.454   6.409  15.588  0.00  0.00    +0.000 C 
ENDROOT
BRANCH   9  11
ATOM     11  C   UNL     1       6.509   4.563  14.190  0.00  0.00    +0.000 C 
ATOM     12  O   UNL     1       7.372   5.318  13.770  0.00  0.00    +0.000 OA
BRANCH  11  13
ATOM     13  O   UNL     1       6.344   3.317  13.689  0.00  0.00    +0.000 OA
ATOM     14  H   UNL     1       6.436   2.596  14.339  0.00  0.00    +0.000 HD
ENDBRANCH  11  13
ENDBRANCH   9  11
BRANCH   1  15
ATOM     15  C   UNL     1       3.535   3.855  19.555  0.00  0.00    +0.000 C 
BRANCH  15  17
ATOM     16  C   UNL     1       1.344   3.707  18.367  0.00  0.00    +0.000 C 
ATOM     17  C   UNL     1       2.113   3.277  19.622  0.00  0.00    +0.000 C 
BRANCH  17  18
ATOM     18  C   UNL     1       1.373   3.695  20.897  0.00  0.00    +0.000 C 
ATOM     19  F   UNL     1       0.798   2.629  21.508  0.00  0.00    +0.000 F 
ATOM     20  F   UNL     1       2.220   4.242  21.795  0.00  0.00    +0.000 F 
ATOM     21  F   UNL     1       0.382   4.580  20.655  0.00  0.00    +0.000 F 
ENDBRANCH  17  18
ENDBRANCH  15  17
ENDBRANCH   1  15
TORSDOF 5
ENDMDL
MODEL 4
REMARK VINA RESULT:      -8.0      1.077      1.463
REMARK  Name = 
REMARK  6 active torsions:
REMARK  status: ('A' for Active; 'I' for Inactive)
REMARK    1  A    between atoms: C_1  and  C_2
REMARK    2  A    between atoms: C_2  and  C_3
REMARK    3  A    between atoms: C_2  and  C_17
REMARK    4  A    between atoms: C_3  and  C_4
REMARK    5  A    between atoms: C_12  and  C_13
REMARK    6  A    between atoms: C_13  and  O_15
REMARK                            x       y       z     vdW  Elec       q    Type
REMARK                         _______ _______ _______ _____ _____    ______ ____
ROOT
ATOM      1  C   UNL     1       4.268   3.441  18.513  0.00  0.00    +0.000 C 
ATOM      2  O   UNL     1       4.246   2.286  18.095  0.00  0.00    +0.000 OA
ATOM      3  N   UNL     1       4.955   4.454  17.866  0.00  0.00    +0.000 N 
ATOM      4  C   UNL     1       4.885   5.875  18.228  0.00  0.00    +0.000 C 
ATOM      5  C   UNL     1       5.857   6.676  17.341  0.00  0.00    +0.000 C 
ATOM      6  C   UNL     1       7.277   6.126  17.569  0.00  0.00    +0.000 C 
ATOM      7  C   UNL     1       7.301   4.612  17.302  0.00  0.00    +0.000 C 
ATOM      8  C   UNL     1       5.922   4.150  16.789  0.00  0.00    +0.000 C 
ATOM      9  C   UNL     1       5.499   4.944  15.537  0.00  0.00    +0.000 C 
ATOM     10  C   UNL     1       5.480   6.455  15.865  0.00  0.00    +0.000 C 
ENDROOT
BRANCH   9  11
ATOM     11  C   UNL     1       6.419   4.616  14.377  0.00  0.00    +0.000 C 
ATOM     12  O   UNL     1       7.247   5.381  13.907  0.00  0.00    +0.000 OA
BRANCH  11  13
ATOM     13  O   UNL     1       6.261   3.358  13.906  0.00  0.00    +0.000 OA
ATOM     14  H   UNL     1       5.336   3.091  13.744  0.00  0.00    +0.000 HD
ENDBRANCH  11  13
ENDBRANCH   9  11
BRANCH   1  15
ATOM     15  C   UNL     1       3.531   3.846  19.780  0.00  0.00    +0.000 C 
BRANCH  15  17
ATOM     16  C   UNL     1       1.606   5.330  20.350  0.00  0.00    +0.000 C 
ATOM     17  C   UNL     1       2.022   4.067  19.588  0.00  0.00    +0.000 C 
BRANCH  17  18
ATOM     18  C   UNL     1       1.195   2.854  20.028  0.00  0.00    +0.000 C 
ATOM     19  F   UNL     1       1.903   1.704  19.913  0.00  0.00    +0.000 F 
ATOM     20  F   UNL     1       0.834   2.956  21.325  0.00  0.00    +0.000 F 
ATOM     21  F   UNL     1       0.077   2.693  19.288  0.00  0.00    +0.000 F 
ENDBRANCH  17  18
ENDBRANCH  15  17
ENDBRANCH   1  15
TORSDOF 5
ENDMDL
MODEL 5
REMARK VINA RESULT:      -7.9      1.145      1.562
REMARK  Name = 
REMARK  6 active torsions:
REMARK  status: ('A' for Active; 'I' for Inactive)
REMARK    1  A    between atoms: C_1  and  C_2
REMARK    2  A    between atoms: C_2  and  C_3
REMARK    3  A    between atoms: C_2  and  C_17
REMARK    4  A    between atoms: C_3  and  C_4
REMARK    5  A    between atoms: C_12  and  C_13
REMARK    6  A    between atoms: C_13  and  O_15
REMARK                            x       y       z     vdW  Elec       q    Type
REMARK                         _______ _______ _______ _____ _____    ______ ____
ROOT
ATOM      1  C   UNL     1       2.777   4.021  17.542  0.00  0.00    +0.000 C 
ATOM      2  O   UNL     1       2.731   2.864  17.134  0.00  0.00    +0.000 OA
ATOM      3  N   UNL     1       3.821   4.878  17.235  0.00  0.00    +0.000 N 
ATOM      4  C   UNL     1       3.850   6.309  17.560  0.00  0.00    +0.000 C 
ATOM      5  C   UNL     1       5.210   6.899  17.144  0.00  0.00    +0.000 C 
ATOM      6  C   UNL     1       6.314   6.145  17.908  0.00  0.00    +0.000 C 
ATOM      7  C   UNL     1       6.191   4.634  17.650  0.00  0.00    +0.000 C 
ATOM      8  C   UNL     1       5.068   4.369  16.626  0.00  0.00    +0.000 C 
ATOM      9  C   UNL     1       5.310   5.152  15.320  0.00  0.00    +0.000 C 
ATOM     10  C   UNL     1       5.414   6.663  15.636  0.00  0.00    +0.000 C 
ENDROOT
BRANCH   9  11
ATOM     11  C   UNL     1       6.544   4.624  14.616  0.00  0.00    +0.000 C 
ATOM     12  O   UNL     1       7.603   5.224  14.522  0.00  0.00    +0.000 OA
BRANCH  11  13
ATOM     13  O   UNL     1       6.379   3.382  14.105  0.00  0.00    +0.000 OA
ATOM     14  H   UNL     1       5.789   3.330  13.330  0.00  0.00    +0.000 HD
ENDBRANCH  11  13
ENDBRANCH   9  11
BRANCH   1  15
ATOM     15  C   UNL     1       1.679   4.603  18.419  0.00  0.00    +0.000 C 
BRANCH  15  17
ATOM     16  C   UNL     1       3.250   4.249  20.326  0.00  0.00    +0.000 C 
ATOM     17  C   UNL     1       1.779   4.204  19.900  0.00  0.00    +0.000 C 
BRANCH  17  18
ATOM     18  C   UNL     1       1.163   2.828  20.175  0.00  0.00    +0.000 C 
ATOM     19  F   UNL     1       2.069   1.835  19.996  0.00  0.00    +0.000 F 
ATOM     20  F   UNL     1       0.734   2.732  21.451  0.00  0.00    +0.000 F 
ATOM     21  F   UNL     1       0.124   2.552  19.358  0.00  0.00    +0.000 F 
ENDBRANCH  17  18
ENDBRANCH  15  17
ENDBRANCH   1  15
TORSDOF 5
ENDMDL
MODEL 6
REMARK VINA RESULT:      -7.8      1.035      1.508
REMARK  Name = 
REMARK  6 active torsions:
REMARK  status: ('A' for Active; 'I' for Inactive)
REMARK    1  A    between atoms: C_1  and  C_2
REMARK    2  A    between atoms: C_2  and  C_3
REMARK    3  A    between atoms: C_2  and  C_17
REMARK    4  A    between atoms: C_3  and  C_4
REMARK    5  A    between atoms: C_12  and  C_13
REMARK    6  A    between atoms: C_13  and  O_15
REMARK                            x       y       z     vdW  Elec       q    Type
REMARK                         _______ _______ _______ _____ _____    ______ ____
ROOT
ATOM      1  C   UNL     1       2.925   3.677  17.454  0.00  0.00    +0.000 C 
ATOM      2  O   UNL     1       2.973   2.528  17.024  0.00  0.00    +0.000 OA
ATOM      3  N   UNL     1       3.889   4.624  17.154  0.00  0.00    +0.000 N 
ATOM      4  C   UNL     1       3.801   6.047  17.506  0.00  0.00    +0.000 C 
ATOM      5  C   UNL     1       5.102   6.757  17.089  0.00  0.00    +0.000 C 
ATOM      6  C   UNL     1       6.274   6.086  17.829  0.00  0.00    +0.000 C 
ATOM      7  C   UNL     1       6.276   4.575  17.543  0.00  0.00    +0.000 C 
ATOM      8  C   UNL     1       5.169   4.234  16.524  0.00  0.00    +0.000 C 
ATOM      9  C   UNL     1       5.330   5.059  15.232  0.00  0.00    +0.000 C 
ATOM     10  C   UNL     1       5.309   6.567  15.575  0.00  0.00    +0.000 C 
ENDROOT
BRANCH   9  11
ATOM     11  C   UNL     1       6.596   4.649  14.506  0.00  0.00    +0.000 C 
ATOM     12  O   UNL     1       7.629   5.300  14.488  0.00  0.00    +0.000 OA
BRANCH  11  13
ATOM     13  O   UNL     1       6.494   3.453  13.882  0.00  0.00    +0.000 OA
ATOM     14  H   UNL     1       5.586   3.190  13.643  0.00  0.00    +0.000 HD
ENDBRANCH  11  13
ENDBRANCH   9  11
BRANCH   1  15
ATOM     15  C   UNL     1       1.791   4.148  18.352  0.00  0.00    +0.000 C 
BRANCH  15  17
ATOM     16  C   UNL     1       0.542   2.985  20.173  0.00  0.00    +0.000 C 
ATOM     17  C   UNL     1       1.878   3.634  19.798  0.00  0.00    +0.000 C 
BRANCH  17  18
ATOM     18  C   UNL     1       2.255   4.741  20.788  0.00  0.00    +0.000 C 
ATOM     19  F   UNL     1       2.383   4.257  22.048  0.00  0.00    +0.000 F 
ATOM     20  F   UNL     1       3.443   5.298  20.468  0.00  0.00    +0.000 F 
ATOM     21  F   UNL     1       1.330   5.723  20.845  0.00  0.00    +0.000 F 
ENDBRANCH  17  18
ENDBRANCH  15  17
ENDBRANCH   1  15
TORSDOF 5
ENDMDL
MODEL 7
REMARK VINA RESULT:      -7.8      2.041      3.013
REMARK  Name = 
REMARK  6 active torsions:
REMARK  status: ('A' for Active; 'I' for Inactive)
REMARK    1  A    between atoms: C_1  and  C_2
REMARK    2  A    between atoms: C_2  and  C_3
REMARK    3  A    between atoms: C_2  and  C_17
REMARK    4  A    between atoms: C_3  and  C_4
REMARK    5  A    between atoms: C_12  and  C_13
REMARK    6  A    between atoms: C_13  and  O_15
REMARK                            x       y       z     vdW  Elec       q    Type
REMARK                         _______ _______ _______ _____ _____    ______ ____
ROOT
ATOM      1  C   UNL     1       4.157   3.917  18.707  0.00  0.00    +0.000 C 
ATOM      2  O   UNL     1       4.160   4.338  19.861  0.00  0.00    +0.000 OA
ATOM      3  N   UNL     1       4.913   4.495  17.702  0.00  0.00    +0.000 N 
ATOM      4  C   UNL     1       5.071   3.941  16.352  0.00  0.00    +0.000 C 
ATOM      5  C   UNL     1       5.904   4.913  15.496  0.00  0.00    +0.000 C 
ATOM      6  C   UNL     1       5.165   6.263  15.446  0.00  0.00    +0.000 C 
ATOM      7  C   UNL     1       4.902   6.767  16.875  0.00  0.00    +0.000 C 
ATOM      8  C   UNL     1       5.555   5.813  17.895  0.00  0.00    +0.000 C 
ATOM      9  C   UNL     1       7.063   5.649  17.617  0.00  0.00    +0.000 C 
ATOM     10  C   UNL     1       7.269   5.129  16.175  0.00  0.00    +0.000 C 
ENDROOT
BRANCH   9  11
ATOM     11  C   UNL     1       7.784   6.958  17.867  0.00  0.00    +0.000 C 
ATOM     12  O   UNL     1       7.812   7.898  17.088  0.00  0.00    +0.000 OA
BRANCH  11  13
ATOM     13  O   UNL     1       8.394   7.012  19.074  0.00  0.00    +0.000 OA
ATOM     14  H   UNL     1       9.228   7.518  19.092  0.00  0.00    +0.000 HD
ENDBRANCH  11  13
ENDBRANCH   9  11
BRANCH   1  15
ATOM     15  C   UNL     1       3.318   2.716  18.298  0.00  0.00    +0.000 C 
BRANCH  15  17
ATOM     16  C   UNL     1       1.622   4.409  17.598  0.00  0.00    +0.000 C 
ATOM     17  C   UNL     1       1.813   3.008  18.190  0.00  0.00    +0.000 C 
BRANCH  17  18
ATOM     18  C   UNL     1       1.095   2.871  19.537  0.00  0.00    +0.000 C 
ATOM     19  F   UNL     1       1.797   2.090  20.395  0.00  0.00    +0.000 F 
ATOM     20  F   UNL     1       0.952   4.071  20.138  0.00  0.00    +0.000 F 
ATOM     21  F   UNL     1      -0.128   2.310  19.418  0.00  0.00    +0.000 F 
ENDBRANCH  17  18
ENDBRANCH  15  17
ENDBRANCH   1  15
TORSDOF 5
ENDMDL
MODEL 8
REMARK VINA RESULT:      -7.7      1.900      2.928
REMARK  Name = 
REMARK  6 active torsions:
REMARK  status: ('A' for Active; 'I' for Inactive)
REMARK    1  A    between atoms: C_1  and  C_2
REMARK    2  A    between atoms: C_2  and  C_3
REMARK    3  A    between atoms: C_2  and  C_17
REMARK    4  A    between atoms: C_3  and  C_4
REMARK    5  A    between atoms: C_12  and  C_13
REMARK    6  A    between atoms: C_13  and  O_15
REMARK                            x       y       z     vdW  Elec       q    Type
REMARK                         _______ _______ _______ _____ _____    ______ ____
ROOT
ATOM      1  C   UNL     1       2.920   5.516  18.386  0.00  0.00    +0.000 C 
ATOM      2  O   UNL     1       2.847   6.497  19.122  0.00  0.00    +0.000 OA
ATOM      3  N   UNL     1       4.038   5.245  17.616  0.00  0.00    +0.000 N 
ATOM      4  C   UNL     1       4.244   4.012  16.847  0.00  0.00    +0.000 C 
ATOM      5  C   UNL     1       5.557   4.122  16.049  0.00  0.00    +0.000 C 
ATOM      6  C   UNL     1       5.447   5.337  15.109  0.00  0.00    +0.000 C 
ATOM      7  C   UNL     1       5.111   6.598  15.922  0.00  0.00    +0.000 C 
ATOM      8  C   UNL     1       5.096   6.261  17.428  0.00  0.00    +0.000 C 
ATOM      9  C   UNL     1       6.435   5.637  17.871  0.00  0.00    +0.000 C 
ATOM     10  C   UNL     1       6.717   4.369  17.031  0.00  0.00    +0.000 C 
ENDROOT
BRANCH   9  11
ATOM     11  C   UNL     1       7.548   6.660  17.763  0.00  0.00    +0.000 C 
ATOM     12  O   UNL     1       8.154   7.132  18.712  0.00  0.00    +0.000 OA
BRANCH  11  13
ATOM     13  O   UNL     1       7.842   6.999  16.487  0.00  0.00    +0.000 OA
ATOM     14  H   UNL     1       7.285   6.574  15.808  0.00  0.00    +0.000 HD
ENDBRANCH  11  13
ENDBRANCH   9  11
BRANCH   1  15
ATOM     15  C   UNL     1       1.779   4.517  18.271  0.00  0.00    +0.000 C 
BRANCH  15  17
ATOM     16  C   UNL     1       0.931   2.236  18.827  0.00  0.00    +0.000 C 
ATOM     17  C   UNL     1       1.830   3.382  19.306  0.00  0.00    +0.000 C 
BRANCH  17  18
ATOM     18  C   UNL     1       1.431   3.852  20.708  0.00  0.00    +0.000 C 
ATOM     19  F   UNL     1       0.866   2.850  21.425  0.00  0.00    +0.000 F 
ATOM     20  F   UNL     1       2.508   4.266  21.409  0.00  0.00    +0.000 F 
ATOM     21  F   UNL     1       0.532   4.860  20.681  0.00  0.00    +0.000 F 
ENDBRANCH  17  18
ENDBRANCH  15  17
ENDBRANCH   1  15
TORSDOF 5
ENDMDL
MODEL 9
REMARK VINA RESULT:      -7.7      0.825      1.353
REMARK  Name = 
REMARK  6 active torsions:
REMARK  status: ('A' for Active; 'I' for Inactive)
REMARK    1  A    between atoms: C_1  and  C_2
REMARK    2  A    between atoms: C_2  and  C_3
REMARK    3  A    between atoms: C_2  and  C_17
REMARK    4  A    between atoms: C_3  and  C_4
REMARK    5  A    between atoms: C_12  and  C_13
REMARK    6  A    between atoms: C_13  and  O_15
REMARK                            x       y       z     vdW  Elec       q    Type
REMARK                         _______ _______ _______ _____ _____    ______ ____
ROOT
ATOM      1  C   UNL     1       3.544   3.258  17.636  0.00  0.00    +0.000 C 
ATOM      2  O   UNL     1       3.712   2.115  17.220  0.00  0.00    +0.000 OA
ATOM      3  N   UNL     1       4.321   4.324  17.216  0.00  0.00    +0.000 N 
ATOM      4  C   UNL     1       4.065   5.729  17.555  0.00  0.00    +0.000 C 
ATOM      5  C   UNL     1       5.195   6.606  16.984  0.00  0.00    +0.000 C 
ATOM      6  C   UNL     1       6.526   6.133  17.598  0.00  0.00    +0.000 C 
ATOM      7  C   UNL     1       6.717   4.630  17.336  0.00  0.00    +0.000 C 
ATOM      8  C   UNL     1       5.568   4.102  16.453  0.00  0.00    +0.000 C 
ATOM      9  C   UNL     1       5.465   4.902  15.138  0.00  0.00    +0.000 C 
ATOM     10  C   UNL     1       5.262   6.401  15.459  0.00  0.00    +0.000 C 
ENDROOT
BRANCH   9  11
ATOM     11  C   UNL     1       6.692   4.656  14.282  0.00  0.00    +0.000 C 
ATOM     12  O   UNL     1       7.664   5.393  14.231  0.00  0.00    +0.000 OA
BRANCH  11  13
ATOM     13  O   UNL     1       6.630   3.504  13.575  0.00  0.00    +0.000 OA
ATOM     14  H   UNL     1       5.771   3.328  13.148  0.00  0.00    +0.000 HD
ENDBRANCH  11  13
ENDBRANCH   9  11
BRANCH   1  15
ATOM     15  C   UNL     1       2.458   3.589  18.648  0.00  0.00    +0.000 C 
BRANCH  15  17
ATOM     16  C   UNL     1       3.868   2.432  20.352  0.00  0.00    +0.000 C 
ATOM     17  C   UNL     1       2.947   3.632  20.104  0.00  0.00    +0.000 C 
BRANCH  17  18
ATOM     18  C   UNL     1       1.788   3.661  21.107  0.00  0.00    +0.000 C 
ATOM     19  F   UNL     1       1.085   2.502  21.084  0.00  0.00    +0.000 F 
ATOM     20  F   UNL     1       2.241   3.811  22.370  0.00  0.00    +0.000 F 
ATOM     21  F   UNL     1       0.907   4.652  20.852  0.00  0.00    +0.000 F 
ENDBRANCH  17  18
ENDBRANCH  15  17
ENDBRANCH   1  15
TORSDOF 5
ENDMDL
