MODEL 1
REMARK VINA RESULT:      -7.9      0.000      0.000
REMARK  Name = 
REMARK  4 active torsions:
REMARK  status: ('A' for Active; 'I' for Inactive)
REMARK    1  A    between atoms: C_1  and  N_2
REMARK    2  A    between atoms: N_2  and  C_3
REMARK    3  A    between atoms: N_2  and  C_4
REMARK    4  A    between atoms: C_12  and  C_13
REMARK                            x       y       z     vdW  Elec       q    Type
REMARK                         _______ _______ _______ _____ _____    ______ ____
ROOT
ATOM      1  C   UNL     1       5.644   5.125  17.551  0.00  0.00    +0.000 C 
ATOM      2  C   UNL     1       5.253   3.950  18.489  0.00  0.00    +0.000 C 
ATOM      3  C   UNL     1       3.772   3.663  18.542  0.00  0.00    +0.000 A 
ATOM      4  C   UNL     1       3.337   2.403  18.985  0.00  0.00    +0.000 A 
ATOM      5  C   UNL     1       1.976   2.112  19.089  0.00  0.00    +0.000 A 
ATOM      6  C   UNL     1       1.035   3.072  18.740  0.00  0.00    +0.000 A 
ATOM      7  C   UNL     1       1.454   4.327  18.303  0.00  0.00    +0.000 A 
ATOM      8  C   UNL     1       2.823   4.654  18.232  0.00  0.00    +0.000 A 
ATOM      9  C   UNL     1       3.252   6.053  17.797  0.00  0.00    +0.000 C 
ATOM     10  C   UNL     1       4.764   6.316  17.981  0.00  0.00    +0.000 C 
ENDROOT
BRANCH   9  11
ATOM     11  C   UNL     1       2.465   7.150  18.520  0.00  0.00    +0.000 A 
ATOM     12  C   UNL     1       2.009   8.284  17.818  0.00  0.00    +0.000 A 
ATOM     13  C   UNL     1       1.328   9.304  18.479  0.00  0.00    +0.000 A 
ATOM     14  C   UNL     1       1.102   9.201  19.845  0.00  0.00    +0.000 A 
ATOM     15  F   UNL     1       0.459  10.187  20.483  0.00  0.00    +0.000 F 
ATOM     16  C   UNL     1       1.545   8.094  20.561  0.00  0.00    +0.000 A 
ATOM     17  C   UNL     1       2.224   7.067  19.900  0.00  0.00    +0.000 A 
ENDBRANCH   9  11
BRANCH   1  19
ATOM     18  C   UNL     1       6.763   4.055  15.652  0.00  0.00    +0.000 C 
ATOM     19  N   UNL     1       5.578   4.805  16.098  0.00  0.00    +0.000 NA
ATOM     20  C   UNL     1       5.467   6.010  15.266  0.00  0.00    +0.000 C 
ENDBRANCH   1  19
TORSDOF 2
ENDMDL
MODEL 2
REMARK VINA RESULT:      -7.9      0.079      1.085
REMARK  Name = 
REMARK  4 active torsions:
REMARK  status: ('A' for Active; 'I' for Inactive)
REMARK    1  A    between atoms: C_1  and  N_2
REMARK    2  A    between atoms: N_2  and  C_3
REMARK    3  A    between atoms: N_2  and  C_4
REMARK    4  A    between atoms: C_12  and  C_13
REMARK                            x       y       z     vdW  Elec       q    Type
REMARK                         _______ _______ _______ _____ _____    ______ ____
ROOT
ATOM      1  C   UNL     1       5.648   5.133  17.461  0.00  0.00    +0.000 C 
ATOM      2  C   UNL     1       5.279   3.968  18.419  0.00  0.00    +0.000 C 
ATOM      3  C   UNL     1       3.797   3.692  18.521  0.00  0.00    +0.000 A 
ATOM      4  C   UNL     1       3.367   2.439  18.986  0.00  0.00    +0.000 A 
ATOM      5  C   UNL     1       2.009   2.159  19.136  0.00  0.00    +0.000 A 
ATOM      6  C   UNL     1       1.064   3.124  18.810  0.00  0.00    +0.000 A 
ATOM      7  C   UNL     1       1.479   4.373  18.351  0.00  0.00    +0.000 A 
ATOM      8  C   UNL     1       2.847   4.688  18.235  0.00  0.00    +0.000 A 
ATOM      9  C   UNL     1       3.273   6.081  17.777  0.00  0.00    +0.000 C 
ATOM     10  C   UNL     1       4.791   6.334  17.911  0.00  0.00    +0.000 C 
ENDROOT
BRANCH   9  11
ATOM     11  C   UNL     1       2.517   7.190  18.517  0.00  0.00    +0.000 A 
ATOM     12  C   UNL     1       2.258   7.079  19.899  0.00  0.00    +0.000 A 
ATOM     13  C   UNL     1       1.537   8.065  20.568  0.00  0.00    +0.000 A 
ATOM     14  C   UNL     1       1.065   9.164  19.863  0.00  0.00    +0.000 A 
ATOM     15  F   UNL     1       0.360  10.104  20.504  0.00  0.00    +0.000 F 
ATOM     16  C   UNL     1       1.303   9.294  18.499  0.00  0.00    +0.000 A 
ATOM     17  C   UNL     1       2.032   8.310  17.826  0.00  0.00    +0.000 A 
ENDBRANCH   9  11
BRANCH   1  19
ATOM     18  C   UNL     1       6.650   3.963  15.556  0.00  0.00    +0.000 C 
ATOM     19  N   UNL     1       5.533   4.805  16.013  0.00  0.00    +0.000 NA
ATOM     20  C   UNL     1       5.499   6.006  15.169  0.00  0.00    +0.000 C 
ENDBRANCH   1  19
TORSDOF 2
ENDMDL
MODEL 3
REMARK VINA RESULT:      -7.8      1.640      3.753
REMARK  Name = 
REMARK  4 active torsions:
REMARK  status: ('A' for Active; 'I' for Inactive)
REMARK    1  A    between atoms: C_1  and  N_2
REMARK    2  A    between atoms: N_2  and  C_3
REMARK    3  A    between atoms: N_2  and  C_4
REMARK    4  A    between atoms: C_12  and  C_13
REMARK                            x       y       z     vdW  Elec       q    Type
REMARK                         _______ _______ _______ _____ _____    ______ ____
ROOT
ATOM      1  C   UNL     1       2.342   3.552  19.206  0.00  0.00    +0.000 C 
ATOM      2  C   UNL     1       2.829   3.479  17.733  0.00  0.00    +0.000 C 
ATOM      3  C   UNL     1       3.798   4.569  17.343  0.00  0.00    +0.000 A 
ATOM      4  C   UNL     1       4.625   4.379  16.224  0.00  0.00    +0.000 A 
ATOM      5  C   UNL     1       5.504   5.379  15.805  0.00  0.00    +0.000 A 
ATOM      6  C   UNL     1       5.575   6.575  16.507  0.00  0.00    +0.000 A 
ATOM      7  C   UNL     1       4.756   6.777  17.617  0.00  0.00    +0.000 A 
ATOM      8  C   UNL     1       3.832   5.796  18.029  0.00  0.00    +0.000 A 
ATOM      9  C   UNL     1       2.914   6.065  19.219  0.00  0.00    +0.000 C 
ATOM     10  C   UNL     1       1.819   4.990  19.404  0.00  0.00    +0.000 C 
ENDROOT
BRANCH   9  11
ATOM     11  C   UNL     1       2.248   7.443  19.135  0.00  0.00    +0.000 A 
ATOM     12  C   UNL     1       1.671   8.028  20.280  0.00  0.00    +0.000 A 
ATOM     13  C   UNL     1       1.029   9.262  20.202  0.00  0.00    +0.000 A 
ATOM     14  C   UNL     1       0.954   9.916  18.979  0.00  0.00    +0.000 A 
ATOM     15  F   UNL     1       0.326  11.095  18.900  0.00  0.00    +0.000 F 
ATOM     16  C   UNL     1       1.512   9.357  17.834  0.00  0.00    +0.000 A 
ATOM     17  C   UNL     1       2.161   8.123  17.911  0.00  0.00    +0.000 A 
ENDBRANCH   9  11
BRANCH   1  19
ATOM     18  C   UNL     1       4.207   2.041  19.697  0.00  0.00    +0.000 C 
ATOM     19  N   UNL     1       3.350   3.120  20.214  0.00  0.00    +0.000 NA
ATOM     20  C   UNL     1       2.728   2.647  21.457  0.00  0.00    +0.000 C 
ENDBRANCH   1  19
TORSDOF 2
ENDMDL
MODEL 4
REMARK VINA RESULT:      -7.8      1.625      3.617
REMARK  Name = 
REMARK  4 active torsions:
REMARK  status: ('A' for Active; 'I' for Inactive)
REMARK    1  A    between atoms: C_1  and  N_2
REMARK    2  A    between atoms: N_2  and  C_3
REMARK    3  A    between atoms: N_2  and  C_4
REMARK    4  A    between atoms: C_12  and  C_13
REMARK                            x       y       z     vdW  Elec       q    Type
REMARK                         _______ _______ _______ _____ _____    ______ ____
ROOT
ATOM      1  C   UNL     1       2.389   3.492  19.117  0.00  0.00    +0.000 C 
ATOM      2  C   UNL     1       2.900   3.453  17.651  0.00  0.00    +0.000 C 
ATOM      3  C   UNL     1       3.858   4.566  17.296  0.00  0.00    +0.000 A 
ATOM      4  C   UNL     1       4.705   4.410  16.187  0.00  0.00    +0.000 A 
ATOM      5  C   UNL     1       5.574   5.431  15.801  0.00  0.00    +0.000 A 
ATOM      6  C   UNL     1       5.614   6.616  16.525  0.00  0.00    +0.000 A 
ATOM      7  C   UNL     1       4.775   6.784  17.625  0.00  0.00    +0.000 A 
ATOM      8  C   UNL     1       3.861   5.781  18.004  0.00  0.00    +0.000 A 
ATOM      9  C   UNL     1       2.919   6.013  19.184  0.00  0.00    +0.000 C 
ATOM     10  C   UNL     1       1.840   4.918  19.332  0.00  0.00    +0.000 C 
ENDROOT
BRANCH   9  11
ATOM     11  C   UNL     1       2.232   7.381  19.115  0.00  0.00    +0.000 A 
ATOM     12  C   UNL     1       2.159   8.084  17.895  0.00  0.00    +0.000 A 
ATOM     13  C   UNL     1       1.571   9.345  17.835  0.00  0.00    +0.000 A 
ATOM     14  C   UNL     1       1.058   9.916  18.992  0.00  0.00    +0.000 A 
ATOM     15  F   UNL     1       0.505  11.134  18.937  0.00  0.00    +0.000 F 
ATOM     16  C   UNL     1       1.122   9.244  20.209  0.00  0.00    +0.000 A 
ATOM     17  C   UNL     1       1.706   7.976  20.271  0.00  0.00    +0.000 A 
ENDBRANCH   9  11
BRANCH   1  19
ATOM     18  C   UNL     1       4.197   1.927  19.651  0.00  0.00    +0.000 C 
ATOM     19  N   UNL     1       3.388   3.058  20.133  0.00  0.00    +0.000 NA
ATOM     20  C   UNL     1       2.758   2.657  21.397  0.00  0.00    +0.000 C 
ENDBRANCH   1  19
TORSDOF 2
ENDMDL
MODEL 5
REMARK VINA RESULT:      -7.5      2.963      4.949
REMARK  Name = 
REMARK  4 active torsions:
REMARK  status: ('A' for Active; 'I' for Inactive)
REMARK    1  A    between atoms: C_1  and  N_2
REMARK    2  A    between atoms: N_2  and  C_3
REMARK    3  A    between atoms: N_2  and  C_4
REMARK    4  A    between atoms: C_12  and  C_13
REMARK                            x       y       z     vdW  Elec       q    Type
REMARK                         _______ _______ _______ _____ _____    ______ ____
ROOT
ATOM      1  C   UNL     1       5.048   5.134  15.258  0.00  0.00    +0.000 C 
ATOM      2  C   UNL     1       5.696   6.446  15.779  0.00  0.00    +0.000 C 
ATOM      3  C   UNL     1       6.480   6.287  17.060  0.00  0.00    +0.000 A 
ATOM      4  C   UNL     1       7.443   7.252  17.395  0.00  0.00    +0.000 A 
ATOM      5  C   UNL     1       8.159   7.165  18.589  0.00  0.00    +0.000 A 
ATOM      6  C   UNL     1       7.928   6.106  19.458  0.00  0.00    +0.000 A 
ATOM      7  C   UNL     1       6.972   5.144  19.139  0.00  0.00    +0.000 A 
ATOM      8  C   UNL     1       6.209   5.239  17.957  0.00  0.00    +0.000 A 
ATOM      9  C   UNL     1       5.134   4.197  17.658  0.00  0.00    +0.000 C 
ATOM     10  C   UNL     1       4.247   4.561  16.446  0.00  0.00    +0.000 C 
ENDROOT
BRANCH   9  11
ATOM     11  C   UNL     1       4.234   3.930  18.870  0.00  0.00    +0.000 A 
ATOM     12  C   UNL     1       4.235   2.667  19.496  0.00  0.00    +0.000 A 
ATOM     13  C   UNL     1       3.390   2.407  20.573  0.00  0.00    +0.000 A 
ATOM     14  C   UNL     1       2.535   3.402  21.026  0.00  0.00    +0.000 A 
ATOM     15  F   UNL     1       1.713   3.148  22.052  0.00  0.00    +0.000 F 
ATOM     16  C   UNL     1       2.513   4.655  20.422  0.00  0.00    +0.000 A 
ATOM     17  C   UNL     1       3.363   4.921  19.346  0.00  0.00    +0.000 A 
ENDBRANCH   9  11
BRANCH   1  19
ATOM     18  C   UNL     1       7.292   4.813  14.329  0.00  0.00    +0.000 C 
ATOM     19  N   UNL     1       6.004   4.173  14.643  0.00  0.00    +0.000 NA
ATOM     20  C   UNL     1       5.481   3.581  13.405  0.00  0.00    +0.000 C 
ENDBRANCH   1  19
TORSDOF 2
ENDMDL
MODEL 6
REMARK VINA RESULT:      -7.5      2.928      4.865
REMARK  Name = 
REMARK  4 active torsions:
REMARK  status: ('A' for Active; 'I' for Inactive)
REMARK    1  A    between atoms: C_1  and  N_2
REMARK    2  A    between atoms: N_2  and  C_3
REMARK    3  A    between atoms: N_2  and  C_4
REMARK    4  A    between atoms: C_12  and  C_13
REMARK                            x       y       z     vdW  Elec       q    Type
REMARK                         _______ _______ _______ _____ _____    ______ ____
ROOT
ATOM      1  C   UNL     1       5.093   5.151  15.135  0.00  0.00    +0.000 C 
ATOM      2  C   UNL     1       5.734   6.450  15.695  0.00  0.00    +0.000 C 
ATOM      3  C   UNL     1       6.483   6.265  16.994  0.00  0.00    +0.000 A 
ATOM      4  C   UNL     1       7.442   7.219  17.370  0.00  0.00    +0.000 A 
ATOM      5  C   UNL     1       8.125   7.107  18.582  0.00  0.00    +0.000 A 
ATOM      6  C   UNL     1       7.866   6.035  19.425  0.00  0.00    +0.000 A 
ATOM      7  C   UNL     1       6.913   5.084  19.065  0.00  0.00    +0.000 A 
ATOM      8  C   UNL     1       6.183   5.203  17.865  0.00  0.00    +0.000 A 
ATOM      9  C   UNL     1       5.110   4.173  17.520  0.00  0.00    +0.000 C 
ATOM     10  C   UNL     1       4.258   4.563  16.291  0.00  0.00    +0.000 C 
ENDROOT
BRANCH   9  11
ATOM     11  C   UNL     1       4.178   3.890  18.702  0.00  0.00    +0.000 A 
ATOM     12  C   UNL     1       3.230   4.850  19.111  0.00  0.00    +0.000 A 
ATOM     13  C   UNL     1       2.407   4.614  20.210  0.00  0.00    +0.000 A 
ATOM     14  C   UNL     1       2.529   3.422  20.911  0.00  0.00    +0.000 A 
ATOM     15  F   UNL     1       1.748   3.201  21.975  0.00  0.00    +0.000 F 
ATOM     16  C   UNL     1       3.459   2.460  20.530  0.00  0.00    +0.000 A 
ATOM     17  C   UNL     1       4.281   2.691  19.424  0.00  0.00    +0.000 A 
ENDBRANCH   9  11
BRANCH   1  19
ATOM     18  C   UNL     1       7.340   4.848  14.205  0.00  0.00    +0.000 C 
ATOM     19  N   UNL     1       6.061   4.195  14.529  0.00  0.00    +0.000 NA
ATOM     20  C   UNL     1       5.543   3.582  13.298  0.00  0.00    +0.000 C 
ENDBRANCH   1  19
TORSDOF 2
ENDMDL
MODEL 7
REMARK VINA RESULT:      -7.2      3.874      6.712
REMARK  Name = 
REMARK  4 active torsions:
REMARK  status: ('A' for Active; 'I' for Inactive)
REMARK    1  A    between atoms: C_1  and  N_2
REMARK    2  A    between atoms: N_2  and  C_3
REMARK    3  A    between atoms: N_2  and  C_4
REMARK    4  A    between atoms: C_12  and  C_13
REMARK                            x       y       z     vdW  Elec       q    Type
REMARK                         _______ _______ _______ _____ _____    ______ ____
ROOT
ATOM      1  C   UNL     1       3.877   3.709  18.145  0.00  0.00    +0.000 C 
ATOM      2  C   UNL     1       5.178   3.874  18.977  0.00  0.00    +0.000 C 
ATOM      3  C   UNL     1       6.070   5.004  18.521  0.00  0.00    +0.000 A 
ATOM      4  C   UNL     1       7.020   5.527  19.413  0.00  0.00    +0.000 A 
ATOM      5  C   UNL     1       7.892   6.542  19.017  0.00  0.00    +0.000 A 
ATOM      6  C   UNL     1       7.815   7.056  17.729  0.00  0.00    +0.000 A 
ATOM      7  C   UNL     1       6.878   6.543  16.833  0.00  0.00    +0.000 A 
ATOM      8  C   UNL     1       6.020   5.488  17.202  0.00  0.00    +0.000 A 
ATOM      9  C   UNL     1       5.037   4.913  16.184  0.00  0.00    +0.000 C 
ATOM     10  C   UNL     1       4.329   3.630  16.672  0.00  0.00    +0.000 C 
ENDROOT
BRANCH   9  11
ATOM     11  C   UNL     1       5.704   4.629  14.833  0.00  0.00    +0.000 A 
ATOM     12  C   UNL     1       5.057   3.828  13.871  0.00  0.00    +0.000 A 
ATOM     13  C   UNL     1       5.676   3.534  12.658  0.00  0.00    +0.000 A 
ATOM     14  C   UNL     1       6.946   4.032  12.401  0.00  0.00    +0.000 A 
ATOM     15  F   UNL     1       7.546   3.738  11.241  0.00  0.00    +0.000 F 
ATOM     16  C   UNL     1       7.607   4.821  13.336  0.00  0.00    +0.000 A 
ATOM     17  C   UNL     1       6.987   5.123  14.551  0.00  0.00    +0.000 A 
ENDBRANCH   9  11
BRANCH   1  19
ATOM     18  C   UNL     1       2.620   4.930  19.857  0.00  0.00    +0.000 C 
ATOM     19  N   UNL     1       2.836   4.740  18.414  0.00  0.00    +0.000 NA
ATOM     20  C   UNL     1       1.544   4.398  17.805  0.00  0.00    +0.000 C 
ENDBRANCH   1  19
TORSDOF 2
ENDMDL
MODEL 8
REMARK VINA RESULT:      -7.2      2.950      4.901
REMARK  Name = 
REMARK  4 active torsions:
REMARK  status: ('A' for Active; 'I' for Inactive)
REMARK    1  A    between atoms: C_1  and  N_2
REMARK    2  A    between atoms: N_2  and  C_3
REMARK    3  A    between atoms: N_2  and  C_4
REMARK    4  A    between atoms: C_12  and  C_13
REMARK                            x       y       z     vdW  Elec       q    Type
REMARK                         _______ _______ _______ _____ _____    ______ ____
ROOT
ATOM      1  C   UNL     1       5.536   5.239  14.540  0.00  0.00    +0.000 C 
ATOM      2  C   UNL     1       6.082   6.440  15.358  0.00  0.00    +0.000 C 
ATOM      3  C   UNL     1       6.544   6.086  16.752  0.00  0.00    +0.000 A 
ATOM      4  C   UNL     1       7.430   6.949  17.417  0.00  0.00    +0.000 A 
ATOM      5  C   UNL     1       7.848   6.680  18.720  0.00  0.00    +0.000 A 
ATOM      6  C   UNL     1       7.395   5.539  19.370  0.00  0.00    +0.000 A 
ATOM      7  C   UNL     1       6.512   4.677  18.722  0.00  0.00    +0.000 A 
ATOM      8  C   UNL     1       6.045   4.955  17.421  0.00  0.00    +0.000 A 
ATOM      9  C   UNL     1       5.041   4.018  16.755  0.00  0.00    +0.000 C 
ATOM     10  C   UNL     1       4.467   4.574  15.432  0.00  0.00    +0.000 C 
ENDROOT
BRANCH   9  11
ATOM     11  C   UNL     1       3.879   3.658  17.687  0.00  0.00    +0.000 A 
ATOM     12  C   UNL     1       2.938   4.637  18.068  0.00  0.00    +0.000 A 
ATOM     13  C   UNL     1       1.904   4.325  18.948  0.00  0.00    +0.000 A 
ATOM     14  C   UNL     1       1.805   3.036  19.456  0.00  0.00    +0.000 A 
ATOM     15  F   UNL     1       0.819   2.740  20.311  0.00  0.00    +0.000 F 
ATOM     16  C   UNL     1       2.722   2.055  19.099  0.00  0.00    +0.000 A 
ATOM     17  C   UNL     1       3.758   2.363  18.212  0.00  0.00    +0.000 A 
ENDBRANCH   9  11
BRANCH   1  19
ATOM     18  C   UNL     1       7.738   5.032  13.486  0.00  0.00    +0.000 C 
ATOM     19  N   UNL     1       6.583   4.306  14.037  0.00  0.00    +0.000 NA
ATOM     20  C   UNL     1       6.074   3.409  12.992  0.00  0.00    +0.000 C 
ENDBRANCH   1  19
TORSDOF 2
ENDMDL
MODEL 9
REMARK VINA RESULT:      -7.1      3.860      6.715
REMARK  Name = 
REMARK  4 active torsions:
REMARK  status: ('A' for Active; 'I' for Inactive)
REMARK    1  A    between atoms: C_1  and  N_2
REMARK    2  A    between atoms: N_2  and  C_3
REMARK    3  A    between atoms: N_2  and  C_4
REMARK    4  A    between atoms: C_12  and  C_13
REMARK                            x       y       z     vdW  Elec       q    Type
REMARK                         _______ _______ _______ _____ _____    ______ ____
ROOT
ATOM      1  C   UNL     1       3.876   3.708  18.164  0.00  0.00    +0.000 C 
ATOM      2  C   UNL     1       5.169   3.880  19.006  0.00  0.00    +0.000 C 
ATOM      3  C   UNL     1       6.070   5.000  18.542  0.00  0.00    +0.000 A 
ATOM      4  C   UNL     1       7.013   5.532  19.435  0.00  0.00    +0.000 A 
ATOM      5  C   UNL     1       7.893   6.538  19.032  0.00  0.00    +0.000 A 
ATOM      6  C   UNL     1       7.831   7.032  17.735  0.00  0.00    +0.000 A 
ATOM      7  C   UNL     1       6.901   6.509  16.838  0.00  0.00    +0.000 A 
ATOM      8  C   UNL     1       6.034   5.463  17.214  0.00  0.00    +0.000 A 
ATOM      9  C   UNL     1       5.060   4.876  16.196  0.00  0.00    +0.000 C 
ATOM     10  C   UNL     1       4.341   3.604  16.697  0.00  0.00    +0.000 C 
ENDROOT
BRANCH   9  11
ATOM     11  C   UNL     1       5.739   4.569  14.857  0.00  0.00    +0.000 A 
ATOM     12  C   UNL     1       7.015   5.092  14.565  0.00  0.00    +0.000 A 
ATOM     13  C   UNL     1       7.618   4.849  13.333  0.00  0.00    +0.000 A 
ATOM     14  C   UNL     1       6.951   4.087  12.384  0.00  0.00    +0.000 A 
ATOM     15  F   UNL     1       7.525   3.864  11.196  0.00  0.00    +0.000 F 
ATOM     16  C   UNL     1       5.690   3.562  12.646  0.00  0.00    +0.000 A 
ATOM     17  C   UNL     1       5.084   3.800  13.883  0.00  0.00    +0.000 A 
ENDBRANCH   9  11
BRANCH   1  19
ATOM     18  C   UNL     1       2.605   4.959  19.844  0.00  0.00    +0.000 C 
ATOM     19  N   UNL     1       2.836   4.746  18.407  0.00  0.00    +0.000 NA
ATOM     20  C   UNL     1       1.549   4.401  17.789  0.00  0.00    +0.000 C 
ENDBRANCH   1  19
TORSDOF 2
ENDMDL
