MODEL 1
REMARK VINA RESULT:      -7.4      0.000      0.000
REMARK  Name = 
REMARK  5 active torsions:
REMARK  status: ('A' for Active; 'I' for Inactive)
REMARK    1  A    between atoms: C_1  and  C_2
REMARK    2  A    between atoms: N_6  and  C_7
REMARK    3  A    between atoms: C_13  and  O_14
REMARK    4  A    between atoms: O_14  and  C_15
REMARK    5  A    between atoms: C_15  and  C_16
REMARK                            x       y       z     vdW  Elec       q    Type
REMARK                         _______ _______ _______ _____ _____    ______ ____
ROOT
ATOM      1  C   UNL     1       3.243   3.674  17.829  0.00  0.00    +0.000 A 
ATOM      2  N   UNL     1       3.572   2.489  18.398  0.00  0.00    +0.000 NA
ATOM      3  C   UNL     1       3.063   2.186  19.612  0.00  0.00    +0.000 A 
ATOM      4  C   UNL     1       2.218   3.020  20.319  0.00  0.00    +0.000 A 
ATOM      5 CL   UNL     1       1.579   2.539  21.836  0.00  0.00    +0.000 Cl
ATOM      6  C   UNL     1       1.896   4.248  19.758  0.00  0.00    +0.000 A 
ATOM      7  C   UNL     1       2.432   4.609  18.517  0.00  0.00    +0.000 A 
ENDROOT
BRANCH   1  13
ATOM      8  C   UNL     1       7.053   4.256  13.219  0.00  0.00    +0.000 C 
ATOM      9  C   UNL     1       6.571   4.448  14.608  0.00  0.00    +0.000 A 
ATOM     10  C   UNL     1       7.287   4.876  15.705  0.00  0.00    +0.000 A 
ATOM     11  S   UNL     1       6.260   4.973  17.074  0.00  0.00    +0.000 S 
ATOM     12  C   UNL     1       4.963   4.342  16.145  0.00  0.00    +0.000 A 
ATOM     13  N   UNL     1       3.729   3.978  16.549  0.00  0.00    +0.000 N 
ATOM     14  N   UNL     1       5.252   4.154  14.874  0.00  0.00    +0.000 NA
ATOM     15  H   UNL     1       3.412   3.293  15.885  0.00  0.00    +0.000 HD
ENDBRANCH   1  13
BRANCH   7  16
ATOM     16  O   UNL     1       2.009   5.853  18.108  0.00  0.00    +0.000 OA
BRANCH  16  17
ATOM     17  C   UNL     1       2.851   6.978  18.349  0.00  0.00    +0.000 C 
BRANCH  17  18
ATOM     18  C   UNL     1       2.046   8.134  18.881  0.00  0.00    +0.000 A 
ATOM     19  C   UNL     1       1.659   9.172  18.028  0.00  0.00    +0.000 A 
ATOM     20  C   UNL     1       0.849  10.201  18.504  0.00  0.00    +0.000 A 
ATOM     21  C   UNL     1       0.429  10.203  19.834  0.00  0.00    +0.000 A 
ATOM     22  C   UNL     1       0.824   9.181  20.695  0.00  0.00    +0.000 A 
ATOM     23  C   UNL     1       1.635   8.152  20.223  0.00  0.00    +0.000 A 
ENDBRANCH  17  18
ENDBRANCH  16  17
ENDBRANCH   7  16
TORSDOF 4
ENDMDL
MODEL 2
REMARK VINA RESULT:      -7.3      0.105      1.036
REMARK  Name = 
REMARK  5 active torsions:
REMARK  status: ('A' for Active; 'I' for Inactive)
REMARK    1  A    between atoms: C_1  and  C_2
REMARK    2  A    between atoms: N_6  and  C_7
REMARK    3  A    between atoms: C_13  and  O_14
REMARK    4  A    between atoms: O_14  and  C_15
REMARK    5  A    between atoms: C_15  and  C_16
REMARK                            x       y       z     vdW  Elec       q    Type
REMARK                         _______ _______ _______ _____ _____    ______ ____
ROOT
ATOM      1  C   UNL     1       3.287   3.749  17.831  0.00  0.00    +0.000 A 
ATOM      2  N   UNL     1       3.632   2.573  18.407  0.00  0.00    +0.000 NA
ATOM      3  C   UNL     1       3.124   2.268  19.621  0.00  0.00    +0.000 A 
ATOM      4  C   UNL     1       2.264   3.093  20.320  0.00  0.00    +0.000 A 
ATOM      5 CL   UNL     1       1.628   2.610  21.838  0.00  0.00    +0.000 Cl
ATOM      6  C   UNL     1       1.925   4.312  19.751  0.00  0.00    +0.000 A 
ATOM      7  C   UNL     1       2.459   4.676  18.510  0.00  0.00    +0.000 A 
ENDROOT
BRANCH   1  13
ATOM      8  C   UNL     1       7.080   4.277  13.199  0.00  0.00    +0.000 C 
ATOM      9  C   UNL     1       6.614   4.466  14.594  0.00  0.00    +0.000 A 
ATOM     10  C   UNL     1       7.349   4.861  15.690  0.00  0.00    +0.000 A 
ATOM     11  S   UNL     1       6.334   4.972  17.068  0.00  0.00    +0.000 S 
ATOM     12  C   UNL     1       5.013   4.388  16.142  0.00  0.00    +0.000 A 
ATOM     13  N   UNL     1       3.772   4.055  16.550  0.00  0.00    +0.000 N 
ATOM     14  N   UNL     1       5.288   4.207  14.866  0.00  0.00    +0.000 NA
ATOM     15  H   UNL     1       3.432   3.387  15.881  0.00  0.00    +0.000 HD
ENDBRANCH   1  13
BRANCH   7  16
ATOM     16  O   UNL     1       2.018   5.911  18.093  0.00  0.00    +0.000 OA
BRANCH  16  17
ATOM     17  C   UNL     1       2.836   7.051  18.343  0.00  0.00    +0.000 C 
BRANCH  17  18
ATOM     18  C   UNL     1       2.006   8.188  18.875  0.00  0.00    +0.000 A 
ATOM     19  C   UNL     1       1.583   8.188  20.208  0.00  0.00    +0.000 A 
ATOM     20  C   UNL     1       0.881   9.278  20.718  0.00  0.00    +0.000 A 
ATOM     21  C   UNL     1       0.592  10.370  19.899  0.00  0.00    +0.000 A 
ATOM     22  C   UNL     1       0.994  10.371  18.565  0.00  0.00    +0.000 A 
ATOM     23  C   UNL     1       1.694   9.282  18.051  0.00  0.00    +0.000 A 
ENDBRANCH  17  18
ENDBRANCH  16  17
ENDBRANCH   7  16
TORSDOF 4
ENDMDL
MODEL 3
REMARK VINA RESULT:      -7.3      2.931      6.106
REMARK  Name = 
REMARK  5 active torsions:
REMARK  status: ('A' for Active; 'I' for Inactive)
REMARK    1  A    between atoms: C_1  and  C_2
REMARK    2  A    between atoms: N_6  and  C_7
REMARK    3  A    between atoms: C_13  and  O_14
REMARK    4  A    between atoms: O_14  and  C_15
REMARK    5  A    between atoms: C_15  and  C_16
REMARK                            x       y       z     vdW  Elec       q    Type
REMARK                         _______ _______ _______ _____ _____    ______ ____
ROOT
ATOM      1  C   UNL     1       5.182   5.185  17.204  0.00  0.00    +0.000 A 
ATOM      2  N   UNL     1       6.320   5.765  16.752  0.00  0.00    +0.000 NA
ATOM      3  C   UNL     1       6.825   5.370  15.563  0.00  0.00    +0.000 A 
ATOM      4  C   UNL     1       6.245   4.399  14.769  0.00  0.00    +0.000 A 
ATOM      5 CL   UNL     1       6.926   3.988  13.250  0.00  0.00    +0.000 Cl
ATOM      6  C   UNL     1       5.095   3.779  15.235  0.00  0.00    +0.000 A 
ATOM      7  C   UNL     1       4.563   4.139  16.478  0.00  0.00    +0.000 A 
ENDROOT
BRANCH   1  13
ATOM      8  C   UNL     1       1.209   7.420  21.119  0.00  0.00    +0.000 C 
ATOM      9  C   UNL     1       2.040   7.413  19.892  0.00  0.00    +0.000 A 
ATOM     10  C   UNL     1       1.930   8.225  18.784  0.00  0.00    +0.000 A 
ATOM     11  S   UNL     1       3.161   7.844  17.653  0.00  0.00    +0.000 S 
ATOM     12  C   UNL     1       3.690   6.561  18.660  0.00  0.00    +0.000 A 
ATOM     13  N   UNL     1       4.624   5.620  18.416  0.00  0.00    +0.000 N 
ATOM     14  N   UNL     1       3.048   6.477  19.808  0.00  0.00    +0.000 NA
ATOM     15  H   UNL     1       4.379   4.832  18.989  0.00  0.00    +0.000 HD
ENDBRANCH   1  13
BRANCH   7  16
ATOM     16  O   UNL     1       3.423   3.430  16.784  0.00  0.00    +0.000 OA
BRANCH  16  17
ATOM     17  C   UNL     1       3.505   2.378  17.741  0.00  0.00    +0.000 C 
BRANCH  17  18
ATOM     18  C   UNL     1       2.776   2.755  19.003  0.00  0.00    +0.000 A 
ATOM     19  C   UNL     1       1.490   3.299  18.936  0.00  0.00    +0.000 A 
ATOM     20  C   UNL     1       0.786   3.574  20.107  0.00  0.00    +0.000 A 
ATOM     21  C   UNL     1       1.367   3.315  21.349  0.00  0.00    +0.000 A 
ATOM     22  C   UNL     1       2.655   2.790  21.425  0.00  0.00    +0.000 A 
ATOM     23  C   UNL     1       3.361   2.515  20.257  0.00  0.00    +0.000 A 
ENDBRANCH  17  18
ENDBRANCH  16  17
ENDBRANCH   7  16
TORSDOF 4
ENDMDL
MODEL 4
REMARK VINA RESULT:      -7.3      4.013      7.116
REMARK  Name = 
REMARK  5 active torsions:
REMARK  status: ('A' for Active; 'I' for Inactive)
REMARK    1  A    between atoms: C_1  and  C_2
REMARK    2  A    between atoms: N_6  and  C_7
REMARK    3  A    between atoms: C_13  and  O_14
REMARK    4  A    between atoms: O_14  and  C_15
REMARK    5  A    between atoms: C_15  and  C_16
REMARK                            x       y       z     vdW  Elec       q    Type
REMARK                         _______ _______ _______ _____ _____    ______ ____
ROOT
ATOM      1  C   UNL     1       6.058   4.844  18.659  0.00  0.00    +0.000 A 
ATOM      2  N   UNL     1       6.926   5.143  19.655  0.00  0.00    +0.000 NA
ATOM      3  C   UNL     1       7.737   6.214  19.512  0.00  0.00    +0.000 A 
ATOM      4  C   UNL     1       7.738   7.032  18.398  0.00  0.00    +0.000 A 
ATOM      5 CL   UNL     1       8.769   8.399  18.316  0.00  0.00    +0.000 Cl
ATOM      6  C   UNL     1       6.872   6.718  17.360  0.00  0.00    +0.000 A 
ATOM      7  C   UNL     1       6.041   5.597  17.459  0.00  0.00    +0.000 A 
ENDROOT
BRANCH   1  13
ATOM      8  C   UNL     1       0.944   1.694  18.839  0.00  0.00    +0.000 C 
ATOM      9  C   UNL     1       1.859   2.807  19.186  0.00  0.00    +0.000 A 
ATOM     10  C   UNL     1       1.551   4.003  19.797  0.00  0.00    +0.000 A 
ATOM     11  S   UNL     1       2.975   4.933  20.017  0.00  0.00    +0.000 S 
ATOM     12  C   UNL     1       3.885   3.734  19.194  0.00  0.00    +0.000 A 
ATOM     13  N   UNL     1       5.179   3.761  18.817  0.00  0.00    +0.000 N 
ATOM     14  N   UNL     1       3.189   2.668  18.856  0.00  0.00    +0.000 NA
ATOM     15  H   UNL     1       5.251   3.138  18.032  0.00  0.00    +0.000 HD
ENDBRANCH   1  13
BRANCH   7  16
ATOM     16  O   UNL     1       5.248   5.434  16.347  0.00  0.00    +0.000 OA
BRANCH  16  17
ATOM     17  C   UNL     1       5.224   4.164  15.701  0.00  0.00    +0.000 C 
BRANCH  17  18
ATOM     18  C   UNL     1       5.905   4.240  14.361  0.00  0.00    +0.000 A 
ATOM     19  C   UNL     1       7.054   5.020  14.200  0.00  0.00    +0.000 A 
ATOM     20  C   UNL     1       7.728   5.027  12.980  0.00  0.00    +0.000 A 
ATOM     21  C   UNL     1       7.253   4.263  11.914  0.00  0.00    +0.000 A 
ATOM     22  C   UNL     1       6.098   3.496  12.060  0.00  0.00    +0.000 A 
ATOM     23  C   UNL     1       5.422   3.488  13.278  0.00  0.00    +0.000 A 
ENDBRANCH  17  18
ENDBRANCH  16  17
ENDBRANCH   7  16
TORSDOF 4
ENDMDL
MODEL 5
REMARK VINA RESULT:      -7.3      2.913      6.148
REMARK  Name = 
REMARK  5 active torsions:
REMARK  status: ('A' for Active; 'I' for Inactive)
REMARK    1  A    between atoms: C_1  and  C_2
REMARK    2  A    between atoms: N_6  and  C_7
REMARK    3  A    between atoms: C_13  and  O_14
REMARK    4  A    between atoms: O_14  and  C_15
REMARK    5  A    between atoms: C_15  and  C_16
REMARK                            x       y       z     vdW  Elec       q    Type
REMARK                         _______ _______ _______ _____ _____    ______ ____
ROOT
ATOM      1  C   UNL     1       5.138   5.194  17.319  0.00  0.00    +0.000 A 
ATOM      2  N   UNL     1       6.324   5.713  16.921  0.00  0.00    +0.000 NA
ATOM      3  C   UNL     1       6.846   5.315  15.740  0.00  0.00    +0.000 A 
ATOM      4  C   UNL     1       6.237   4.399  14.903  0.00  0.00    +0.000 A 
ATOM      5 CL   UNL     1       6.945   3.982  13.399  0.00  0.00    +0.000 Cl
ATOM      6  C   UNL     1       5.035   3.841  15.314  0.00  0.00    +0.000 A 
ATOM      7  C   UNL     1       4.482   4.205  16.547  0.00  0.00    +0.000 A 
ENDROOT
BRANCH   1  13
ATOM      8  C   UNL     1       1.120   7.462  21.170  0.00  0.00    +0.000 C 
ATOM      9  C   UNL     1       1.970   7.446  19.955  0.00  0.00    +0.000 A 
ATOM     10  C   UNL     1       1.880   8.257  18.844  0.00  0.00    +0.000 A 
ATOM     11  S   UNL     1       3.125   7.866  17.732  0.00  0.00    +0.000 S 
ATOM     12  C   UNL     1       3.632   6.582  18.750  0.00  0.00    +0.000 A 
ATOM     13  N   UNL     1       4.565   5.636  18.522  0.00  0.00    +0.000 N 
ATOM     14  N   UNL     1       2.973   6.505  19.888  0.00  0.00    +0.000 NA
ATOM     15  H   UNL     1       4.306   4.850  19.092  0.00  0.00    +0.000 HD
ENDBRANCH   1  13
BRANCH   7  16
ATOM     16  O   UNL     1       3.291   3.562  16.795  0.00  0.00    +0.000 OA
BRANCH  16  17
ATOM     17  C   UNL     1       3.297   2.406  17.629  0.00  0.00    +0.000 C 
BRANCH  17  18
ATOM     18  C   UNL     1       2.622   2.700  18.942  0.00  0.00    +0.000 A 
ATOM     19  C   UNL     1       3.288   2.451  20.146  0.00  0.00    +0.000 A 
ATOM     20  C   UNL     1       2.693   2.796  21.358  0.00  0.00    +0.000 A 
ATOM     21  C   UNL     1       1.428   3.384  21.374  0.00  0.00    +0.000 A 
ATOM     22  C   UNL     1       0.749   3.619  20.179  0.00  0.00    +0.000 A 
ATOM     23  C   UNL     1       1.341   3.274  18.967  0.00  0.00    +0.000 A 
ENDBRANCH  17  18
ENDBRANCH  16  17
ENDBRANCH   7  16
TORSDOF 4
ENDMDL
MODEL 6
REMARK VINA RESULT:      -7.2      4.005      7.124
REMARK  Name = 
REMARK  5 active torsions:
REMARK  status: ('A' for Active; 'I' for Inactive)
REMARK    1  A    between atoms: C_1  and  C_2
REMARK    2  A    between atoms: N_6  and  C_7
REMARK    3  A    between atoms: C_13  and  O_14
REMARK    4  A    between atoms: O_14  and  C_15
REMARK    5  A    between atoms: C_15  and  C_16
REMARK                            x       y       z     vdW  Elec       q    Type
REMARK                         _______ _______ _______ _____ _____    ______ ____
ROOT
ATOM      1  C   UNL     1       6.048   4.839  18.652  0.00  0.00    +0.000 A 
ATOM      2  N   UNL     1       6.894   5.150  19.663  0.00  0.00    +0.000 NA
ATOM      3  C   UNL     1       7.713   6.215  19.522  0.00  0.00    +0.000 A 
ATOM      4  C   UNL     1       7.743   7.015  18.396  0.00  0.00    +0.000 A 
ATOM      5 CL   UNL     1       8.783   8.376  18.316  0.00  0.00    +0.000 Cl
ATOM      6  C   UNL     1       6.900   6.689  17.343  0.00  0.00    +0.000 A 
ATOM      7  C   UNL     1       6.061   5.573  17.441  0.00  0.00    +0.000 A 
ENDROOT
BRANCH   1  13
ATOM      8  C   UNL     1       0.907   1.732  18.835  0.00  0.00    +0.000 C 
ATOM      9  C   UNL     1       1.834   2.835  19.185  0.00  0.00    +0.000 A 
ATOM     10  C   UNL     1       1.538   4.029  19.805  0.00  0.00    +0.000 A 
ATOM     11  S   UNL     1       2.971   4.946  20.024  0.00  0.00    +0.000 S 
ATOM     12  C   UNL     1       3.867   3.744  19.190  0.00  0.00    +0.000 A 
ATOM     13  N   UNL     1       5.160   3.763  18.807  0.00  0.00    +0.000 N 
ATOM     14  N   UNL     1       3.161   2.686  18.848  0.00  0.00    +0.000 NA
ATOM     15  H   UNL     1       5.223   3.144  18.019  0.00  0.00    +0.000 HD
ENDBRANCH   1  13
BRANCH   7  16
ATOM     16  O   UNL     1       5.293   5.396  16.314  0.00  0.00    +0.000 OA
BRANCH  16  17
ATOM     17  C   UNL     1       5.274   4.115  15.690  0.00  0.00    +0.000 C 
BRANCH  17  18
ATOM     18  C   UNL     1       5.991   4.161  14.368  0.00  0.00    +0.000 A 
ATOM     19  C   UNL     1       5.515   3.418  13.283  0.00  0.00    +0.000 A 
ATOM     20  C   UNL     1       6.135   3.523  12.039  0.00  0.00    +0.000 A 
ATOM     21  C   UNL     1       7.235   4.364  11.874  0.00  0.00    +0.000 A 
ATOM     22  C   UNL     1       7.727   5.095  12.954  0.00  0.00    +0.000 A 
ATOM     23  C   UNL     1       7.111   4.991  14.199  0.00  0.00    +0.000 A 
ENDBRANCH  17  18
ENDBRANCH  16  17
ENDBRANCH   7  16
TORSDOF 4
ENDMDL
MODEL 7
REMARK VINA RESULT:      -7.2      2.748      6.119
REMARK  Name = 
REMARK  5 active torsions:
REMARK  status: ('A' for Active; 'I' for Inactive)
REMARK    1  A    between atoms: C_1  and  C_2
REMARK    2  A    between atoms: N_6  and  C_7
REMARK    3  A    between atoms: C_13  and  O_14
REMARK    4  A    between atoms: O_14  and  C_15
REMARK    5  A    between atoms: C_15  and  C_16
REMARK                            x       y       z     vdW  Elec       q    Type
REMARK                         _______ _______ _______ _____ _____    ______ ____
ROOT
ATOM      1  C   UNL     1       2.702   5.206  19.932  0.00  0.00    +0.000 A 
ATOM      2  N   UNL     1       1.729   4.272  19.804  0.00  0.00    +0.000 NA
ATOM      3  C   UNL     1       2.068   3.033  19.387  0.00  0.00    +0.000 A 
ATOM      4  C   UNL     1       3.360   2.654  19.078  0.00  0.00    +0.000 A 
ATOM      5 CL   UNL     1       3.711   1.046  18.599  0.00  0.00    +0.000 Cl
ATOM      6  C   UNL     1       4.360   3.611  19.180  0.00  0.00    +0.000 A 
ATOM      7  C   UNL     1       4.042   4.914  19.576  0.00  0.00    +0.000 A 
ENDROOT
BRANCH   1  13
ATOM      8  C   UNL     1       0.204  10.665  20.204  0.00  0.00    +0.000 C 
ATOM      9  C   UNL     1       0.994   9.568  19.595  0.00  0.00    +0.000 A 
ATOM     10  C   UNL     1       1.397   9.437  18.284  0.00  0.00    +0.000 A 
ATOM     11  S   UNL     1       2.328   8.009  18.097  0.00  0.00    +0.000 S 
ATOM     12  C   UNL     1       2.043   7.609  19.741  0.00  0.00    +0.000 A 
ATOM     13  N   UNL     1       2.369   6.484  20.409  0.00  0.00    +0.000 N 
ATOM     14  N   UNL     1       1.373   8.525  20.410  0.00  0.00    +0.000 NA
ATOM     15  H   UNL     1       1.711   6.411  21.165  0.00  0.00    +0.000 HD
ENDBRANCH   1  13
BRANCH   7  16
ATOM     16  O   UNL     1       5.148   5.731  19.626  0.00  0.00    +0.000 OA
BRANCH  16  17
ATOM     17  C   UNL     1       6.357   5.286  19.017  0.00  0.00    +0.000 C 
BRANCH  17  18
ATOM     18  C   UNL     1       6.242   5.336  17.518  0.00  0.00    +0.000 A 
ATOM     19  C   UNL     1       6.901   4.387  16.729  0.00  0.00    +0.000 A 
ATOM     20  C   UNL     1       6.730   4.388  15.346  0.00  0.00    +0.000 A 
ATOM     21  C   UNL     1       5.907   5.340  14.744  0.00  0.00    +0.000 A 
ATOM     22  C   UNL     1       5.261   6.300  15.520  0.00  0.00    +0.000 A 
ATOM     23  C   UNL     1       5.431   6.303  16.902  0.00  0.00    +0.000 A 
ENDBRANCH  17  18
ENDBRANCH  16  17
ENDBRANCH   7  16
TORSDOF 4
ENDMDL
MODEL 8
REMARK VINA RESULT:      -7.2      0.841      1.345
REMARK  Name = 
REMARK  5 active torsions:
REMARK  status: ('A' for Active; 'I' for Inactive)
REMARK    1  A    between atoms: C_1  and  C_2
REMARK    2  A    between atoms: N_6  and  C_7
REMARK    3  A    between atoms: C_13  and  O_14
REMARK    4  A    between atoms: O_14  and  C_15
REMARK    5  A    between atoms: C_15  and  C_16
REMARK                            x       y       z     vdW  Elec       q    Type
REMARK                         _______ _______ _______ _____ _____    ______ ____
ROOT
ATOM      1  C   UNL     1       3.073   3.933  18.398  0.00  0.00    +0.000 A 
ATOM      2  N   UNL     1       2.881   2.602  18.563  0.00  0.00    +0.000 NA
ATOM      3  C   UNL     1       2.303   2.165  19.703  0.00  0.00    +0.000 A 
ATOM      4  C   UNL     1       1.891   3.000  20.724  0.00  0.00    +0.000 A 
ATOM      5 CL   UNL     1       1.124   2.366  22.120  0.00  0.00    +0.000 Cl
ATOM      6  C   UNL     1       2.108   4.363  20.576  0.00  0.00    +0.000 A 
ATOM      7  C   UNL     1       2.735   4.849  19.423  0.00  0.00    +0.000 A 
ENDROOT
BRANCH   1  13
ATOM      8  C   UNL     1       6.989   4.708  13.905  0.00  0.00    +0.000 C 
ATOM      9  C   UNL     1       6.537   4.688  15.317  0.00  0.00    +0.000 A 
ATOM     10  C   UNL     1       7.310   4.712  16.458  0.00  0.00    +0.000 A 
ATOM     11  S   UNL     1       6.304   4.719  17.847  0.00  0.00    +0.000 S 
ATOM     12  C   UNL     1       4.919   4.584  16.845  0.00  0.00    +0.000 A 
ATOM     13  N   UNL     1       3.630   4.402  17.198  0.00  0.00    +0.000 N 
ATOM     14  N   UNL     1       5.182   4.621  15.554  0.00  0.00    +0.000 NA
ATOM     15  H   UNL     1       3.189   3.956  16.413  0.00  0.00    +0.000 HD
ENDBRANCH   1  13
BRANCH   7  16
ATOM     16  O   UNL     1       2.869   6.218  19.439  0.00  0.00    +0.000 OA
BRANCH  16  17
ATOM     17  C   UNL     1       2.087   6.974  20.361  0.00  0.00    +0.000 C 
BRANCH  17  18
ATOM     18  C   UNL     1       1.646   8.272  19.740  0.00  0.00    +0.000 A 
ATOM     19  C   UNL     1       0.904   9.192  20.486  0.00  0.00    +0.000 A 
ATOM     20  C   UNL     1       0.564  10.426  19.934  0.00  0.00    +0.000 A 
ATOM     21  C   UNL     1       0.956  10.742  18.633  0.00  0.00    +0.000 A 
ATOM     22  C   UNL     1       1.681   9.824  17.876  0.00  0.00    +0.000 A 
ATOM     23  C   UNL     1       2.021   8.590  18.424  0.00  0.00    +0.000 A 
ENDBRANCH  17  18
ENDBRANCH  16  17
ENDBRANCH   7  16
TORSDOF 4
ENDMDL
MODEL 9
REMARK VINA RESULT:      -7.1      0.914      1.158
REMARK  Name = 
REMARK  5 active torsions:
REMARK  status: ('A' for Active; 'I' for Inactive)
REMARK    1  A    between atoms: C_1  and  C_2
REMARK    2  A    between atoms: N_6  and  C_7
REMARK    3  A    between atoms: C_13  and  O_14
REMARK    4  A    between atoms: O_14  and  C_15
REMARK    5  A    between atoms: C_15  and  C_16
REMARK                            x       y       z     vdW  Elec       q    Type
REMARK                         _______ _______ _______ _____ _____    ______ ____
ROOT
ATOM      1  C   UNL     1       3.027   3.968  18.550  0.00  0.00    +0.000 A 
ATOM      2  N   UNL     1       2.825   2.635  18.682  0.00  0.00    +0.000 NA
ATOM      3  C   UNL     1       2.239   2.174  19.808  0.00  0.00    +0.000 A 
ATOM      4  C   UNL     1       1.828   2.987  20.847  0.00  0.00    +0.000 A 
ATOM      5 CL   UNL     1       1.049   2.325  22.223  0.00  0.00    +0.000 Cl
ATOM      6  C   UNL     1       2.054   4.352  20.733  0.00  0.00    +0.000 A 
ATOM      7  C   UNL     1       2.690   4.861  19.595  0.00  0.00    +0.000 A 
ENDROOT
BRANCH   1  13
ATOM      8  C   UNL     1       6.946   4.784  14.067  0.00  0.00    +0.000 C 
ATOM      9  C   UNL     1       6.499   4.728  15.480  0.00  0.00    +0.000 A 
ATOM     10  C   UNL     1       7.277   4.689  16.617  0.00  0.00    +0.000 A 
ATOM     11  S   UNL     1       6.278   4.677  18.010  0.00  0.00    +0.000 S 
ATOM     12  C   UNL     1       4.885   4.618  17.011  0.00  0.00    +0.000 A 
ATOM     13  N   UNL     1       3.593   4.462  17.364  0.00  0.00    +0.000 N 
ATOM     14  N   UNL     1       5.144   4.692  15.721  0.00  0.00    +0.000 NA
ATOM     15  H   UNL     1       3.135   4.057  16.566  0.00  0.00    +0.000 HD
ENDBRANCH   1  13
BRANCH   7  16
ATOM     16  O   UNL     1       2.832   6.229  19.645  0.00  0.00    +0.000 OA
BRANCH  16  17
ATOM     17  C   UNL     1       1.939   6.983  20.460  0.00  0.00    +0.000 C 
BRANCH  17  18
ATOM     18  C   UNL     1       1.633   8.310  19.819  0.00  0.00    +0.000 A 
ATOM     19  C   UNL     1       1.999   8.551  18.491  0.00  0.00    +0.000 A 
ATOM     20  C   UNL     1       1.646   9.751  17.877  0.00  0.00    +0.000 A 
ATOM     21  C   UNL     1       0.934  10.718  18.587  0.00  0.00    +0.000 A 
ATOM     22  C   UNL     1       0.581  10.493  19.916  0.00  0.00    +0.000 A 
ATOM     23  C   UNL     1       0.933   9.296  20.534  0.00  0.00    +0.000 A 
ENDBRANCH  17  18
ENDBRANCH  16  17
ENDBRANCH   7  16
TORSDOF 4
ENDMDL
