MODEL 1
REMARK VINA RESULT:      -7.9      0.000      0.000
REMARK  Name = 
REMARK  12 active torsions:
REMARK  status: ('A' for Active; 'I' for Inactive)
REMARK    1  A    between atoms: C_1  and  C_2
REMARK    2  A    between atoms: C_2  and  C_3
REMARK    3  A    between atoms: C_3  and  C_4
REMARK    4  A    between atoms: C_3  and  C_6
REMARK    5  A    between atoms: C_4  and  C_5
REMARK    6  A    between atoms: C_6  and  N_7
REMARK    7  A    between atoms: C_10  and  C_11
REMARK    8  A    between atoms: C_11  and  N_12
REMARK    9  A    between atoms: C_13  and  C_15
REMARK   10  A    between atoms: C_26  and  C_27
REMARK   11  A    between atoms: C_27  and  C_28
REMARK   12  A    between atoms: C_28  and  N_29
REMARK                            x       y       z     vdW  Elec       q    Type
REMARK                         _______ _______ _______ _____ _____    ______ ____
ROOT
ATOM      1  N   UNL     1       1.071  14.885  19.958  0.00  0.00    +0.000 N 
ATOM      2  C   UNL     1       2.212  14.477  19.149  0.00  0.00    +0.000 C 
ATOM      3  C   UNL     1       1.980  13.251  18.272  0.00  0.00    +0.000 C 
ATOM      4  C   UNL     1       1.946  11.910  19.021  0.00  0.00    +0.000 C 
ATOM      5  N   UNL     1       0.815  11.639  19.917  0.00  0.00    +0.000 NA
ATOM      6  C   UNL     1       0.002  12.718  20.491  0.00  0.00    +0.000 C 
ATOM      7  C   UNL     1       0.785  13.950  20.971  0.00  0.00    +0.000 C 
ATOM      8  O   UNL     1       1.080  14.121  22.153  0.00  0.00    +0.000 OA
ATOM      9  H   UNL     1       1.152  11.035  20.672  0.00  0.00    +0.000 HD
ENDROOT
BRANCH   1  10
ATOM     10  C   UNL     1       1.052  16.297  20.360  0.00  0.00    +0.000 C 
BRANCH  10  11
ATOM     11  C   UNL     1       0.382  17.309  19.378  0.00  0.00    +0.000 C 
BRANCH  11  13
ATOM     12  C   UNL     1       0.826  18.310  16.962  0.00  0.00    +0.000 C 
ATOM     13  C   UNL     1       1.357  17.934  18.342  0.00  0.00    +0.000 C 
ENDBRANCH  11  13
BRANCH  11  14
ATOM     14  C   UNL     1      -0.959  16.884  18.730  0.00  0.00    +0.000 C 
ATOM     15  C   UNL     1      -2.198  17.720  19.060  0.00  0.00    +0.000 C 
ENDBRANCH  11  14
ENDBRANCH  10  11
ENDBRANCH   1  10
BRANCH   4  16
ATOM     16  C   UNL     1       1.949  10.751  17.981  0.00  0.00    +0.000 C 
BRANCH  16  17
ATOM     17  N   UNL     1       1.777   9.431  18.559  0.00  0.00    +0.000 N 
ATOM     18  C   UNL     1       2.431   8.332  18.050  0.00  0.00    +0.000 C 
ATOM     19  O   UNL     1       3.160   8.389  17.069  0.00  0.00    +0.000 OA
ATOM     20  H   UNL     1       1.056   9.312  19.254  0.00  0.00    +0.000 HD
BRANCH  18  21
ATOM     21  C   UNL     1       2.182   7.031  18.742  0.00  0.00    +0.000 A 
ATOM     22  C   UNL     1       1.919   6.943  20.113  0.00  0.00    +0.000 A 
ATOM     23  C   UNL     1       1.704   5.694  20.712  0.00  0.00    +0.000 A 
ATOM     24  C   UNL     1       1.771   4.519  19.954  0.00  0.00    +0.000 A 
ATOM     25  C   UNL     1       1.580   3.256  20.538  0.00  0.00    +0.000 A 
ATOM     26  C   UNL     1       1.683   2.095  19.766  0.00  0.00    +0.000 A 
ATOM     27  C   UNL     1       1.943   2.186  18.397  0.00  0.00    +0.000 A 
ATOM     28  C   UNL     1       2.128   3.429  17.807  0.00  0.00    +0.000 A 
ATOM     29  C   UNL     1       2.046   4.596  18.571  0.00  0.00    +0.000 A 
ATOM     30  C   UNL     1       2.255   5.866  17.979  0.00  0.00    +0.000 A 
ENDBRANCH  18  21
ENDBRANCH  16  17
ENDBRANCH   4  16
BRANCH   6  31
ATOM     31  C   UNL     1      -1.173  13.178  19.614  0.00  0.00    +0.000 C 
BRANCH  31  32
ATOM     32  C   UNL     1      -2.537  12.596  19.972  0.00  0.00    +0.000 C 
BRANCH  32  33
ATOM     33  N   UNL     1      -2.966  11.679  18.881  0.00  0.00    +0.000 NA
ATOM     34  C   UNL     1      -4.375  11.908  18.550  0.00  0.00    +0.000 C 
ATOM     35  C   UNL     1      -4.915  11.252  17.281  0.00  0.00    +0.000 C 
ATOM     36  C   UNL     1      -3.940  11.079  16.131  0.00  0.00    +0.000 C 
ATOM     37  C   UNL     1      -2.481  10.941  16.529  0.00  0.00    +0.000 C 
ATOM     38  C   UNL     1      -2.053  11.759  17.745  0.00  0.00    +0.000 C 
ENDBRANCH  32  33
ENDBRANCH  31  32
ENDBRANCH   6  31
TORSDOF 10
ENDMDL
MODEL 2
REMARK VINA RESULT:      -7.8      3.547     11.064
REMARK  Name = 
REMARK  12 active torsions:
REMARK  status: ('A' for Active; 'I' for Inactive)
REMARK    1  A    between atoms: C_1  and  C_2
REMARK    2  A    between atoms: C_2  and  C_3
REMARK    3  A    between atoms: C_3  and  C_4
REMARK    4  A    between atoms: C_3  and  C_6
REMARK    5  A    between atoms: C_4  and  C_5
REMARK    6  A    between atoms: C_6  and  N_7
REMARK    7  A    between atoms: C_10  and  C_11
REMARK    8  A    between atoms: C_11  and  N_12
REMARK    9  A    between atoms: C_13  and  C_15
REMARK   10  A    between atoms: C_26  and  C_27
REMARK   11  A    between atoms: C_27  and  C_28
REMARK   12  A    between atoms: C_28  and  N_29
REMARK                            x       y       z     vdW  Elec       q    Type
REMARK                         _______ _______ _______ _____ _____    ______ ____
ROOT
ATOM      1  N   UNL     1       4.147   4.654  19.202  0.00  0.00    +0.000 N 
ATOM      2  C   UNL     1       3.016   5.394  19.746  0.00  0.00    +0.000 C 
ATOM      3  C   UNL     1       2.277   6.277  18.746  0.00  0.00    +0.000 C 
ATOM      4  C   UNL     1       3.012   7.564  18.344  0.00  0.00    +0.000 C 
ATOM      5  N   UNL     1       4.230   7.449  17.533  0.00  0.00    +0.000 NA
ATOM      6  C   UNL     1       5.024   6.215  17.494  0.00  0.00    +0.000 C 
ATOM      7  C   UNL     1       5.209   5.507  18.846  0.00  0.00    +0.000 C 
ATOM      8  O   UNL     1       6.229   5.637  19.521  0.00  0.00    +0.000 OA
ATOM      9  H   UNL     1       4.842   8.234  17.773  0.00  0.00    +0.000 HD
ENDROOT
BRANCH   1  10
ATOM     10  C   UNL     1       4.516   3.435  19.932  0.00  0.00    +0.000 C 
BRANCH  10  11
ATOM     11  C   UNL     1       3.390   2.383  20.178  0.00  0.00    +0.000 C 
BRANCH  11  13
ATOM     12  C   UNL     1       1.193   2.812  21.602  0.00  0.00    +0.000 C 
ATOM     13  C   UNL     1       2.688   2.510  21.558  0.00  0.00    +0.000 C 
ENDBRANCH  11  13
BRANCH  11  14
ATOM     14  C   UNL     1       2.375   2.150  19.031  0.00  0.00    +0.000 C 
ATOM     15  C   UNL     1       2.935   2.002  17.614  0.00  0.00    +0.000 C 
ENDBRANCH  11  14
ENDBRANCH  10  11
ENDBRANCH   1  10
BRANCH   4  16
ATOM     16  C   UNL     1       2.041   8.465  17.524  0.00  0.00    +0.000 C 
BRANCH  16  17
ATOM     17  N   UNL     1       2.101   9.873  17.869  0.00  0.00    +0.000 N 
ATOM     18  C   UNL     1       1.213  10.435  18.758  0.00  0.00    +0.000 C 
ATOM     19  O   UNL     1       0.306   9.800  19.280  0.00  0.00    +0.000 OA
ATOM     20  H   UNL     1       2.718  10.464  17.332  0.00  0.00    +0.000 HD
BRANCH  18  21
ATOM     21  C   UNL     1       1.387  11.892  19.041  0.00  0.00    +0.000 A 
ATOM     22  C   UNL     1       0.643  12.566  20.015  0.00  0.00    +0.000 A 
ATOM     23  C   UNL     1       0.840  13.938  20.230  0.00  0.00    +0.000 A 
ATOM     24  C   UNL     1       1.764  14.654  19.462  0.00  0.00    +0.000 A 
ATOM     25  C   UNL     1       1.962  16.032  19.645  0.00  0.00    +0.000 A 
ATOM     26  C   UNL     1       2.869  16.732  18.843  0.00  0.00    +0.000 A 
ATOM     27  C   UNL     1       3.611  16.056  17.873  0.00  0.00    +0.000 A 
ATOM     28  C   UNL     1       3.429  14.692  17.685  0.00  0.00    +0.000 A 
ATOM     29  C   UNL     1       2.513  13.985  18.468  0.00  0.00    +0.000 A 
ATOM     30  C   UNL     1       2.307  12.598  18.267  0.00  0.00    +0.000 A 
ENDBRANCH  18  21
ENDBRANCH  16  17
ENDBRANCH   4  16
BRANCH   6  31
ATOM     31  C   UNL     1       4.571   5.188  16.445  0.00  0.00    +0.000 C 
BRANCH  31  32
ATOM     32  C   UNL     1       5.653   4.247  15.925  0.00  0.00    +0.000 C 
BRANCH  32  33
ATOM     33  N   UNL     1       5.874   4.525  14.479  0.00  0.00    +0.000 NA
ATOM     34  C   UNL     1       7.231   5.032  14.260  0.00  0.00    +0.000 C 
ATOM     35  C   UNL     1       7.725   5.118  12.819  0.00  0.00    +0.000 C 
ATOM     36  C   UNL     1       7.198   4.075  11.850  0.00  0.00    +0.000 C 
ATOM     37  C   UNL     1       5.826   3.515  12.179  0.00  0.00    +0.000 C 
ATOM     38  C   UNL     1       5.519   3.365  13.667  0.00  0.00    +0.000 C 
ENDBRANCH  32  33
ENDBRANCH  31  32
ENDBRANCH   6  31
TORSDOF 10
ENDMDL
MODEL 3
REMARK VINA RESULT:      -7.8      7.641     11.564
REMARK  Name = 
REMARK  12 active torsions:
REMARK  status: ('A' for Active; 'I' for Inactive)
REMARK    1  A    between atoms: C_1  and  C_2
REMARK    2  A    between atoms: C_2  and  C_3
REMARK    3  A    between atoms: C_3  and  C_4
REMARK    4  A    between atoms: C_3  and  C_6
REMARK    5  A    between atoms: C_4  and  C_5
REMARK    6  A    between atoms: C_6  and  N_7
REMARK    7  A    between atoms: C_10  and  C_11
REMARK    8  A    between atoms: C_11  and  N_12
REMARK    9  A    between atoms: C_13  and  C_15
REMARK   10  A    between atoms: C_26  and  C_27
REMARK   11  A    between atoms: C_27  and  C_28
REMARK   12  A    between atoms: C_28  and  N_29
REMARK                            x       y       z     vdW  Elec       q    Type
REMARK                         _______ _______ _______ _____ _____    ______ ____
ROOT
ATOM      1  N   UNL     1       5.726   4.798  15.330  0.00  0.00    +0.000 N 
ATOM      2  C   UNL     1       7.156   4.775  15.610  0.00  0.00    +0.000 C 
ATOM      3  C   UNL     1       7.533   4.971  17.074  0.00  0.00    +0.000 C 
ATOM      4  C   UNL     1       7.386   6.407  17.599  0.00  0.00    +0.000 C 
ATOM      5  N   UNL     1       6.035   6.964  17.743  0.00  0.00    +0.000 NA
ATOM      6  C   UNL     1       4.892   6.432  16.991  0.00  0.00    +0.000 C 
ATOM      7  C   UNL     1       5.175   6.080  15.521  0.00  0.00    +0.000 C 
ATOM      8  O   UNL     1       4.887   6.839  14.596  0.00  0.00    +0.000 OA
ATOM      9  H   UNL     1       6.095   7.975  17.592  0.00  0.00    +0.000 HD
ENDROOT
BRANCH   1  10
ATOM     10  C   UNL     1       5.307   4.093  14.113  0.00  0.00    +0.000 C 
BRANCH  10  11
ATOM     11  C   UNL     1       6.415   3.764  13.063  0.00  0.00    +0.000 C 
BRANCH  11  13
ATOM     12  C   UNL     1       4.385   3.164  11.464  0.00  0.00    +0.000 C 
ATOM     13  C   UNL     1       5.882   3.119  11.754  0.00  0.00    +0.000 C 
ENDBRANCH  11  13
BRANCH  11  14
ATOM     14  C   UNL     1       7.470   4.862  12.780  0.00  0.00    +0.000 C 
ATOM     15  C   UNL     1       7.469   5.499  11.388  0.00  0.00    +0.000 C 
ENDBRANCH  11  14
ENDBRANCH  10  11
ENDBRANCH   1  10
BRANCH   4  16
ATOM     16  C   UNL     1       8.032   6.495  19.013  0.00  0.00    +0.000 C 
BRANCH  16  17
ATOM     17  N   UNL     1       8.654   7.774  19.305  0.00  0.00    +0.000 N 
ATOM     18  C   UNL     1       8.584   8.827  18.419  0.00  0.00    +0.000 C 
ATOM     19  O   UNL     1       8.033   8.741  17.330  0.00  0.00    +0.000 OA
ATOM     20  H   UNL     1       9.263   7.831  20.107  0.00  0.00    +0.000 HD
BRANCH  18  21
ATOM     21  C   UNL     1       9.253  10.095  18.840  0.00  0.00    +0.000 A 
ATOM     22  C   UNL     1       9.373  10.476  20.180  0.00  0.00    +0.000 A 
ATOM     23  C   UNL     1      10.001  11.684  20.517  0.00  0.00    +0.000 A 
ATOM     24  C   UNL     1      10.494  12.533  19.520  0.00  0.00    +0.000 A 
ATOM     25  C   UNL     1      11.106  13.757  19.835  0.00  0.00    +0.000 A 
ATOM     26  C   UNL     1      11.564  14.603  18.819  0.00  0.00    +0.000 A 
ATOM     27  C   UNL     1      11.444  14.219  17.482  0.00  0.00    +0.000 A 
ATOM     28  C   UNL     1      10.845  13.008  17.158  0.00  0.00    +0.000 A 
ATOM     29  C   UNL     1      10.368  12.162  18.163  0.00  0.00    +0.000 A 
ATOM     30  C   UNL     1       9.737  10.936  17.839  0.00  0.00    +0.000 A 
ENDBRANCH  18  21
ENDBRANCH  16  17
ENDBRANCH   4  16
BRANCH   6  31
ATOM     31  C   UNL     1       4.168   5.254  17.661  0.00  0.00    +0.000 C 
BRANCH  31  32
ATOM     32  C   UNL     1       4.793   4.739  18.953  0.00  0.00    +0.000 C 
BRANCH  32  33
ATOM     33  N   UNL     1       3.707   4.464  19.933  0.00  0.00    +0.000 NA
ATOM     34  C   UNL     1       2.468   5.128  19.518  0.00  0.00    +0.000 C 
ATOM     35  C   UNL     1       1.186   4.744  20.250  0.00  0.00    +0.000 C 
ATOM     36  C   UNL     1       1.084   3.316  20.754  0.00  0.00    +0.000 C 
ATOM     37  C   UNL     1       2.407   2.645  21.079  0.00  0.00    +0.000 C 
ATOM     38  C   UNL     1       3.577   3.031  20.177  0.00  0.00    +0.000 C 
ENDBRANCH  32  33
ENDBRANCH  31  32
ENDBRANCH   6  31
TORSDOF 10
ENDMDL
MODEL 4
REMARK VINA RESULT:      -7.5      3.065      5.172
REMARK  Name = 
REMARK  12 active torsions:
REMARK  status: ('A' for Active; 'I' for Inactive)
REMARK    1  A    between atoms: C_1  and  C_2
REMARK    2  A    between atoms: C_2  and  C_3
REMARK    3  A    between atoms: C_3  and  C_4
REMARK    4  A    between atoms: C_3  and  C_6
REMARK    5  A    between atoms: C_4  and  C_5
REMARK    6  A    between atoms: C_6  and  N_7
REMARK    7  A    between atoms: C_10  and  C_11
REMARK    8  A    between atoms: C_11  and  N_12
REMARK    9  A    between atoms: C_13  and  C_15
REMARK   10  A    between atoms: C_26  and  C_27
REMARK   11  A    between atoms: C_27  and  C_28
REMARK   12  A    between atoms: C_28  and  N_29
REMARK                            x       y       z     vdW  Elec       q    Type
REMARK                         _______ _______ _______ _____ _____    ______ ____
ROOT
ATOM      1  N   UNL     1      -1.605  11.677  19.985  0.00  0.00    +0.000 N 
ATOM      2  C   UNL     1      -1.121  10.538  19.215  0.00  0.00    +0.000 C 
ATOM      3  C   UNL     1      -0.504   9.413  20.039  0.00  0.00    +0.000 C 
ATOM      4  C   UNL     1       0.893   9.709  20.604  0.00  0.00    +0.000 C 
ATOM      5  N   UNL     1       1.019  10.720  21.661  0.00  0.00    +0.000 NA
ATOM      6  C   UNL     1       0.009  11.766  21.859  0.00  0.00    +0.000 C 
ATOM      7  C   UNL     1      -0.548  12.398  20.573  0.00  0.00    +0.000 C 
ATOM      8  O   UNL     1      -0.137  13.473  20.137  0.00  0.00    +0.000 OA
ATOM      9  H   UNL     1       1.941  11.157  21.568  0.00  0.00    +0.000 HD
ENDROOT
BRANCH   1  10
ATOM     10  C   UNL     1      -2.652  12.478  19.341  0.00  0.00    +0.000 C 
BRANCH  10  11
ATOM     11  C   UNL     1      -3.895  11.713  18.787  0.00  0.00    +0.000 C 
BRANCH  11  13
ATOM     12  C   UNL     1      -6.387  11.810  19.692  0.00  0.00    +0.000 C 
ATOM     13  C   UNL     1      -5.238  12.480  18.945  0.00  0.00    +0.000 C 
ENDBRANCH  11  13
BRANCH  11  14
ATOM     14  C   UNL     1      -3.761  11.061  17.389  0.00  0.00    +0.000 C 
ATOM     15  C   UNL     1      -4.658  11.599  16.271  0.00  0.00    +0.000 C 
ENDBRANCH  11  14
ENDBRANCH  10  11
ENDBRANCH   1  10
BRANCH   4  16
ATOM     16  C   UNL     1       1.483   8.397  21.202  0.00  0.00    +0.000 C 
BRANCH  16  17
ATOM     17  N   UNL     1       2.209   7.582  20.245  0.00  0.00    +0.000 N 
ATOM     18  C   UNL     1       2.010   6.222  20.161  0.00  0.00    +0.000 C 
ATOM     19  O   UNL     1       1.245   5.617  20.900  0.00  0.00    +0.000 OA
ATOM     20  H   UNL     1       2.970   8.011  19.741  0.00  0.00    +0.000 HD
BRANCH  18  21
ATOM     21  C   UNL     1       2.808   5.496  19.127  0.00  0.00    +0.000 A 
ATOM     22  C   UNL     1       2.924   4.102  19.105  0.00  0.00    +0.000 A 
ATOM     23  C   UNL     1       3.697   3.474  18.117  0.00  0.00    +0.000 A 
ATOM     24  C   UNL     1       4.376   4.230  17.156  0.00  0.00    +0.000 A 
ATOM     25  C   UNL     1       5.172   3.622  16.171  0.00  0.00    +0.000 A 
ATOM     26  C   UNL     1       5.867   4.401  15.240  0.00  0.00    +0.000 A 
ATOM     27  C   UNL     1       5.746   5.793  15.263  0.00  0.00    +0.000 A 
ATOM     28  C   UNL     1       4.958   6.405  16.229  0.00  0.00    +0.000 A 
ATOM     29  C   UNL     1       4.273   5.639  17.176  0.00  0.00    +0.000 A 
ATOM     30  C   UNL     1       3.484   6.258  18.176  0.00  0.00    +0.000 A 
ENDBRANCH  18  21
ENDBRANCH  16  17
ENDBRANCH   4  16
BRANCH   6  31
ATOM     31  C   UNL     1      -1.160  11.371  22.773  0.00  0.00    +0.000 C 
BRANCH  31  32
ATOM     32  C   UNL     1      -1.789  12.504  23.577  0.00  0.00    +0.000 C 
BRANCH  32  33
ATOM     33  N   UNL     1      -3.234  12.592  23.230  0.00  0.00    +0.000 NA
ATOM     34  C   UNL     1      -4.058  12.304  24.408  0.00  0.00    +0.000 C 
ATOM     35  C   UNL     1      -5.550  12.607  24.312  0.00  0.00    +0.000 C 
ATOM     36  C   UNL     1      -5.958  13.779  23.437  0.00  0.00    +0.000 C 
ATOM     37  C   UNL     1      -5.016  14.091  22.288  0.00  0.00    +0.000 C 
ATOM     38  C   UNL     1      -3.535  13.861  22.573  0.00  0.00    +0.000 C 
ENDBRANCH  32  33
ENDBRANCH  31  32
ENDBRANCH   6  31
TORSDOF 10
ENDMDL
MODEL 5
REMARK VINA RESULT:      -7.4      3.664     10.852
REMARK  Name = 
REMARK  12 active torsions:
REMARK  status: ('A' for Active; 'I' for Inactive)
REMARK    1  A    between atoms: C_1  and  C_2
REMARK    2  A    between atoms: C_2  and  C_3
REMARK    3  A    between atoms: C_3  and  C_4
REMARK    4  A    between atoms: C_3  and  C_6
REMARK    5  A    between atoms: C_4  and  C_5
REMARK    6  A    between atoms: C_6  and  N_7
REMARK    7  A    between atoms: C_10  and  C_11
REMARK    8  A    between atoms: C_11  and  N_12
REMARK    9  A    between atoms: C_13  and  C_15
REMARK   10  A    between atoms: C_26  and  C_27
REMARK   11  A    between atoms: C_27  and  C_28
REMARK   12  A    between atoms: C_28  and  N_29
REMARK                            x       y       z     vdW  Elec       q    Type
REMARK                         _______ _______ _______ _____ _____    ______ ____
ROOT
ATOM      1  N   UNL     1       4.258   4.497  19.121  0.00  0.00    +0.000 N 
ATOM      2  C   UNL     1       3.243   5.336  19.745  0.00  0.00    +0.000 C 
ATOM      3  C   UNL     1       2.553   6.324  18.811  0.00  0.00    +0.000 C 
ATOM      4  C   UNL     1       3.401   7.538  18.403  0.00  0.00    +0.000 C 
ATOM      5  N   UNL     1       4.556   7.319  17.522  0.00  0.00    +0.000 NA
ATOM      6  C   UNL     1       5.208   6.010  17.408  0.00  0.00    +0.000 C 
ATOM      7  C   UNL     1       5.386   5.244  18.729  0.00  0.00    +0.000 C 
ATOM      8  O   UNL     1       6.448   5.243  19.351  0.00  0.00    +0.000 OA
ATOM      9  H   UNL     1       5.260   8.027  17.749  0.00  0.00    +0.000 HD
ENDROOT
BRANCH   1  10
ATOM     10  C   UNL     1       4.531   3.224  19.798  0.00  0.00    +0.000 C 
BRANCH  10  11
ATOM     11  C   UNL     1       3.310   2.295  20.087  0.00  0.00    +0.000 C 
BRANCH  11  13
ATOM     12  C   UNL     1       1.241   2.752  21.682  0.00  0.00    +0.000 C 
ATOM     13  C   UNL     1       2.724   2.438  21.519  0.00  0.00    +0.000 C 
ENDBRANCH  11  13
BRANCH  11  14
ATOM     14  C   UNL     1       2.199   2.229  19.010  0.00  0.00    +0.000 C 
ATOM     15  C   UNL     1       2.640   2.081  17.551  0.00  0.00    +0.000 C 
ENDBRANCH  11  14
ENDBRANCH  10  11
ENDBRANCH   1  10
BRANCH   4  16
ATOM     16  C   UNL     1       2.491   8.562  17.661  0.00  0.00    +0.000 C 
BRANCH  16  17
ATOM     17  N   UNL     1       1.838   9.519  18.535  0.00  0.00    +0.000 N 
ATOM     18  C   UNL     1       0.489   9.779  18.438  0.00  0.00    +0.000 C 
ATOM     19  O   UNL     1      -0.228   9.253  17.598  0.00  0.00    +0.000 OA
ATOM     20  H   UNL     1       2.422  10.098  19.119  0.00  0.00    +0.000 HD
BRANCH  18  21
ATOM     21  C   UNL     1      -0.067  10.775  19.403  0.00  0.00    +0.000 A 
ATOM     22  C   UNL     1       0.651  11.233  20.512  0.00  0.00    +0.000 A 
ATOM     23  C   UNL     1       0.074  12.161  21.392  0.00  0.00    +0.000 A 
ATOM     24  C   UNL     1      -1.230  12.623  21.185  0.00  0.00    +0.000 A 
ATOM     25  C   UNL     1      -1.834  13.536  22.066  0.00  0.00    +0.000 A 
ATOM     26  C   UNL     1      -3.151  13.959  21.855  0.00  0.00    +0.000 A 
ATOM     27  C   UNL     1      -3.863  13.502  20.745  0.00  0.00    +0.000 A 
ATOM     28  C   UNL     1      -3.275  12.604  19.864  0.00  0.00    +0.000 A 
ATOM     29  C   UNL     1      -1.967  12.159  20.073  0.00  0.00    +0.000 A 
ATOM     30  C   UNL     1      -1.369  11.226  19.191  0.00  0.00    +0.000 A 
ENDBRANCH  18  21
ENDBRANCH  16  17
ENDBRANCH   4  16
BRANCH   6  31
ATOM     31  C   UNL     1       4.593   5.070  16.359  0.00  0.00    +0.000 C 
BRANCH  31  32
ATOM     32  C   UNL     1       5.539   4.038  15.756  0.00  0.00    +0.000 C 
BRANCH  32  33
ATOM     33  N   UNL     1       5.856   4.439  14.357  0.00  0.00    +0.000 NA
ATOM     34  C   UNL     1       7.196   5.027  14.289  0.00  0.00    +0.000 C 
ATOM     35  C   UNL     1       7.795   5.250  12.903  0.00  0.00    +0.000 C 
ATOM     36  C   UNL     1       7.403   4.263  11.819  0.00  0.00    +0.000 C 
ATOM     37  C   UNL     1       6.042   3.612  11.992  0.00  0.00    +0.000 C 
ATOM     38  C   UNL     1       5.629   3.331  13.435  0.00  0.00    +0.000 C 
ENDBRANCH  32  33
ENDBRANCH  31  32
ENDBRANCH   6  31
TORSDOF 10
ENDMDL
MODEL 6
REMARK VINA RESULT:      -7.4      2.461      3.462
REMARK  Name = 
REMARK  12 active torsions:
REMARK  status: ('A' for Active; 'I' for Inactive)
REMARK    1  A    between atoms: C_1  and  C_2
REMARK    2  A    between atoms: C_2  and  C_3
REMARK    3  A    between atoms: C_3  and  C_4
REMARK    4  A    between atoms: C_3  and  C_6
REMARK    5  A    between atoms: C_4  and  C_5
REMARK    6  A    between atoms: C_6  and  N_7
REMARK    7  A    between atoms: C_10  and  C_11
REMARK    8  A    between atoms: C_11  and  N_12
REMARK    9  A    between atoms: C_13  and  C_15
REMARK   10  A    between atoms: C_26  and  C_27
REMARK   11  A    between atoms: C_27  and  C_28
REMARK   12  A    between atoms: C_28  and  N_29
REMARK                            x       y       z     vdW  Elec       q    Type
REMARK                         _______ _______ _______ _____ _____    ______ ____
ROOT
ATOM      1  N   UNL     1       1.364  14.766  20.117  0.00  0.00    +0.000 N 
ATOM      2  C   UNL     1       1.935  13.716  19.282  0.00  0.00    +0.000 C 
ATOM      3  C   UNL     1       1.073  12.468  19.129  0.00  0.00    +0.000 C 
ATOM      4  C   UNL     1       1.025  11.553  20.363  0.00  0.00    +0.000 C 
ATOM      5  N   UNL     1       0.333  12.036  21.564  0.00  0.00    +0.000 NA
ATOM      6  C   UNL     1       0.117  13.466  21.813  0.00  0.00    +0.000 C 
ATOM      7  C   UNL     1       1.302  14.383  21.470  0.00  0.00    +0.000 C 
ATOM      8  O   UNL     1       2.088  14.788  22.326  0.00  0.00    +0.000 OA
ATOM      9  H   UNL     1       0.792  11.619  22.378  0.00  0.00    +0.000 HD
ENDROOT
BRANCH   1  10
ATOM     10  C   UNL     1       1.856  16.123  19.853  0.00  0.00    +0.000 C 
BRANCH  10  11
ATOM     11  C   UNL     1       1.007  17.015  18.894  0.00  0.00    +0.000 C 
BRANCH  11  13
ATOM     12  C   UNL     1       1.074  18.449  16.664  0.00  0.00    +0.000 C 
ATOM     13  C   UNL     1       1.758  17.471  17.612  0.00  0.00    +0.000 C 
ENDBRANCH  11  13
BRANCH  11  14
ATOM     14  C   UNL     1      -0.436  16.546  18.583  0.00  0.00    +0.000 C 
ATOM     15  C   UNL     1      -1.586  17.441  19.053  0.00  0.00    +0.000 C 
ENDBRANCH  11  14
ENDBRANCH  10  11
ENDBRANCH   1  10
BRANCH   4  16
ATOM     16  C   UNL     1       0.319  10.220  19.974  0.00  0.00    +0.000 C 
BRANCH  16  17
ATOM     17  N   UNL     1       1.224   9.103  19.777  0.00  0.00    +0.000 N 
ATOM     18  C   UNL     1       1.715   8.786  18.531  0.00  0.00    +0.000 C 
ATOM     19  O   UNL     1       1.397   9.394  17.518  0.00  0.00    +0.000 OA
ATOM     20  H   UNL     1       1.372   8.474  20.552  0.00  0.00    +0.000 HD
BRANCH  18  21
ATOM     21  C   UNL     1       2.649   7.621  18.461  0.00  0.00    +0.000 A 
ATOM     22  C   UNL     1       2.716   6.646  19.462  0.00  0.00    +0.000 A 
ATOM     23  C   UNL     1       3.621   5.580  19.350  0.00  0.00    +0.000 A 
ATOM     24  C   UNL     1       4.481   5.488  18.250  0.00  0.00    +0.000 A 
ATOM     25  C   UNL     1       5.409   4.441  18.128  0.00  0.00    +0.000 A 
ATOM     26  C   UNL     1       6.279   4.388  17.035  0.00  0.00    +0.000 A 
ATOM     27  C   UNL     1       6.208   5.362  16.036  0.00  0.00    +0.000 A 
ATOM     28  C   UNL     1       5.291   6.399  16.142  0.00  0.00    +0.000 A 
ATOM     29  C   UNL     1       4.428   6.473  17.238  0.00  0.00    +0.000 A 
ATOM     30  C   UNL     1       3.505   7.541  17.364  0.00  0.00    +0.000 A 
ENDBRANCH  18  21
ENDBRANCH  16  17
ENDBRANCH   4  16
BRANCH   6  31
ATOM     31  C   UNL     1      -1.164  14.044  21.192  0.00  0.00    +0.000 C 
BRANCH  31  32
ATOM     32  C   UNL     1      -2.348  13.087  21.096  0.00  0.00    +0.000 C 
BRANCH  32  33
ATOM     33  N   UNL     1      -3.245  13.319  22.261  0.00  0.00    +0.000 NA
ATOM     34  C   UNL     1      -3.219  14.732  22.649  0.00  0.00    +0.000 C 
ATOM     35  C   UNL     1      -4.273  15.207  23.645  0.00  0.00    +0.000 C 
ATOM     36  C   UNL     1      -5.623  14.515  23.597  0.00  0.00    +0.000 C 
ATOM     37  C   UNL     1      -5.603  13.082  23.097  0.00  0.00    +0.000 C 
ATOM     38  C   UNL     1      -4.579  12.783  22.005  0.00  0.00    +0.000 C 
ENDBRANCH  32  33
ENDBRANCH  31  32
ENDBRANCH   6  31
TORSDOF 10
ENDMDL
MODEL 7
REMARK VINA RESULT:      -7.4      3.595     10.965
REMARK  Name = 
REMARK  12 active torsions:
REMARK  status: ('A' for Active; 'I' for Inactive)
REMARK    1  A    between atoms: C_1  and  C_2
REMARK    2  A    between atoms: C_2  and  C_3
REMARK    3  A    between atoms: C_3  and  C_4
REMARK    4  A    between atoms: C_3  and  C_6
REMARK    5  A    between atoms: C_4  and  C_5
REMARK    6  A    between atoms: C_6  and  N_7
REMARK    7  A    between atoms: C_10  and  C_11
REMARK    8  A    between atoms: C_11  and  N_12
REMARK    9  A    between atoms: C_13  and  C_15
REMARK   10  A    between atoms: C_26  and  C_27
REMARK   11  A    between atoms: C_27  and  C_28
REMARK   12  A    between atoms: C_28  and  N_29
REMARK                            x       y       z     vdW  Elec       q    Type
REMARK                         _______ _______ _______ _____ _____    ______ ____
ROOT
ATOM      1  N   UNL     1       4.102   4.628  19.192  0.00  0.00    +0.000 N 
ATOM      2  C   UNL     1       2.969   5.400  19.686  0.00  0.00    +0.000 C 
ATOM      3  C   UNL     1       2.336   6.344  18.670  0.00  0.00    +0.000 C 
ATOM      4  C   UNL     1       3.149   7.610  18.360  0.00  0.00    +0.000 C 
ATOM      5  N   UNL     1       4.412   7.467  17.626  0.00  0.00    +0.000 NA
ATOM      6  C   UNL     1       5.155   6.201  17.598  0.00  0.00    +0.000 C 
ATOM      7  C   UNL     1       5.220   5.445  18.935  0.00  0.00    +0.000 C 
ATOM      8  O   UNL     1       6.198   5.509  19.679  0.00  0.00    +0.000 OA
ATOM      9  H   UNL     1       5.038   8.217  17.932  0.00  0.00    +0.000 HD
ENDROOT
BRANCH   1  10
ATOM     10  C   UNL     1       4.372   3.373  19.903  0.00  0.00    +0.000 C 
BRANCH  10  11
ATOM     11  C   UNL     1       3.411   2.174  19.623  0.00  0.00    +0.000 C 
BRANCH  11  13
ATOM     12  C   UNL     1       1.914   2.694  21.750  0.00  0.00    +0.000 C 
ATOM     13  C   UNL     1       2.008   2.315  20.276  0.00  0.00    +0.000 C 
ENDBRANCH  11  13
BRANCH  11  14
ATOM     14  C   UNL     1       3.322   1.665  18.163  0.00  0.00    +0.000 C 
ATOM     15  C   UNL     1       2.493   2.492  17.176  0.00  0.00    +0.000 C 
ENDBRANCH  11  14
ENDBRANCH  10  11
ENDBRANCH   1  10
BRANCH   4  16
ATOM     16  C   UNL     1       2.272   8.576  17.509  0.00  0.00    +0.000 C 
BRANCH  16  17
ATOM     17  N   UNL     1       1.370   9.404  18.289  0.00  0.00    +0.000 N 
ATOM     18  C   UNL     1       1.553  10.764  18.397  0.00  0.00    +0.000 C 
ATOM     19  O   UNL     1       2.495  11.349  17.880  0.00  0.00    +0.000 OA
ATOM     20  H   UNL     1       0.688   8.939  18.870  0.00  0.00    +0.000 HD
BRANCH  18  21
ATOM     21  C   UNL     1       0.549  11.507  19.218  0.00  0.00    +0.000 A 
ATOM     22  C   UNL     1      -0.303  10.871  20.125  0.00  0.00    +0.000 A 
ATOM     23  C   UNL     1      -1.236  11.617  20.861  0.00  0.00    +0.000 A 
ATOM     24  C   UNL     1      -1.341  13.001  20.683  0.00  0.00    +0.000 A 
ATOM     25  C   UNL     1      -2.282  13.764  21.393  0.00  0.00    +0.000 A 
ATOM     26  C   UNL     1      -2.389  15.141  21.174  0.00  0.00    +0.000 A 
ATOM     27  C   UNL     1      -1.535  15.774  20.269  0.00  0.00    +0.000 A 
ATOM     28  C   UNL     1      -0.596  15.031  19.564  0.00  0.00    +0.000 A 
ATOM     29  C   UNL     1      -0.491  13.652  19.760  0.00  0.00    +0.000 A 
ATOM     30  C   UNL     1       0.449  12.885  19.029  0.00  0.00    +0.000 A 
ENDBRANCH  18  21
ENDBRANCH  16  17
ENDBRANCH   4  16
BRANCH   6  31
ATOM     31  C   UNL     1       4.731   5.228  16.488  0.00  0.00    +0.000 C 
BRANCH  31  32
ATOM     32  C   UNL     1       5.830   4.322  15.942  0.00  0.00    +0.000 C 
BRANCH  32  33
ATOM     33  N   UNL     1       5.960   4.556  14.478  0.00  0.00    +0.000 NA
ATOM     34  C   UNL     1       7.298   5.063  14.161  0.00  0.00    +0.000 C 
ATOM     35  C   UNL     1       7.703   5.106  12.691  0.00  0.00    +0.000 C 
ATOM     36  C   UNL     1       7.125   4.032  11.788  0.00  0.00    +0.000 C 
ATOM     37  C   UNL     1       5.779   3.476  12.217  0.00  0.00    +0.000 C 
ATOM     38  C   UNL     1       5.564   3.370  13.725  0.00  0.00    +0.000 C 
ENDBRANCH  32  33
ENDBRANCH  31  32
ENDBRANCH   6  31
TORSDOF 10
ENDMDL
MODEL 8
REMARK VINA RESULT:      -7.3      2.864      4.885
REMARK  Name = 
REMARK  12 active torsions:
REMARK  status: ('A' for Active; 'I' for Inactive)
REMARK    1  A    between atoms: C_1  and  C_2
REMARK    2  A    between atoms: C_2  and  C_3
REMARK    3  A    between atoms: C_3  and  C_4
REMARK    4  A    between atoms: C_3  and  C_6
REMARK    5  A    between atoms: C_4  and  C_5
REMARK    6  A    between atoms: C_6  and  N_7
REMARK    7  A    between atoms: C_10  and  C_11
REMARK    8  A    between atoms: C_11  and  N_12
REMARK    9  A    between atoms: C_13  and  C_15
REMARK   10  A    between atoms: C_26  and  C_27
REMARK   11  A    between atoms: C_27  and  C_28
REMARK   12  A    between atoms: C_28  and  N_29
REMARK                            x       y       z     vdW  Elec       q    Type
REMARK                         _______ _______ _______ _____ _____    ______ ____
ROOT
ATOM      1  N   UNL     1      -1.666  11.570  19.392  0.00  0.00    +0.000 N 
ATOM      2  C   UNL     1      -1.144  10.274  18.978  0.00  0.00    +0.000 C 
ATOM      3  C   UNL     1      -0.544   9.429  20.096  0.00  0.00    +0.000 C 
ATOM      4  C   UNL     1       0.829   9.896  20.602  0.00  0.00    +0.000 C 
ATOM      5  N   UNL     1       0.908  11.159  21.345  0.00  0.00    +0.000 NA
ATOM      6  C   UNL     1      -0.120  12.199  21.219  0.00  0.00    +0.000 C 
ATOM      7  C   UNL     1      -0.639  12.445  19.793  0.00  0.00    +0.000 C 
ATOM      8  O   UNL     1      -0.224  13.368  19.093  0.00  0.00    +0.000 OA
ATOM      9  H   UNL     1       1.827  11.572  21.165  0.00  0.00    +0.000 HD
ENDROOT
BRANCH   1  10
ATOM     10  C   UNL     1      -2.699  12.144  18.522  0.00  0.00    +0.000 C 
BRANCH  10  11
ATOM     11  C   UNL     1      -3.900  11.224  18.138  0.00  0.00    +0.000 C 
BRANCH  11  13
ATOM     12  C   UNL     1      -6.552  11.269  18.152  0.00  0.00    +0.000 C 
ATOM     13  C   UNL     1      -5.233  11.584  18.851  0.00  0.00    +0.000 C 
ENDBRANCH  11  13
BRANCH  11  14
ATOM     14  C   UNL     1      -4.110  10.925  16.633  0.00  0.00    +0.000 C 
ATOM     15  C   UNL     1      -2.873  10.944  15.731  0.00  0.00    +0.000 C 
ENDBRANCH  11  14
ENDBRANCH  10  11
ENDBRANCH   1  10
BRANCH   4  16
ATOM     16  C   UNL     1       1.412   8.808  21.553  0.00  0.00    +0.000 C 
BRANCH  16  17
ATOM     17  N   UNL     1       1.620   7.517  20.923  0.00  0.00    +0.000 N 
ATOM     18  C   UNL     1       2.197   7.408  19.678  0.00  0.00    +0.000 C 
ATOM     19  O   UNL     1       2.533   8.381  19.015  0.00  0.00    +0.000 OA
ATOM     20  H   UNL     1       1.201   6.708  21.357  0.00  0.00    +0.000 HD
BRANCH  18  21
ATOM     21  C   UNL     1       2.369   6.023  19.143  0.00  0.00    +0.000 A 
ATOM     22  C   UNL     1       1.689   5.561  18.012  0.00  0.00    +0.000 A 
ATOM     23  C   UNL     1       1.881   4.247  17.562  0.00  0.00    +0.000 A 
ATOM     24  C   UNL     1       2.735   3.376  18.247  0.00  0.00    +0.000 A 
ATOM     25  C   UNL     1       2.925   2.050  17.826  0.00  0.00    +0.000 A 
ATOM     26  C   UNL     1       3.760   1.189  18.546  0.00  0.00    +0.000 A 
ATOM     27  C   UNL     1       4.439   1.655  19.673  0.00  0.00    +0.000 A 
ATOM     28  C   UNL     1       4.264   2.966  20.097  0.00  0.00    +0.000 A 
ATOM     29  C   UNL     1       3.419   3.831  19.397  0.00  0.00    +0.000 A 
ATOM     30  C   UNL     1       3.219   5.162  19.836  0.00  0.00    +0.000 A 
ENDBRANCH  18  21
ENDBRANCH  16  17
ENDBRANCH   4  16
BRANCH   6  31
ATOM     31  C   UNL     1      -1.316  12.045  22.171  0.00  0.00    +0.000 C 
BRANCH  31  32
ATOM     32  C   UNL     1      -2.344  13.172  22.136  0.00  0.00    +0.000 C 
BRANCH  32  33
ATOM     33  N   UNL     1      -3.655  12.637  22.595  0.00  0.00    +0.000 NA
ATOM     34  C   UNL     1      -3.678  12.532  24.056  0.00  0.00    +0.000 C 
ATOM     35  C   UNL     1      -5.024  12.259  24.720  0.00  0.00    +0.000 C 
ATOM     36  C   UNL     1      -6.255  12.828  24.036  0.00  0.00    +0.000 C 
ATOM     37  C   UNL     1      -6.140  13.004  22.532  0.00  0.00    +0.000 C 
ATOM     38  C   UNL     1      -4.758  13.404  22.022  0.00  0.00    +0.000 C 
ENDBRANCH  32  33
ENDBRANCH  31  32
ENDBRANCH   6  31
TORSDOF 10
ENDMDL
MODEL 9
REMARK VINA RESULT:      -7.2      2.658      5.253
REMARK  Name = 
REMARK  12 active torsions:
REMARK  status: ('A' for Active; 'I' for Inactive)
REMARK    1  A    between atoms: C_1  and  C_2
REMARK    2  A    between atoms: C_2  and  C_3
REMARK    3  A    between atoms: C_3  and  C_4
REMARK    4  A    between atoms: C_3  and  C_6
REMARK    5  A    between atoms: C_4  and  C_5
REMARK    6  A    between atoms: C_6  and  N_7
REMARK    7  A    between atoms: C_10  and  C_11
REMARK    8  A    between atoms: C_11  and  N_12
REMARK    9  A    between atoms: C_13  and  C_15
REMARK   10  A    between atoms: C_26  and  C_27
REMARK   11  A    between atoms: C_27  and  C_28
REMARK   12  A    between atoms: C_28  and  N_29
REMARK                            x       y       z     vdW  Elec       q    Type
REMARK                         _______ _______ _______ _____ _____    ______ ____
ROOT
ATOM      1  N   UNL     1      -0.898  12.362  20.444  0.00  0.00    +0.000 N 
ATOM      2  C   UNL     1      -1.198  11.308  21.404  0.00  0.00    +0.000 C 
ATOM      3  C   UNL     1      -0.042  10.364  21.713  0.00  0.00    +0.000 C 
ATOM      4  C   UNL     1       0.290   9.353  20.605  0.00  0.00    +0.000 C 
ATOM      5  N   UNL     1       0.870   9.854  19.353  0.00  0.00    +0.000 NA
ATOM      6  C   UNL     1       0.707  11.249  18.926  0.00  0.00    +0.000 C 
ATOM      7  C   UNL     1      -0.690  11.849  19.149  0.00  0.00    +0.000 C 
ATOM      8  O   UNL     1      -1.526  11.922  18.249  0.00  0.00    +0.000 OA
ATOM      9  H   UNL     1       0.567   9.234  18.598  0.00  0.00    +0.000 HD
ENDROOT
BRANCH   1  10
ATOM     10  C   UNL     1      -1.742  13.560  20.534  0.00  0.00    +0.000 C 
BRANCH  10  11
ATOM     11  C   UNL     1      -1.101  14.838  21.160  0.00  0.00    +0.000 C 
BRANCH  11  13
ATOM     12  C   UNL     1      -0.537  15.867  23.539  0.00  0.00    +0.000 C 
ATOM     13  C   UNL     1      -0.599  14.652  22.619  0.00  0.00    +0.000 C 
ENDBRANCH  11  13
BRANCH  11  14
ATOM     14  C   UNL     1      -0.081  15.616  20.291  0.00  0.00    +0.000 C 
ATOM     15  C   UNL     1      -0.395  15.765  18.800  0.00  0.00    +0.000 C 
ENDBRANCH  11  14
ENDBRANCH  10  11
ENDBRANCH   1  10
BRANCH   4  16
ATOM     16  C   UNL     1       1.311   8.315  21.159  0.00  0.00    +0.000 C 
BRANCH  16  17
ATOM     17  N   UNL     1       2.055   7.607  20.134  0.00  0.00    +0.000 N 
ATOM     18  C   UNL     1       2.042   6.233  20.055  0.00  0.00    +0.000 C 
ATOM     19  O   UNL     1       1.439   5.529  20.854  0.00  0.00    +0.000 OA
ATOM     20  H   UNL     1       2.700   8.138  19.568  0.00  0.00    +0.000 HD
BRANCH  18  21
ATOM     21  C   UNL     1       2.837   5.623  18.946  0.00  0.00    +0.000 A 
ATOM     22  C   UNL     1       2.428   4.469  18.270  0.00  0.00    +0.000 A 
ATOM     23  C   UNL     1       3.220   3.933  17.244  0.00  0.00    +0.000 A 
ATOM     24  C   UNL     1       4.438   4.530  16.899  0.00  0.00    +0.000 A 
ATOM     25  C   UNL     1       5.257   3.998  15.890  0.00  0.00    +0.000 A 
ATOM     26  C   UNL     1       6.485   4.594  15.585  0.00  0.00    +0.000 A 
ATOM     27  C   UNL     1       6.889   5.747  16.260  0.00  0.00    +0.000 A 
ATOM     28  C   UNL     1       6.086   6.287  17.256  0.00  0.00    +0.000 A 
ATOM     29  C   UNL     1       4.865   5.690  17.583  0.00  0.00    +0.000 A 
ATOM     30  C   UNL     1       4.051   6.222  18.613  0.00  0.00    +0.000 A 
ENDBRANCH  18  21
ENDBRANCH  16  17
ENDBRANCH   4  16
BRANCH   6  31
ATOM     31  C   UNL     1       1.766  12.220  19.470  0.00  0.00    +0.000 C 
BRANCH  31  32
ATOM     32  C   UNL     1       2.633  12.913  18.424  0.00  0.00    +0.000 C 
BRANCH  32  33
ATOM     33  N   UNL     1       2.799  14.341  18.812  0.00  0.00    +0.000 NA
ATOM     34  C   UNL     1       3.579  14.445  20.047  0.00  0.00    +0.000 C 
ATOM     35  C   UNL     1       4.077  15.830  20.450  0.00  0.00    +0.000 C 
ATOM     36  C   UNL     1       4.408  16.794  19.325  0.00  0.00    +0.000 C 
ATOM     37  C   UNL     1       3.635  16.579  18.035  0.00  0.00    +0.000 C 
ATOM     38  C   UNL     1       3.319  15.125  17.695  0.00  0.00    +0.000 C 
ENDBRANCH  32  33
ENDBRANCH  31  32
ENDBRANCH   6  31
TORSDOF 10
ENDMDL
