MODEL 1
REMARK VINA RESULT:      -7.9      0.000      0.000
REMARK  Name = 
REMARK  4 active torsions:
REMARK  status: ('A' for Active; 'I' for Inactive)
REMARK    1  A    between atoms: C_1  and  C_2
REMARK    2  A    between atoms: C_2  and  N_3
REMARK    3  A    between atoms: C_12  and  N_13
REMARK    4  A    between atoms: C_14  and  C_16
REMARK                            x       y       z     vdW  Elec       q    Type
REMARK                         _______ _______ _______ _____ _____    ______ ____
ROOT
ATOM      1  N   UNL     1       3.522   4.202  18.820  0.00  0.00    +0.000 N 
ATOM      2  C   UNL     1       4.219   4.712  17.742  0.00  0.00    +0.000 A 
ATOM      3  C   UNL     1       5.081   4.096  16.817  0.00  0.00    +0.000 A 
ATOM      4  C   UNL     1       5.638   4.885  15.805  0.00  0.00    +0.000 A 
ATOM      5  C   UNL     1       5.344   6.241  15.712  0.00  0.00    +0.000 A 
ATOM      6  C   UNL     1       4.483   6.845  16.635  0.00  0.00    +0.000 A 
ATOM      7  C   UNL     1       3.914   6.073  17.670  0.00  0.00    +0.000 A 
ATOM      8  C   UNL     1       3.025   6.373  18.749  0.00  0.00    +0.000 A 
ATOM      9  C   UNL     1       2.365   7.550  19.166  0.00  0.00    +0.000 A 
ATOM     10  C   UNL     1       1.542   7.541  20.297  0.00  0.00    +0.000 A 
ATOM     11  C   UNL     1       1.425   6.367  21.046  0.00  0.00    +0.000 A 
ATOM     12  C   UNL     1       2.057   5.180  20.649  0.00  0.00    +0.000 A 
ATOM     13  C   UNL     1       2.835   5.203  19.482  0.00  0.00    +0.000 A 
ENDROOT
BRANCH  10  14
ATOM     14  N   UNL     1       0.806   8.665  20.726  0.00  0.00    +0.000 N 
ATOM     15  C   UNL     1       1.070   9.458  21.832  0.00  0.00    +0.000 C 
ATOM     16  O   UNL     1       1.999   9.291  22.618  0.00  0.00    +0.000 OA
ATOM     17  H   UNL     1       0.067   9.004  20.120  0.00  0.00    +0.000 HD
BRANCH  15  18
ATOM     18  C   UNL     1       0.156  10.574  21.979  0.00  0.00    +0.000 A 
ATOM     19  C   UNL     1      -0.293  11.490  21.046  0.00  0.00    +0.000 A 
ATOM     20  C   UNL     1      -1.180  12.359  21.716  0.00  0.00    +0.000 A 
ATOM     21  C   UNL     1      -1.221  11.929  23.022  0.00  0.00    +0.000 A 
ATOM     22  O   UNL     1      -0.417  10.845  23.197  0.00  0.00    +0.000 OA
ENDBRANCH  15  18
ENDBRANCH  10  14
BRANCH   1  24
ATOM     23  C   UNL     1       2.327   2.064  18.496  0.00  0.00    +0.000 C 
ATOM     24  C   UNL     1       3.468   2.793  19.178  0.00  0.00    +0.000 C 
ENDBRANCH   1  24
TORSDOF 3
ENDMDL
MODEL 2
REMARK VINA RESULT:      -7.9      3.761      8.069
REMARK  Name = 
REMARK  4 active torsions:
REMARK  status: ('A' for Active; 'I' for Inactive)
REMARK    1  A    between atoms: C_1  and  C_2
REMARK    2  A    between atoms: C_2  and  N_3
REMARK    3  A    between atoms: C_12  and  N_13
REMARK    4  A    between atoms: C_14  and  C_16
REMARK                            x       y       z     vdW  Elec       q    Type
REMARK                         _______ _______ _______ _____ _____    ______ ____
ROOT
ATOM      1  N   UNL     1       2.397   5.076  20.398  0.00  0.00    +0.000 N 
ATOM      2  C   UNL     1       1.928   6.376  20.428  0.00  0.00    +0.000 A 
ATOM      3  C   UNL     1       1.171   7.067  21.391  0.00  0.00    +0.000 A 
ATOM      4  C   UNL     1       0.854   8.407  21.145  0.00  0.00    +0.000 A 
ATOM      5  C   UNL     1       1.280   9.042  19.983  0.00  0.00    +0.000 A 
ATOM      6  C   UNL     1       2.035   8.346  19.033  0.00  0.00    +0.000 A 
ATOM      7  C   UNL     1       2.362   6.991  19.253  0.00  0.00    +0.000 A 
ATOM      8  C   UNL     1       3.093   6.019  18.502  0.00  0.00    +0.000 A 
ATOM      9  C   UNL     1       3.782   6.060  17.269  0.00  0.00    +0.000 A 
ATOM     10  C   UNL     1       4.413   4.915  16.769  0.00  0.00    +0.000 A 
ATOM     11  C   UNL     1       4.303   3.713  17.474  0.00  0.00    +0.000 A 
ATOM     12  C   UNL     1       3.638   3.645  18.705  0.00  0.00    +0.000 A 
ATOM     13  C   UNL     1       3.059   4.819  19.211  0.00  0.00    +0.000 A 
ENDROOT
BRANCH  10  14
ATOM     14  N   UNL     1       5.169   4.908  15.579  0.00  0.00    +0.000 N 
ATOM     15  C   UNL     1       6.549   4.841  15.472  0.00  0.00    +0.000 C 
ATOM     16  O   UNL     1       7.331   4.780  16.418  0.00  0.00    +0.000 OA
ATOM     17  H   UNL     1       4.666   4.843  14.701  0.00  0.00    +0.000 HD
BRANCH  15  18
ATOM     18  C   UNL     1       7.027   4.804  14.103  0.00  0.00    +0.000 A 
ATOM     19  C   UNL     1       6.641   4.003  13.045  0.00  0.00    +0.000 A 
ATOM     20  C   UNL     1       7.418   4.389  11.932  0.00  0.00    +0.000 A 
ATOM     21  C   UNL     1       8.237   5.402  12.372  0.00  0.00    +0.000 A 
ATOM     22  O   UNL     1       8.010   5.667  13.688  0.00  0.00    +0.000 OA
ENDBRANCH  15  18
ENDBRANCH  10  14
BRANCH   1  24
ATOM     23  C   UNL     1       1.275   3.019  21.181  0.00  0.00    +0.000 C 
ATOM     24  C   UNL     1       2.267   4.124  21.489  0.00  0.00    +0.000 C 
ENDBRANCH   1  24
TORSDOF 3
ENDMDL
MODEL 3
REMARK VINA RESULT:      -7.7      1.240      3.166
REMARK  Name = 
REMARK  4 active torsions:
REMARK  status: ('A' for Active; 'I' for Inactive)
REMARK    1  A    between atoms: C_1  and  C_2
REMARK    2  A    between atoms: C_2  and  N_3
REMARK    3  A    between atoms: C_12  and  N_13
REMARK    4  A    between atoms: C_14  and  C_16
REMARK                            x       y       z     vdW  Elec       q    Type
REMARK                         _______ _______ _______ _____ _____    ______ ____
ROOT
ATOM      1  N   UNL     1       3.547   5.642  18.331  0.00  0.00    +0.000 N 
ATOM      2  C   UNL     1       3.385   4.574  19.194  0.00  0.00    +0.000 A 
ATOM      3  C   UNL     1       3.923   3.275  19.176  0.00  0.00    +0.000 A 
ATOM      4  C   UNL     1       3.580   2.403  20.214  0.00  0.00    +0.000 A 
ATOM      5  C   UNL     1       2.733   2.809  21.240  0.00  0.00    +0.000 A 
ATOM      6  C   UNL     1       2.204   4.105  21.250  0.00  0.00    +0.000 A 
ATOM      7  C   UNL     1       2.529   5.002  20.210  0.00  0.00    +0.000 A 
ATOM      8  C   UNL     1       2.164   6.355  19.927  0.00  0.00    +0.000 A 
ATOM      9  C   UNL     1       1.362   7.306  20.595  0.00  0.00    +0.000 A 
ATOM     10  C   UNL     1       1.177   8.584  20.056  0.00  0.00    +0.000 A 
ATOM     11  C   UNL     1       1.746   8.891  18.817  0.00  0.00    +0.000 A 
ATOM     12  C   UNL     1       2.558   7.973  18.138  0.00  0.00    +0.000 A 
ATOM     13  C   UNL     1       2.771   6.716  18.725  0.00  0.00    +0.000 A 
ENDROOT
BRANCH  10  14
ATOM     14  N   UNL     1       0.442   9.598  20.707  0.00  0.00    +0.000 N 
ATOM     15  C   UNL     1       0.636  10.066  21.996  0.00  0.00    +0.000 C 
ATOM     16  O   UNL     1       1.490   9.657  22.778  0.00  0.00    +0.000 OA
ATOM     17  H   UNL     1      -0.233  10.117  20.156  0.00  0.00    +0.000 HD
BRANCH  15  18
ATOM     18  C   UNL     1      -0.254  11.152  22.361  0.00  0.00    +0.000 A 
ATOM     19  C   UNL     1      -1.445  11.132  23.063  0.00  0.00    +0.000 A 
ATOM     20  C   UNL     1      -1.894  12.468  23.148  0.00  0.00    +0.000 A 
ATOM     21  C   UNL     1      -0.954  13.228  22.492  0.00  0.00    +0.000 A 
ATOM     22  O   UNL     1       0.049  12.444  22.011  0.00  0.00    +0.000 OA
ENDBRANCH  15  18
ENDBRANCH  10  14
BRANCH   1  24
ATOM     23  C   UNL     1       5.836   6.171  17.565  0.00  0.00    +0.000 C 
ATOM     24  C   UNL     1       4.458   5.657  17.197  0.00  0.00    +0.000 C 
ENDBRANCH   1  24
TORSDOF 3
ENDMDL
MODEL 4
REMARK VINA RESULT:      -7.7      0.989      1.118
REMARK  Name = 
REMARK  4 active torsions:
REMARK  status: ('A' for Active; 'I' for Inactive)
REMARK    1  A    between atoms: C_1  and  C_2
REMARK    2  A    between atoms: C_2  and  N_3
REMARK    3  A    between atoms: C_12  and  N_13
REMARK    4  A    between atoms: C_14  and  C_16
REMARK                            x       y       z     vdW  Elec       q    Type
REMARK                         _______ _______ _______ _____ _____    ______ ____
ROOT
ATOM      1  N   UNL     1       3.378   4.040  18.566  0.00  0.00    +0.000 N 
ATOM      2  C   UNL     1       4.135   4.503  17.506  0.00  0.00    +0.000 A 
ATOM      3  C   UNL     1       4.922   3.823  16.560  0.00  0.00    +0.000 A 
ATOM      4  C   UNL     1       5.573   4.576  15.577  0.00  0.00    +0.000 A 
ATOM      5  C   UNL     1       5.442   5.960  15.533  0.00  0.00    +0.000 A 
ATOM      6  C   UNL     1       4.655   6.628  16.477  0.00  0.00    +0.000 A 
ATOM      7  C   UNL     1       3.994   5.892  17.484  0.00  0.00    +0.000 A 
ATOM      8  C   UNL     1       3.142   6.256  18.573  0.00  0.00    +0.000 A 
ATOM      9  C   UNL     1       2.625   7.488  19.032  0.00  0.00    +0.000 A 
ATOM     10  C   UNL     1       1.801   7.536  20.162  0.00  0.00    +0.000 A 
ATOM     11  C   UNL     1       1.543   6.358  20.869  0.00  0.00    +0.000 A 
ATOM     12  C   UNL     1       2.031   5.120  20.429  0.00  0.00    +0.000 A 
ATOM     13  C   UNL     1       2.812   5.091  19.263  0.00  0.00    +0.000 A 
ENDROOT
BRANCH  10  14
ATOM     14  N   UNL     1       1.203   8.724  20.632  0.00  0.00    +0.000 N 
ATOM     15  C   UNL     1       0.011   8.834  21.330  0.00  0.00    +0.000 C 
ATOM     16  O   UNL     1      -0.715   7.894  21.646  0.00  0.00    +0.000 OA
ATOM     17  H   UNL     1       1.734   9.584  20.548  0.00  0.00    +0.000 HD
BRANCH  15  18
ATOM     18  C   UNL     1      -0.314  10.193  21.717  0.00  0.00    +0.000 A 
ATOM     19  C   UNL     1      -0.852  10.682  22.893  0.00  0.00    +0.000 A 
ATOM     20  C   UNL     1      -0.952  12.082  22.748  0.00  0.00    +0.000 A 
ATOM     21  C   UNL     1      -0.473  12.371  21.492  0.00  0.00    +0.000 A 
ATOM     22  O   UNL     1      -0.080  11.235  20.855  0.00  0.00    +0.000 OA
ENDBRANCH  15  18
ENDBRANCH  10  14
BRANCH   1  24
ATOM     23  C   UNL     1       1.842   2.121  18.316  0.00  0.00    +0.000 C 
ATOM     24  C   UNL     1       3.155   2.636  18.872  0.00  0.00    +0.000 C 
ENDBRANCH   1  24
TORSDOF 3
ENDMDL
MODEL 5
REMARK VINA RESULT:      -7.7      1.179      1.345
REMARK  Name = 
REMARK  4 active torsions:
REMARK  status: ('A' for Active; 'I' for Inactive)
REMARK    1  A    between atoms: C_1  and  C_2
REMARK    2  A    between atoms: C_2  and  N_3
REMARK    3  A    between atoms: C_12  and  N_13
REMARK    4  A    between atoms: C_14  and  C_16
REMARK                            x       y       z     vdW  Elec       q    Type
REMARK                         _______ _______ _______ _____ _____    ______ ____
ROOT
ATOM      1  N   UNL     1       3.330   3.734  18.134  0.00  0.00    +0.000 N 
ATOM      2  C   UNL     1       4.144   4.378  17.221  0.00  0.00    +0.000 A 
ATOM      3  C   UNL     1       4.962   3.877  16.193  0.00  0.00    +0.000 A 
ATOM      4  C   UNL     1       5.671   4.793  15.408  0.00  0.00    +0.000 A 
ATOM      5  C   UNL     1       5.568   6.161  15.635  0.00  0.00    +0.000 A 
ATOM      6  C   UNL     1       4.750   6.649  16.660  0.00  0.00    +0.000 A 
ATOM      7  C   UNL     1       4.029   5.746  17.471  0.00  0.00    +0.000 A 
ATOM      8  C   UNL     1       3.134   5.910  18.573  0.00  0.00    +0.000 A 
ATOM      9  C   UNL     1       2.618   7.040  19.247  0.00  0.00    +0.000 A 
ATOM     10  C   UNL     1       1.743   6.884  20.328  0.00  0.00    +0.000 A 
ATOM     11  C   UNL     1       1.431   5.597  20.773  0.00  0.00    +0.000 A 
ATOM     12  C   UNL     1       1.916   4.458  20.116  0.00  0.00    +0.000 A 
ATOM     13  C   UNL     1       2.750   4.641  19.002  0.00  0.00    +0.000 A 
ENDROOT
BRANCH  10  14
ATOM     14  N   UNL     1       1.144   7.971  20.999  0.00  0.00    +0.000 N 
ATOM     15  C   UNL     1       0.695   9.152  20.430  0.00  0.00    +0.000 C 
ATOM     16  O   UNL     1       0.757   9.432  19.236  0.00  0.00    +0.000 OA
ATOM     17  H   UNL     1       0.920   7.853  21.980  0.00  0.00    +0.000 HD
BRANCH  15  18
ATOM     18  C   UNL     1       0.080  10.059  21.381  0.00  0.00    +0.000 A 
ATOM     19  C   UNL     1      -0.499   9.805  22.610  0.00  0.00    +0.000 A 
ATOM     20  C   UNL     1      -0.931  11.046  23.125  0.00  0.00    +0.000 A 
ATOM     21  C   UNL     1      -0.595  11.988  22.181  0.00  0.00    +0.000 A 
ATOM     22  O   UNL     1       0.021  11.405  21.117  0.00  0.00    +0.000 OA
ENDBRANCH  15  18
ENDBRANCH  10  14
BRANCH   1  24
ATOM     23  C   UNL     1       4.008   1.547  19.063  0.00  0.00    +0.000 C 
ATOM     24  C   UNL     1       3.068   2.303  18.144  0.00  0.00    +0.000 C 
ENDBRANCH   1  24
TORSDOF 3
ENDMDL
MODEL 6
REMARK VINA RESULT:      -7.6      2.954      8.154
REMARK  Name = 
REMARK  4 active torsions:
REMARK  status: ('A' for Active; 'I' for Inactive)
REMARK    1  A    between atoms: C_1  and  C_2
REMARK    2  A    between atoms: C_2  and  N_3
REMARK    3  A    between atoms: C_12  and  N_13
REMARK    4  A    between atoms: C_14  and  C_16
REMARK                            x       y       z     vdW  Elec       q    Type
REMARK                         _______ _______ _______ _____ _____    ______ ____
ROOT
ATOM      1  N   UNL     1       0.600  10.820  19.491  0.00  0.00    +0.000 N 
ATOM      2  C   UNL     1       0.029  10.876  20.749  0.00  0.00    +0.000 A 
ATOM      3  C   UNL     1      -0.682  11.899  21.400  0.00  0.00    +0.000 A 
ATOM      4  C   UNL     1      -1.160  11.653  22.691  0.00  0.00    +0.000 A 
ATOM      5  C   UNL     1      -0.943  10.428  23.313  0.00  0.00    +0.000 A 
ATOM      6  C   UNL     1      -0.237   9.415  22.655  0.00  0.00    +0.000 A 
ATOM      7  C   UNL     1       0.263   9.641  21.355  0.00  0.00    +0.000 A 
ATOM      8  C   UNL     1       1.008   8.842  20.433  0.00  0.00    +0.000 A 
ATOM      9  C   UNL     1       1.503   7.519  20.472  0.00  0.00    +0.000 A 
ATOM     10  C   UNL     1       2.226   6.999  19.392  0.00  0.00    +0.000 A 
ATOM     11  C   UNL     1       2.507   7.823  18.299  0.00  0.00    +0.000 A 
ATOM     12  C   UNL     1       2.018   9.134  18.227  0.00  0.00    +0.000 A 
ATOM     13  C   UNL     1       1.251   9.615  19.299  0.00  0.00    +0.000 A 
ENDROOT
BRANCH  10  14
ATOM     14  N   UNL     1       2.689   5.667  19.344  0.00  0.00    +0.000 N 
ATOM     15  C   UNL     1       2.253   4.667  18.490  0.00  0.00    +0.000 C 
ATOM     16  O   UNL     1       1.379   4.796  17.635  0.00  0.00    +0.000 OA
ATOM     17  H   UNL     1       3.492   5.427  19.914  0.00  0.00    +0.000 HD
BRANCH  15  18
ATOM     18  C   UNL     1       2.961   3.412  18.653  0.00  0.00    +0.000 A 
ATOM     19  C   UNL     1       2.899   2.249  17.908  0.00  0.00    +0.000 A 
ATOM     20  C   UNL     1       3.804   1.338  18.493  0.00  0.00    +0.000 A 
ATOM     21  C   UNL     1       4.367   1.993  19.563  0.00  0.00    +0.000 A 
ATOM     22  O   UNL     1       3.866   3.254  19.672  0.00  0.00    +0.000 OA
ENDBRANCH  15  18
ENDBRANCH  10  14
BRANCH   1  24
ATOM     23  C   UNL     1       1.638  12.844  18.526  0.00  0.00    +0.000 C 
ATOM     24  C   UNL     1       0.484  11.861  18.482  0.00  0.00    +0.000 C 
ENDBRANCH   1  24
TORSDOF 3
ENDMDL
MODEL 7
REMARK VINA RESULT:      -7.6      1.309      1.377
REMARK  Name = 
REMARK  4 active torsions:
REMARK  status: ('A' for Active; 'I' for Inactive)
REMARK    1  A    between atoms: C_1  and  C_2
REMARK    2  A    between atoms: C_2  and  N_3
REMARK    3  A    between atoms: C_12  and  N_13
REMARK    4  A    between atoms: C_14  and  C_16
REMARK                            x       y       z     vdW  Elec       q    Type
REMARK                         _______ _______ _______ _____ _____    ______ ____
ROOT
ATOM      1  N   UNL     1       3.366   4.103  18.617  0.00  0.00    +0.000 N 
ATOM      2  C   UNL     1       4.144   4.492  17.543  0.00  0.00    +0.000 A 
ATOM      3  C   UNL     1       4.937   3.746  16.653  0.00  0.00    +0.000 A 
ATOM      4  C   UNL     1       5.611   4.430  15.636  0.00  0.00    +0.000 A 
ATOM      5  C   UNL     1       5.496   5.810  15.504  0.00  0.00    +0.000 A 
ATOM      6  C   UNL     1       4.702   6.543  16.392  0.00  0.00    +0.000 A 
ATOM      7  C   UNL     1       4.018   5.878  17.432  0.00  0.00    +0.000 A 
ATOM      8  C   UNL     1       3.154   6.317  18.483  0.00  0.00    +0.000 A 
ATOM      9  C   UNL     1       2.644   7.581  18.858  0.00  0.00    +0.000 A 
ATOM     10  C   UNL     1       1.804   7.706  19.970  0.00  0.00    +0.000 A 
ATOM     11  C   UNL     1       1.522   6.577  20.743  0.00  0.00    +0.000 A 
ATOM     12  C   UNL     1       2.003   5.309  20.389  0.00  0.00    +0.000 A 
ATOM     13  C   UNL     1       2.801   5.201  19.239  0.00  0.00    +0.000 A 
ENDROOT
BRANCH  10  14
ATOM     14  N   UNL     1       1.211   8.927  20.355  0.00  0.00    +0.000 N 
ATOM     15  C   UNL     1       0.566   9.834  19.530  0.00  0.00    +0.000 C 
ATOM     16  O   UNL     1       0.417   9.707  18.317  0.00  0.00    +0.000 OA
ATOM     17  H   UNL     1       1.152   9.129  21.347  0.00  0.00    +0.000 HD
BRANCH  15  18
ATOM     18  C   UNL     1       0.018  10.976  20.236  0.00  0.00    +0.000 A 
ATOM     19  C   UNL     1      -1.142  11.693  20.008  0.00  0.00    +0.000 A 
ATOM     20  C   UNL     1      -1.204  12.699  20.997  0.00  0.00    +0.000 A 
ATOM     21  C   UNL     1      -0.079  12.542  21.771  0.00  0.00    +0.000 A 
ATOM     22  O   UNL     1       0.672  11.499  21.323  0.00  0.00    +0.000 OA
ENDBRANCH  15  18
ENDBRANCH  10  14
BRANCH   1  24
ATOM     23  C   UNL     1       1.810   2.189  18.469  0.00  0.00    +0.000 C 
ATOM     24  C   UNL     1       3.124   2.723  19.006  0.00  0.00    +0.000 C 
ENDBRANCH   1  24
TORSDOF 3
ENDMDL
MODEL 8
REMARK VINA RESULT:      -7.4      1.504      3.362
REMARK  Name = 
REMARK  4 active torsions:
REMARK  status: ('A' for Active; 'I' for Inactive)
REMARK    1  A    between atoms: C_1  and  C_2
REMARK    2  A    between atoms: C_2  and  N_3
REMARK    3  A    between atoms: C_12  and  N_13
REMARK    4  A    between atoms: C_14  and  C_16
REMARK                            x       y       z     vdW  Elec       q    Type
REMARK                         _______ _______ _______ _____ _____    ______ ____
ROOT
ATOM      1  N   UNL     1       3.506   5.679  18.175  0.00  0.00    +0.000 N 
ATOM      2  C   UNL     1       3.287   4.681  19.106  0.00  0.00    +0.000 A 
ATOM      3  C   UNL     1       3.722   3.344  19.154  0.00  0.00    +0.000 A 
ATOM      4  C   UNL     1       3.345   2.566  20.253  0.00  0.00    +0.000 A 
ATOM      5  C   UNL     1       2.565   3.099  21.274  0.00  0.00    +0.000 A 
ATOM      6  C   UNL     1       2.140   4.431  21.219  0.00  0.00    +0.000 A 
ATOM      7  C   UNL     1       2.501   5.236  20.117  0.00  0.00    +0.000 A 
ATOM      8  C   UNL     1       2.235   6.595  19.761  0.00  0.00    +0.000 A 
ATOM      9  C   UNL     1       1.532   7.645  20.391  0.00  0.00    +0.000 A 
ATOM     10  C   UNL     1       1.431   8.900  19.779  0.00  0.00    +0.000 A 
ATOM     11  C   UNL     1       1.982   9.086  18.509  0.00  0.00    +0.000 A 
ATOM     12  C   UNL     1       2.696   8.066  17.865  0.00  0.00    +0.000 A 
ATOM     13  C   UNL     1       2.829   6.833  18.523  0.00  0.00    +0.000 A 
ENDROOT
BRANCH  10  14
ATOM     14  N   UNL     1       0.799  10.006  20.386  0.00  0.00    +0.000 N 
ATOM     15  C   UNL     1      -0.444  10.529  20.069  0.00  0.00    +0.000 C 
ATOM     16  O   UNL     1      -1.191  10.099  19.194  0.00  0.00    +0.000 OA
ATOM     17  H   UNL     1       1.240  10.408  21.206  0.00  0.00    +0.000 HD
BRANCH  15  18
ATOM     18  C   UNL     1      -0.839  11.643  20.910  0.00  0.00    +0.000 A 
ATOM     19  C   UNL     1      -1.905  12.515  20.793  0.00  0.00    +0.000 A 
ATOM     20  C   UNL     1      -1.830  13.405  21.887  0.00  0.00    +0.000 A 
ATOM     21  C   UNL     1      -0.722  13.028  22.609  0.00  0.00    +0.000 A 
ATOM     22  O   UNL     1      -0.111  11.959  22.029  0.00  0.00    +0.000 OA
ENDBRANCH  15  18
ENDBRANCH  10  14
BRANCH   1  24
ATOM     23  C   UNL     1       5.773   6.086  17.281  0.00  0.00    +0.000 C 
ATOM     24  C   UNL     1       4.377   5.554  17.018  0.00  0.00    +0.000 C 
ENDBRANCH   1  24
TORSDOF 3
ENDMDL
MODEL 9
REMARK VINA RESULT:      -7.4      2.745      8.086
REMARK  Name = 
REMARK  4 active torsions:
REMARK  status: ('A' for Active; 'I' for Inactive)
REMARK    1  A    between atoms: C_1  and  C_2
REMARK    2  A    between atoms: C_2  and  N_3
REMARK    3  A    between atoms: C_12  and  N_13
REMARK    4  A    between atoms: C_14  and  C_16
REMARK                            x       y       z     vdW  Elec       q    Type
REMARK                         _______ _______ _______ _____ _____    ______ ____
ROOT
ATOM      1  N   UNL     1       0.876  10.741  19.501  0.00  0.00    +0.000 N 
ATOM      2  C   UNL     1       0.287  10.756  20.751  0.00  0.00    +0.000 A 
ATOM      3  C   UNL     1      -0.369  11.781  21.456  0.00  0.00    +0.000 A 
ATOM      4  C   UNL     1      -0.884  11.487  22.722  0.00  0.00    +0.000 A 
ATOM      5  C   UNL     1      -0.757  10.215  23.269  0.00  0.00    +0.000 A 
ATOM      6  C   UNL     1      -0.105   9.200  22.559  0.00  0.00    +0.000 A 
ATOM      7  C   UNL     1       0.430   9.473  21.282  0.00  0.00    +0.000 A 
ATOM      8  C   UNL     1       1.140   8.686  20.322  0.00  0.00    +0.000 A 
ATOM      9  C   UNL     1       1.548   7.334  20.284  0.00  0.00    +0.000 A 
ATOM     10  C   UNL     1       2.255   6.836  19.185  0.00  0.00    +0.000 A 
ATOM     11  C   UNL     1       2.607   7.705  18.149  0.00  0.00    +0.000 A 
ATOM     12  C   UNL     1       2.205   9.048  18.153  0.00  0.00    +0.000 A 
ATOM     13  C   UNL     1       1.451   9.511  19.242  0.00  0.00    +0.000 A 
ENDROOT
BRANCH  10  14
ATOM     14  N   UNL     1       2.633   5.482  19.059  0.00  0.00    +0.000 N 
ATOM     15  C   UNL     1       3.881   4.941  19.319  0.00  0.00    +0.000 C 
ATOM     16  O   UNL     1       4.863   5.574  19.700  0.00  0.00    +0.000 OA
ATOM     17  H   UNL     1       1.903   4.807  18.857  0.00  0.00    +0.000 HD
BRANCH  15  18
ATOM     18  C   UNL     1       3.941   3.502  19.141  0.00  0.00    +0.000 A 
ATOM     19  C   UNL     1       3.313   2.691  18.214  0.00  0.00    +0.000 A 
ATOM     20  C   UNL     1       3.727   1.368  18.479  0.00  0.00    +0.000 A 
ATOM     21  C   UNL     1       4.583   1.444  19.554  0.00  0.00    +0.000 A 
ATOM     22  O   UNL     1       4.723   2.734  19.965  0.00  0.00    +0.000 OA
ENDBRANCH  15  18
ENDBRANCH  10  14
BRANCH   1  24
ATOM     23  C   UNL     1       2.005  12.806  18.747  0.00  0.00    +0.000 C 
ATOM     24  C   UNL     1       0.844  11.848  18.558  0.00  0.00    +0.000 C 
ENDBRANCH   1  24
TORSDOF 3
ENDMDL
