MODEL 1
REMARK VINA RESULT:      -7.8      0.000      0.000
REMARK  Name = 
REMARK  7 active torsions:
REMARK  status: ('A' for Active; 'I' for Inactive)
REMARK    1  A    between atoms: C_1  and  C_2
REMARK    2  A    between atoms: C_2  and  C_3
REMARK    3  A    between atoms: C_6  and  N_7
REMARK    4  A    between atoms: N_10  and  C_11
REMARK    5  A    between atoms: C_11  and  C_12
REMARK    6  A    between atoms: C_12  and  N_13
REMARK    7  A    between atoms: N_16  and  C_17
REMARK                            x       y       z     vdW  Elec       q    Type
REMARK                         _______ _______ _______ _____ _____    ______ ____
ROOT
ATOM      1  N   UNL     1       3.835   4.085  17.559  0.00  0.00    +0.000 N 
ATOM      2  C   UNL     1       2.523   3.485  17.276  0.00  0.00    +0.000 C 
ATOM      3  C   UNL     1       2.395   2.110  17.966  0.00  0.00    +0.000 C 
ATOM      4  N   UNL     1       2.655   2.124  19.430  0.00  0.00    +0.000 NA
ATOM      5  C   UNL     1       4.017   2.693  19.617  0.00  0.00    +0.000 C 
ATOM      6  C   UNL     1       4.261   4.083  18.968  0.00  0.00    +0.000 C 
ENDROOT
BRANCH   1  10
ATOM      7  C   UNL     1       6.578   4.974  14.478  0.00  0.00    +0.000 A 
ATOM      8  C   UNL     1       5.902   5.995  15.148  0.00  0.00    +0.000 A 
ATOM      9  C   UNL     1       4.998   5.691  16.170  0.00  0.00    +0.000 A 
ATOM     10  C   UNL     1       4.736   4.367  16.552  0.00  0.00    +0.000 A 
ATOM     11  C   UNL     1       5.416   3.357  15.857  0.00  0.00    +0.000 A 
ATOM     12  C   UNL     1       6.321   3.649  14.834  0.00  0.00    +0.000 A 
BRANCH   7  14
ATOM     13  C   UNL     1       7.309   4.600  12.140  0.00  0.00    +0.000 C 
ATOM     14  C   UNL     1       7.632   5.293  13.455  0.00  0.00    +0.000 C 
ENDBRANCH   7  14
ENDBRANCH   1  10
BRANCH   4  15
ATOM     15  C   UNL     1       1.649   2.925  20.164  0.00  0.00    +0.000 C 
BRANCH  15  16
ATOM     16  C   UNL     1       2.139   3.449  21.531  0.00  0.00    +0.000 C 
BRANCH  16  17
ATOM     17  N   UNL     1       2.544   4.847  21.467  0.00  0.00    +0.000 N 
ATOM     18  C   UNL     1       1.832   5.686  20.636  0.00  0.00    +0.000 C 
ATOM     19  O   UNL     1       0.940   5.252  19.910  0.00  0.00    +0.000 OA
ATOM     20  N   UNL     1       2.259   6.995  20.706  0.00  0.00    +0.000 N 
ATOM     21  H   UNL     1       2.945   5.254  22.298  0.00  0.00    +0.000 HD
ATOM     22  H   UNL     1       3.192   7.138  21.064  0.00  0.00    +0.000 HD
BRANCH  20  23
ATOM     23  C   UNL     1       1.659   8.069  20.007  0.00  0.00    +0.000 A 
ATOM     24  C   UNL     1       0.716   8.914  20.602  0.00  0.00    +0.000 A 
ATOM     25  C   UNL     1       0.090   9.924  19.868  0.00  0.00    +0.000 A 
ATOM     26  C   UNL     1       0.420  10.112  18.529  0.00  0.00    +0.000 A 
ATOM     27  C   UNL     1       1.389   9.307  17.934  0.00  0.00    +0.000 A 
ATOM     28  C   UNL     1       2.013   8.291  18.674  0.00  0.00    +0.000 A 
ENDBRANCH  20  23
ENDBRANCH  16  17
ENDBRANCH  15  16
ENDBRANCH   4  15
TORSDOF 6
ENDMDL
MODEL 2
REMARK VINA RESULT:      -7.7      1.960      2.626
REMARK  Name = 
REMARK  7 active torsions:
REMARK  status: ('A' for Active; 'I' for Inactive)
REMARK    1  A    between atoms: C_1  and  C_2
REMARK    2  A    between atoms: C_2  and  C_3
REMARK    3  A    between atoms: C_6  and  N_7
REMARK    4  A    between atoms: N_10  and  C_11
REMARK    5  A    between atoms: C_11  and  C_12
REMARK    6  A    between atoms: C_12  and  N_13
REMARK    7  A    between atoms: N_16  and  C_17
REMARK                            x       y       z     vdW  Elec       q    Type
REMARK                         _______ _______ _______ _____ _____    ______ ____
ROOT
ATOM      1  N   UNL     1       4.666   4.981  17.617  0.00  0.00    +0.000 N 
ATOM      2  C   UNL     1       3.374   5.674  17.717  0.00  0.00    +0.000 C 
ATOM      3  C   UNL     1       2.281   4.712  18.232  0.00  0.00    +0.000 C 
ATOM      4  N   UNL     1       2.607   4.033  19.514  0.00  0.00    +0.000 NA
ATOM      5  C   UNL     1       3.896   3.319  19.304  0.00  0.00    +0.000 C 
ATOM      6  C   UNL     1       5.074   4.191  18.790  0.00  0.00    +0.000 C 
ENDROOT
BRANCH   1  10
ATOM      7  C   UNL     1       6.688   4.559  13.937  0.00  0.00    +0.000 A 
ATOM      8  C   UNL     1       7.355   5.037  15.066  0.00  0.00    +0.000 A 
ATOM      9  C   UNL     1       6.677   5.170  16.282  0.00  0.00    +0.000 A 
ATOM     10  C   UNL     1       5.321   4.837  16.410  0.00  0.00    +0.000 A 
ATOM     11  C   UNL     1       4.668   4.371  15.260  0.00  0.00    +0.000 A 
ATOM     12  C   UNL     1       5.335   4.234  14.040  0.00  0.00    +0.000 A 
BRANCH   7  14
ATOM     13  C   UNL     1       6.713   3.245  11.836  0.00  0.00    +0.000 C 
ATOM     14  C   UNL     1       7.432   4.307  12.656  0.00  0.00    +0.000 C 
ENDBRANCH   7  14
ENDBRANCH   1  10
BRANCH   4  15
ATOM     15  C   UNL     1       2.719   4.992  20.637  0.00  0.00    +0.000 C 
BRANCH  15  16
ATOM     16  C   UNL     1       1.431   5.798  20.907  0.00  0.00    +0.000 C 
BRANCH  16  17
ATOM     17  N   UNL     1       1.683   7.231  20.966  0.00  0.00    +0.000 N 
ATOM     18  C   UNL     1       0.611   8.064  21.202  0.00  0.00    +0.000 C 
ATOM     19  O   UNL     1      -0.533   7.621  21.275  0.00  0.00    +0.000 OA
ATOM     20  N   UNL     1       0.977   9.390  21.302  0.00  0.00    +0.000 N 
ATOM     21  H   UNL     1       2.583   7.531  21.308  0.00  0.00    +0.000 HD
ATOM     22  H   UNL     1       1.863   9.637  20.887  0.00  0.00    +0.000 HD
BRANCH  20  23
ATOM     23  C   UNL     1       0.083  10.445  21.605  0.00  0.00    +0.000 A 
ATOM     24  C   UNL     1      -0.543  10.559  22.850  0.00  0.00    +0.000 A 
ATOM     25  C   UNL     1      -1.473  11.572  23.098  0.00  0.00    +0.000 A 
ATOM     26  C   UNL     1      -1.769  12.497  22.102  0.00  0.00    +0.000 A 
ATOM     27  C   UNL     1      -1.121  12.422  20.870  0.00  0.00    +0.000 A 
ATOM     28  C   UNL     1      -0.191  11.401  20.624  0.00  0.00    +0.000 A 
ENDBRANCH  20  23
ENDBRANCH  16  17
ENDBRANCH  15  16
ENDBRANCH   4  15
TORSDOF 6
ENDMDL
MODEL 3
REMARK VINA RESULT:      -7.7      5.115      7.716
REMARK  Name = 
REMARK  7 active torsions:
REMARK  status: ('A' for Active; 'I' for Inactive)
REMARK    1  A    between atoms: C_1  and  C_2
REMARK    2  A    between atoms: C_2  and  C_3
REMARK    3  A    between atoms: C_6  and  N_7
REMARK    4  A    between atoms: N_10  and  C_11
REMARK    5  A    between atoms: C_11  and  C_12
REMARK    6  A    between atoms: C_12  and  N_13
REMARK    7  A    between atoms: N_16  and  C_17
REMARK                            x       y       z     vdW  Elec       q    Type
REMARK                         _______ _______ _______ _____ _____    ______ ____
ROOT
ATOM      1  N   UNL     1       2.041   7.795  19.469  0.00  0.00    +0.000 N 
ATOM      2  C   UNL     1       2.227   8.627  18.271  0.00  0.00    +0.000 C 
ATOM      3  C   UNL     1       0.970   9.483  18.006  0.00  0.00    +0.000 C 
ATOM      4  N   UNL     1       0.535  10.319  19.156  0.00  0.00    +0.000 NA
ATOM      5  C   UNL     1       0.321   9.393  20.301  0.00  0.00    +0.000 C 
ATOM      6  C   UNL     1       1.525   8.482  20.664  0.00  0.00    +0.000 C 
ENDROOT
BRANCH   1  10
ATOM      7  C   UNL     1       2.118   3.582  19.250  0.00  0.00    +0.000 A 
ATOM      8  C   UNL     1       2.329   4.359  18.110  0.00  0.00    +0.000 A 
ATOM      9  C   UNL     1       2.305   5.755  18.193  0.00  0.00    +0.000 A 
ATOM     10  C   UNL     1       2.068   6.417  19.407  0.00  0.00    +0.000 A 
ATOM     11  C   UNL     1       1.845   5.616  20.536  0.00  0.00    +0.000 A 
ATOM     12  C   UNL     1       1.867   4.221  20.465  0.00  0.00    +0.000 A 
BRANCH   7  14
ATOM     13  C   UNL     1       3.569   1.704  18.537  0.00  0.00    +0.000 C 
ATOM     14  C   UNL     1       2.250   2.086  19.194  0.00  0.00    +0.000 C 
ENDBRANCH   7  14
ENDBRANCH   1  10
BRANCH   4  15
ATOM     15  C   UNL     1       1.538  11.353  19.501  0.00  0.00    +0.000 C 
BRANCH  15  16
ATOM     16  C   UNL     1       1.076  12.797  19.212  0.00  0.00    +0.000 C 
BRANCH  16  17
ATOM     17  N   UNL     1       1.960  13.476  18.274  0.00  0.00    +0.000 N 
ATOM     18  C   UNL     1       3.122  14.029  18.769  0.00  0.00    +0.000 C 
ATOM     19  O   UNL     1       3.363  14.024  19.975  0.00  0.00    +0.000 OA
ATOM     20  N   UNL     1       3.910  14.586  17.784  0.00  0.00    +0.000 N 
ATOM     21  H   UNL     1       1.980  13.137  17.325  0.00  0.00    +0.000 HD
ATOM     22  H   UNL     1       3.441  14.821  16.922  0.00  0.00    +0.000 HD
BRANCH  20  23
ATOM     23  C   UNL     1       5.183  15.162  18.011  0.00  0.00    +0.000 A 
ATOM     24  C   UNL     1       6.371  14.497  17.691  0.00  0.00    +0.000 A 
ATOM     25  C   UNL     1       7.614  15.061  17.988  0.00  0.00    +0.000 A 
ATOM     26  C   UNL     1       7.678  16.313  18.592  0.00  0.00    +0.000 A 
ATOM     27  C   UNL     1       6.504  17.007  18.876  0.00  0.00    +0.000 A 
ATOM     28  C   UNL     1       5.257  16.435  18.580  0.00  0.00    +0.000 A 
ENDBRANCH  20  23
ENDBRANCH  16  17
ENDBRANCH  15  16
ENDBRANCH   4  15
TORSDOF 6
ENDMDL
MODEL 4
REMARK VINA RESULT:      -7.7      1.803      7.839
REMARK  Name = 
REMARK  7 active torsions:
REMARK  status: ('A' for Active; 'I' for Inactive)
REMARK    1  A    between atoms: C_1  and  C_2
REMARK    2  A    between atoms: C_2  and  C_3
REMARK    3  A    between atoms: C_6  and  N_7
REMARK    4  A    between atoms: N_10  and  C_11
REMARK    5  A    between atoms: C_11  and  C_12
REMARK    6  A    between atoms: C_12  and  N_13
REMARK    7  A    between atoms: N_16  and  C_17
REMARK                            x       y       z     vdW  Elec       q    Type
REMARK                         _______ _______ _______ _____ _____    ______ ____
ROOT
ATOM      1  N   UNL     1       2.106   6.635  20.106  0.00  0.00    +0.000 N 
ATOM      2  C   UNL     1       1.820   5.483  20.973  0.00  0.00    +0.000 C 
ATOM      3  C   UNL     1       1.202   4.329  20.155  0.00  0.00    +0.000 C 
ATOM      4  N   UNL     1       2.003   3.905  18.976  0.00  0.00    +0.000 NA
ATOM      5  C   UNL     1       2.197   5.117  18.134  0.00  0.00    +0.000 C 
ATOM      6  C   UNL     1       2.820   6.345  18.853  0.00  0.00    +0.000 C 
ENDROOT
BRANCH   1  10
ATOM      7  C   UNL     1       0.267  10.388  20.683  0.00  0.00    +0.000 A 
ATOM      8  C   UNL     1       0.945  10.102  19.498  0.00  0.00    +0.000 A 
ATOM      9  C   UNL     1       1.549   8.854  19.314  0.00  0.00    +0.000 A 
ATOM     10  C   UNL     1       1.499   7.859  20.302  0.00  0.00    +0.000 A 
ATOM     11  C   UNL     1       0.823   8.173  21.490  0.00  0.00    +0.000 A 
ATOM     12  C   UNL     1       0.217   9.417  21.684  0.00  0.00    +0.000 A 
BRANCH   7  14
ATOM     13  C   UNL     1       0.483  12.856  20.731  0.00  0.00    +0.000 C 
ATOM     14  C   UNL     1      -0.479  11.683  20.847  0.00  0.00    +0.000 C 
ENDBRANCH   7  14
ENDBRANCH   1  10
BRANCH   4  15
ATOM     15  C   UNL     1       3.310   3.330  19.371  0.00  0.00    +0.000 C 
BRANCH  15  16
ATOM     16  C   UNL     1       4.526   4.038  18.737  0.00  0.00    +0.000 C 
BRANCH  16  17
ATOM     17  N   UNL     1       5.021   3.329  17.564  0.00  0.00    +0.000 N 
ATOM     18  C   UNL     1       5.424   4.080  16.481  0.00  0.00    +0.000 C 
ATOM     19  O   UNL     1       5.291   5.302  16.472  0.00  0.00    +0.000 OA
ATOM     20  N   UNL     1       5.934   3.310  15.457  0.00  0.00    +0.000 N 
ATOM     21  H   UNL     1       5.492   2.451  17.716  0.00  0.00    +0.000 HD
ATOM     22  H   UNL     1       5.667   2.336  15.460  0.00  0.00    +0.000 HD
BRANCH  20  23
ATOM     23  C   UNL     1       6.477   3.832  14.260  0.00  0.00    +0.000 A 
ATOM     24  C   UNL     1       7.405   4.879  14.254  0.00  0.00    +0.000 A 
ATOM     25  C   UNL     1       7.873   5.420  13.054  0.00  0.00    +0.000 A 
ATOM     26  C   UNL     1       7.430   4.899  11.842  0.00  0.00    +0.000 A 
ATOM     27  C   UNL     1       6.539   3.828  11.831  0.00  0.00    +0.000 A 
ATOM     28  C   UNL     1       6.068   3.290  13.039  0.00  0.00    +0.000 A 
ENDBRANCH  20  23
ENDBRANCH  16  17
ENDBRANCH  15  16
ENDBRANCH   4  15
TORSDOF 6
ENDMDL
MODEL 5
REMARK VINA RESULT:      -7.6      5.140      7.753
REMARK  Name = 
REMARK  7 active torsions:
REMARK  status: ('A' for Active; 'I' for Inactive)
REMARK    1  A    between atoms: C_1  and  C_2
REMARK    2  A    between atoms: C_2  and  C_3
REMARK    3  A    between atoms: C_6  and  N_7
REMARK    4  A    between atoms: N_10  and  C_11
REMARK    5  A    between atoms: C_11  and  C_12
REMARK    6  A    between atoms: C_12  and  N_13
REMARK    7  A    between atoms: N_16  and  C_17
REMARK                            x       y       z     vdW  Elec       q    Type
REMARK                         _______ _______ _______ _____ _____    ______ ____
ROOT
ATOM      1  N   UNL     1       1.093   8.667  20.143  0.00  0.00    +0.000 N 
ATOM      2  C   UNL     1       0.792   8.319  21.539  0.00  0.00    +0.000 C 
ATOM      3  C   UNL     1       1.223   9.458  22.488  0.00  0.00    +0.000 C 
ATOM      4  N   UNL     1       0.657  10.792  22.152  0.00  0.00    +0.000 NA
ATOM      5  C   UNL     1       1.054  11.083  20.748  0.00  0.00    +0.000 C 
ATOM      6  C   UNL     1       0.666  10.004  19.700  0.00  0.00    +0.000 C 
ENDROOT
BRANCH   1  10
ATOM      7  C   UNL     1       3.759   6.398  17.789  0.00  0.00    +0.000 A 
ATOM      8  C   UNL     1       3.320   7.652  17.361  0.00  0.00    +0.000 A 
ATOM      9  C   UNL     1       2.439   8.398  18.149  0.00  0.00    +0.000 A 
ATOM     10  C   UNL     1       1.967   7.920  19.381  0.00  0.00    +0.000 A 
ATOM     11  C   UNL     1       2.411   6.653  19.785  0.00  0.00    +0.000 A 
ATOM     12  C   UNL     1       3.291   5.899  19.005  0.00  0.00    +0.000 A 
BRANCH   7  14
ATOM     13  C   UNL     1       4.343   4.194  16.818  0.00  0.00    +0.000 C 
ATOM     14  C   UNL     1       4.791   5.637  17.003  0.00  0.00    +0.000 C 
ENDBRANCH   7  14
ENDBRANCH   1  10
BRANCH   4  15
ATOM     15  C   UNL     1      -0.817  10.821  22.295  0.00  0.00    +0.000 C 
BRANCH  15  16
ATOM     16  C   UNL     1      -1.359  12.107  22.953  0.00  0.00    +0.000 C 
BRANCH  16  17
ATOM     17  N   UNL     1      -2.808  12.076  23.103  0.00  0.00    +0.000 N 
ATOM     18  C   UNL     1      -3.572  12.559  22.062  0.00  0.00    +0.000 C 
ATOM     19  O   UNL     1      -3.049  13.076  21.077  0.00  0.00    +0.000 OA
ATOM     20  N   UNL     1      -4.926  12.420  22.285  0.00  0.00    +0.000 N 
ATOM     21  H   UNL     1      -3.202  11.333  23.658  0.00  0.00    +0.000 HD
ATOM     22  H   UNL     1      -5.207  12.306  23.248  0.00  0.00    +0.000 HD
BRANCH  20  23
ATOM     23  C   UNL     1      -5.929  12.774  21.352  0.00  0.00    +0.000 A 
ATOM     24  C   UNL     1      -6.432  11.865  20.415  0.00  0.00    +0.000 A 
ATOM     25  C   UNL     1      -7.373  12.261  19.462  0.00  0.00    +0.000 A 
ATOM     26  C   UNL     1      -7.838  13.572  19.452  0.00  0.00    +0.000 A 
ATOM     27  C   UNL     1      -7.379  14.478  20.407  0.00  0.00    +0.000 A 
ATOM     28  C   UNL     1      -6.431  14.077  21.360  0.00  0.00    +0.000 A 
ENDBRANCH  20  23
ENDBRANCH  16  17
ENDBRANCH  15  16
ENDBRANCH   4  15
TORSDOF 6
ENDMDL
MODEL 6
REMARK VINA RESULT:      -7.6      4.447      7.574
REMARK  Name = 
REMARK  7 active torsions:
REMARK  status: ('A' for Active; 'I' for Inactive)
REMARK    1  A    between atoms: C_1  and  C_2
REMARK    2  A    between atoms: C_2  and  C_3
REMARK    3  A    between atoms: C_6  and  N_7
REMARK    4  A    between atoms: N_10  and  C_11
REMARK    5  A    between atoms: C_11  and  C_12
REMARK    6  A    between atoms: C_12  and  N_13
REMARK    7  A    between atoms: N_16  and  C_17
REMARK                            x       y       z     vdW  Elec       q    Type
REMARK                         _______ _______ _______ _____ _____    ______ ____
ROOT
ATOM      1  N   UNL     1       3.085   7.444  18.825  0.00  0.00    +0.000 N 
ATOM      2  C   UNL     1       3.069   6.101  19.423  0.00  0.00    +0.000 C 
ATOM      3  C   UNL     1       3.233   5.020  18.333  0.00  0.00    +0.000 C 
ATOM      4  N   UNL     1       4.431   5.188  17.467  0.00  0.00    +0.000 NA
ATOM      5  C   UNL     1       4.336   6.546  16.866  0.00  0.00    +0.000 C 
ATOM      6  C   UNL     1       4.173   7.719  17.872  0.00  0.00    +0.000 C 
ENDROOT
BRANCH   1  10
ATOM      7  C   UNL     1      -0.236  10.027  19.135  0.00  0.00    +0.000 A 
ATOM      8  C   UNL     1       0.292   9.406  20.268  0.00  0.00    +0.000 A 
ATOM      9  C   UNL     1       1.395   8.554  20.156  0.00  0.00    +0.000 A 
ATOM     10  C   UNL     1       2.001   8.293  18.918  0.00  0.00    +0.000 A 
ATOM     11  C   UNL     1       1.446   8.917  17.792  0.00  0.00    +0.000 A 
ATOM     12  C   UNL     1       0.344   9.770  17.893  0.00  0.00    +0.000 A 
BRANCH   7  14
ATOM     13  C   UNL     1      -1.013  12.283  18.464  0.00  0.00    +0.000 C 
ATOM     14  C   UNL     1      -1.350  11.029  19.259  0.00  0.00    +0.000 C 
ENDBRANCH   7  14
ENDBRANCH   1  10
BRANCH   4  15
ATOM     15  C   UNL     1       5.691   5.042  18.230  0.00  0.00    +0.000 C 
BRANCH  15  16
ATOM     16  C   UNL     1       6.934   5.598  17.503  0.00  0.00    +0.000 C 
BRANCH  16  17
ATOM     17  N   UNL     1       7.790   6.371  18.394  0.00  0.00    +0.000 N 
ATOM     18  C   UNL     1       7.974   7.707  18.111  0.00  0.00    +0.000 C 
ATOM     19  O   UNL     1       7.501   8.211  17.095  0.00  0.00    +0.000 OA
ATOM     20  N   UNL     1       8.745   8.351  19.055  0.00  0.00    +0.000 N 
ATOM     21  H   UNL     1       7.818   6.097  19.364  0.00  0.00    +0.000 HD
ATOM     22  H   UNL     1       9.334   7.760  19.624  0.00  0.00    +0.000 HD
BRANCH  20  23
ATOM     23  C   UNL     1       9.034   9.737  19.041  0.00  0.00    +0.000 A 
ATOM     24  C   UNL     1       9.056  10.483  17.858  0.00  0.00    +0.000 A 
ATOM     25  C   UNL     1       9.410  11.834  17.866  0.00  0.00    +0.000 A 
ATOM     26  C   UNL     1       9.726  12.459  19.068  0.00  0.00    +0.000 A 
ATOM     27  C   UNL     1       9.667  11.740  20.260  0.00  0.00    +0.000 A 
ATOM     28  C   UNL     1       9.314  10.382  20.248  0.00  0.00    +0.000 A 
ENDBRANCH  20  23
ENDBRANCH  16  17
ENDBRANCH  15  16
ENDBRANCH   4  15
TORSDOF 6
ENDMDL
MODEL 7
REMARK VINA RESULT:      -7.6      4.595      7.546
REMARK  Name = 
REMARK  7 active torsions:
REMARK  status: ('A' for Active; 'I' for Inactive)
REMARK    1  A    between atoms: C_1  and  C_2
REMARK    2  A    between atoms: C_2  and  C_3
REMARK    3  A    between atoms: C_6  and  N_7
REMARK    4  A    between atoms: N_10  and  C_11
REMARK    5  A    between atoms: C_11  and  C_12
REMARK    6  A    between atoms: C_12  and  N_13
REMARK    7  A    between atoms: N_16  and  C_17
REMARK                            x       y       z     vdW  Elec       q    Type
REMARK                         _______ _______ _______ _____ _____    ______ ____
ROOT
ATOM      1  N   UNL     1       1.878   8.282  19.518  0.00  0.00    +0.000 N 
ATOM      2  C   UNL     1       1.902   9.136  18.321  0.00  0.00    +0.000 C 
ATOM      3  C   UNL     1       0.514   9.764  18.074  0.00  0.00    +0.000 C 
ATOM      4  N   UNL     1      -0.044  10.510  19.233  0.00  0.00    +0.000 NA
ATOM      5  C   UNL     1      -0.081   9.558  20.377  0.00  0.00    +0.000 C 
ATOM      6  C   UNL     1       1.267   8.867  20.722  0.00  0.00    +0.000 C 
ENDROOT
BRANCH   1  10
ATOM      7  C   UNL     1       2.681   4.147  19.279  0.00  0.00    +0.000 A 
ATOM      8  C   UNL     1       2.979   4.994  18.211  0.00  0.00    +0.000 A 
ATOM      9  C   UNL     1       2.713   6.363  18.300  0.00  0.00    +0.000 A 
ATOM     10  C   UNL     1       2.140   6.929  19.449  0.00  0.00    +0.000 A 
ATOM     11  C   UNL     1       1.837   6.058  20.505  0.00  0.00    +0.000 A 
ATOM     12  C   UNL     1       2.098   4.687  20.426  0.00  0.00    +0.000 A 
BRANCH   7  14
ATOM     13  C   UNL     1       2.721   2.104  17.876  0.00  0.00    +0.000 C 
ATOM     14  C   UNL     1       3.064   2.693  19.237  0.00  0.00    +0.000 C 
ENDBRANCH   7  14
ENDBRANCH   1  10
BRANCH   4  15
ATOM     15  C   UNL     1       0.770  11.700  19.571  0.00  0.00    +0.000 C 
BRANCH  15  16
ATOM     16  C   UNL     1      -0.002  12.793  20.339  0.00  0.00    +0.000 C 
BRANCH  16  17
ATOM     17  N   UNL     1      -1.302  13.067  19.741  0.00  0.00    +0.000 N 
ATOM     18  C   UNL     1      -2.427  12.732  20.465  0.00  0.00    +0.000 C 
ATOM     19  O   UNL     1      -2.337  12.145  21.542  0.00  0.00    +0.000 OA
ATOM     20  N   UNL     1      -3.597  13.096  19.832  0.00  0.00    +0.000 N 
ATOM     21  H   UNL     1      -1.372  13.860  19.123  0.00  0.00    +0.000 HD
ATOM     22  H   UNL     1      -3.533  13.245  18.836  0.00  0.00    +0.000 HD
BRANCH  20  23
ATOM     23  C   UNL     1      -4.889  12.928  20.384  0.00  0.00    +0.000 A 
ATOM     24  C   UNL     1      -5.379  13.751  21.404  0.00  0.00    +0.000 A 
ATOM     25  C   UNL     1      -6.631  13.519  21.976  0.00  0.00    +0.000 A 
ATOM     26  C   UNL     1      -7.418  12.468  21.516  0.00  0.00    +0.000 A 
ATOM     27  C   UNL     1      -6.963  11.666  20.471  0.00  0.00    +0.000 A 
ATOM     28  C   UNL     1      -5.702  11.900  19.901  0.00  0.00    +0.000 A 
ENDBRANCH  20  23
ENDBRANCH  16  17
ENDBRANCH  15  16
ENDBRANCH   4  15
TORSDOF 6
ENDMDL
MODEL 8
REMARK VINA RESULT:      -7.6      4.964      7.746
REMARK  Name = 
REMARK  7 active torsions:
REMARK  status: ('A' for Active; 'I' for Inactive)
REMARK    1  A    between atoms: C_1  and  C_2
REMARK    2  A    between atoms: C_2  and  C_3
REMARK    3  A    between atoms: C_6  and  N_7
REMARK    4  A    between atoms: N_10  and  C_11
REMARK    5  A    between atoms: C_11  and  C_12
REMARK    6  A    between atoms: C_12  and  N_13
REMARK    7  A    between atoms: N_16  and  C_17
REMARK                            x       y       z     vdW  Elec       q    Type
REMARK                         _______ _______ _______ _____ _____    ______ ____
ROOT
ATOM      1  N   UNL     1       1.761   8.285  19.941  0.00  0.00    +0.000 N 
ATOM      2  C   UNL     1       1.600   9.378  18.971  0.00  0.00    +0.000 C 
ATOM      3  C   UNL     1       0.146   9.895  18.973  0.00  0.00    +0.000 C 
ATOM      4  N   UNL     1      -0.365  10.306  20.307  0.00  0.00    +0.000 NA
ATOM      5  C   UNL     1      -0.213   9.128  21.204  0.00  0.00    +0.000 C 
ATOM      6  C   UNL     1       1.215   8.524  21.287  0.00  0.00    +0.000 C 
ENDROOT
BRANCH   1  10
ATOM      7  C   UNL     1       2.894   4.411  18.712  0.00  0.00    +0.000 A 
ATOM      8  C   UNL     1       3.055   5.504  17.860  0.00  0.00    +0.000 A 
ATOM      9  C   UNL     1       2.680   6.785  18.277  0.00  0.00    +0.000 A 
ATOM     10  C   UNL     1       2.132   7.015  19.548  0.00  0.00    +0.000 A 
ATOM     11  C   UNL     1       1.967   5.900  20.382  0.00  0.00    +0.000 A 
ATOM     12  C   UNL     1       2.338   4.616  19.975  0.00  0.00    +0.000 A 
BRANCH   7  14
ATOM     13  C   UNL     1       2.330   2.001  18.599  0.00  0.00    +0.000 C 
ATOM     14  C   UNL     1       3.395   3.049  18.317  0.00  0.00    +0.000 C 
ENDBRANCH   7  14
ENDBRANCH   1  10
BRANCH   4  15
ATOM     15  C   UNL     1       0.371  11.472  20.848  0.00  0.00    +0.000 C 
BRANCH  15  16
ATOM     16  C   UNL     1      -0.526  12.684  21.178  0.00  0.00    +0.000 C 
BRANCH  16  17
ATOM     17  N   UNL     1       0.173  13.948  20.994  0.00  0.00    +0.000 N 
ATOM     18  C   UNL     1       0.061  14.573  19.770  0.00  0.00    +0.000 C 
ATOM     19  O   UNL     1      -0.538  14.041  18.838  0.00  0.00    +0.000 OA
ATOM     20  N   UNL     1       0.707  15.791  19.732  0.00  0.00    +0.000 N 
ATOM     21  H   UNL     1       0.288  14.539  21.803  0.00  0.00    +0.000 HD
ATOM     22  H   UNL     1       1.425  15.933  20.427  0.00  0.00    +0.000 HD
BRANCH  20  23
ATOM     23  C   UNL     1       0.696  16.666  18.620  0.00  0.00    +0.000 A 
ATOM     24  C   UNL     1       1.845  16.938  17.870  0.00  0.00    +0.000 A 
ATOM     25  C   UNL     1       1.819  17.858  16.820  0.00  0.00    +0.000 A 
ATOM     26  C   UNL     1       0.629  18.503  16.495  0.00  0.00    +0.000 A 
ATOM     27  C   UNL     1      -0.534  18.210  17.204  0.00  0.00    +0.000 A 
ATOM     28  C   UNL     1      -0.503  17.288  18.261  0.00  0.00    +0.000 A 
ENDBRANCH  20  23
ENDBRANCH  16  17
ENDBRANCH  15  16
ENDBRANCH   4  15
TORSDOF 6
ENDMDL
MODEL 9
REMARK VINA RESULT:      -7.6      1.888      8.097
REMARK  Name = 
REMARK  7 active torsions:
REMARK  status: ('A' for Active; 'I' for Inactive)
REMARK    1  A    between atoms: C_1  and  C_2
REMARK    2  A    between atoms: C_2  and  C_3
REMARK    3  A    between atoms: C_6  and  N_7
REMARK    4  A    between atoms: N_10  and  C_11
REMARK    5  A    between atoms: C_11  and  C_12
REMARK    6  A    between atoms: C_12  and  N_13
REMARK    7  A    between atoms: N_16  and  C_17
REMARK                            x       y       z     vdW  Elec       q    Type
REMARK                         _______ _______ _______ _____ _____    ______ ____
ROOT
ATOM      1  N   UNL     1       1.993   7.090  20.360  0.00  0.00    +0.000 N 
ATOM      2  C   UNL     1       1.676   5.852  21.085  0.00  0.00    +0.000 C 
ATOM      3  C   UNL     1       1.281   4.732  20.099  0.00  0.00    +0.000 C 
ATOM      4  N   UNL     1       2.279   4.466  19.029  0.00  0.00    +0.000 NA
ATOM      5  C   UNL     1       2.496   5.755  18.318  0.00  0.00    +0.000 C 
ATOM      6  C   UNL     1       2.905   6.958  19.213  0.00  0.00    +0.000 C 
ENDROOT
BRANCH   1  10
ATOM      7  C   UNL     1      -0.213  10.643  20.918  0.00  0.00    +0.000 A 
ATOM      8  C   UNL     1       0.378  10.357  19.687  0.00  0.00    +0.000 A 
ATOM      9  C   UNL     1       1.105   9.176  19.510  0.00  0.00    +0.000 A 
ATOM     10  C   UNL     1       1.267   8.248  20.550  0.00  0.00    +0.000 A 
ATOM     11  C   UNL     1       0.676   8.562  21.782  0.00  0.00    +0.000 A 
ATOM     12  C   UNL     1      -0.052   9.740  21.969  0.00  0.00    +0.000 A 
BRANCH   7  14
ATOM     13  C   UNL     1      -0.228  13.105  21.206  0.00  0.00    +0.000 C 
ATOM     14  C   UNL     1      -1.087  11.855  21.087  0.00  0.00    +0.000 C 
ENDBRANCH   7  14
ENDBRANCH   1  10
BRANCH   4  15
ATOM     15  C   UNL     1       3.554   3.950  19.576  0.00  0.00    +0.000 C 
BRANCH  15  16
ATOM     16  C   UNL     1       4.812   4.551  18.912  0.00  0.00    +0.000 C 
BRANCH  16  17
ATOM     17  N   UNL     1       5.287   3.737  17.802  0.00  0.00    +0.000 N 
ATOM     18  C   UNL     1       5.520   4.364  16.597  0.00  0.00    +0.000 C 
ATOM     19  O   UNL     1       5.256   5.555  16.440  0.00  0.00    +0.000 OA
ATOM     20  N   UNL     1       6.029   3.511  15.640  0.00  0.00    +0.000 N 
ATOM     21  H   UNL     1       5.860   2.937  18.024  0.00  0.00    +0.000 HD
ATOM     22  H   UNL     1       5.868   2.526  15.796  0.00  0.00    +0.000 HD
BRANCH  20  23
ATOM     23  C   UNL     1       6.417   3.911  14.340  0.00  0.00    +0.000 A 
ATOM     24  C   UNL     1       5.914   3.296  13.188  0.00  0.00    +0.000 A 
ATOM     25  C   UNL     1       6.366   3.666  11.919  0.00  0.00    +0.000 A 
ATOM     26  C   UNL     1       7.316   4.674  11.790  0.00  0.00    +0.000 A 
ATOM     27  C   UNL     1       7.794   5.326  12.925  0.00  0.00    +0.000 A 
ATOM     28  C   UNL     1       7.340   4.949  14.199  0.00  0.00    +0.000 A 
ENDBRANCH  20  23
ENDBRANCH  16  17
ENDBRANCH  15  16
ENDBRANCH   4  15
TORSDOF 6
ENDMDL
