MODEL 1
REMARK VINA RESULT:      -8.3      0.000      0.000
REMARK  Name = 
REMARK  4 active torsions:
REMARK  status: ('A' for Active; 'I' for Inactive)
REMARK    1  A    between atoms: C_2  and  O_3
REMARK    2  A    between atoms: C_2  and  C_11
REMARK    3  A    between atoms: O_3  and  C_4
REMARK    4  A    between atoms: C_9  and  O_10
REMARK                            x       y       z     vdW  Elec       q    Type
REMARK                         _______ _______ _______ _____ _____    ______ ____
ROOT
ATOM      1  O   UNL     1       7.253   4.654  17.264  0.00  0.00    +0.000 OA
ATOM      2  C   UNL     1       6.370   5.225  16.650  0.00  0.00    +0.000 C 
ENDROOT
BRANCH   2   3
ATOM      3  C   UNL     1       5.022   5.556  17.203  0.00  0.00    +0.000 A 
ATOM      4  C   UNL     1       4.756   6.932  17.331  0.00  0.00    +0.000 A 
ATOM      5  C   UNL     1       3.497   7.371  17.723  0.00  0.00    +0.000 A 
ATOM      6  C   UNL     1       2.495   6.442  17.984  0.00  0.00    +0.000 A 
ATOM      7  C   UNL     1       2.736   5.064  17.876  0.00  0.00    +0.000 A 
ATOM      8  C   UNL     1       1.698   4.157  18.142  0.00  0.00    +0.000 A 
ATOM      9  C   UNL     1       1.905   2.782  18.065  0.00  0.00    +0.000 A 
ATOM     10  C   UNL     1       3.160   2.294  17.737  0.00  0.00    +0.000 A 
ATOM     11  C   UNL     1       4.204   3.182  17.468  0.00  0.00    +0.000 A 
ATOM     12  C   UNL     1       4.021   4.589  17.503  0.00  0.00    +0.000 A 
ENDBRANCH   2   3
BRANCH   2  13
ATOM     13  O   UNL     1       6.467   5.801  15.394  0.00  0.00    +0.000 OA
BRANCH  13  14
ATOM     14  C   UNL     1       6.517   4.936  14.292  0.00  0.00    +0.000 A 
ATOM     15  C   UNL     1       5.401   4.129  14.073  0.00  0.00    +0.000 A 
ATOM     16  C   UNL     1       5.324   3.358  12.911  0.00  0.00    +0.000 A 
ATOM     17  C   UNL     1       6.357   3.407  11.972  0.00  0.00    +0.000 A 
ATOM     18  C   UNL     1       7.463   4.234  12.182  0.00  0.00    +0.000 A 
ATOM     19  C   UNL     1       7.533   5.011  13.335  0.00  0.00    +0.000 A 
BRANCH  19  20
ATOM     20  O   UNL     1       8.564   5.893  13.494  0.00  0.00    +0.000 OA
ATOM     21  H   UNL     1       9.333   5.576  12.997  0.00  0.00    +0.000 HD
ENDBRANCH  19  20
ENDBRANCH  13  14
ENDBRANCH   2  13
TORSDOF 4
ENDMDL
MODEL 2
REMARK VINA RESULT:      -7.8      3.274      4.816
REMARK  Name = 
REMARK  4 active torsions:
REMARK  status: ('A' for Active; 'I' for Inactive)
REMARK    1  A    between atoms: C_2  and  O_3
REMARK    2  A    between atoms: C_2  and  C_11
REMARK    3  A    between atoms: O_3  and  C_4
REMARK    4  A    between atoms: C_9  and  O_10
REMARK                            x       y       z     vdW  Elec       q    Type
REMARK                         _______ _______ _______ _____ _____    ______ ____
ROOT
ATOM      1  O   UNL     1       4.660   3.304  17.166  0.00  0.00    +0.000 OA
ATOM      2  C   UNL     1       4.816   3.733  18.295  0.00  0.00    +0.000 C 
ENDROOT
BRANCH   2   3
ATOM      3  C   UNL     1       3.735   3.855  19.318  0.00  0.00    +0.000 A 
ATOM      4  C   UNL     1       3.518   2.701  20.093  0.00  0.00    +0.000 A 
ATOM      5  C   UNL     1       2.622   2.724  21.155  0.00  0.00    +0.000 A 
ATOM      6  C   UNL     1       1.941   3.900  21.454  0.00  0.00    +0.000 A 
ATOM      7  C   UNL     1       2.128   5.062  20.691  0.00  0.00    +0.000 A 
ATOM      8  C   UNL     1       1.427   6.231  21.027  0.00  0.00    +0.000 A 
ATOM      9  C   UNL     1       1.571   7.398  20.281  0.00  0.00    +0.000 A 
ATOM     10  C   UNL     1       2.408   7.407  19.176  0.00  0.00    +0.000 A 
ATOM     11  C   UNL     1       3.115   6.254  18.828  0.00  0.00    +0.000 A 
ATOM     12  C   UNL     1       3.019   5.057  19.585  0.00  0.00    +0.000 A 
ENDBRANCH   2   3
BRANCH   2  13
ATOM     13  O   UNL     1       6.017   4.058  18.904  0.00  0.00    +0.000 OA
BRANCH  13  14
ATOM     14  C   UNL     1       6.682   5.204  18.446  0.00  0.00    +0.000 A 
ATOM     15  C   UNL     1       6.184   5.801  17.289  0.00  0.00    +0.000 A 
ATOM     16  C   UNL     1       6.705   7.026  16.866  0.00  0.00    +0.000 A 
ATOM     17  C   UNL     1       7.713   7.649  17.607  0.00  0.00    +0.000 A 
ATOM     18  C   UNL     1       8.194   7.059  18.778  0.00  0.00    +0.000 A 
ATOM     19  C   UNL     1       7.665   5.845  19.206  0.00  0.00    +0.000 A 
BRANCH  19  20
ATOM     20  O   UNL     1       8.064   5.317  20.400  0.00  0.00    +0.000 OA
ATOM     21  H   UNL     1       7.297   5.249  20.990  0.00  0.00    +0.000 HD
ENDBRANCH  19  20
ENDBRANCH  13  14
ENDBRANCH   2  13
TORSDOF 4
ENDMDL
MODEL 3
REMARK VINA RESULT:      -7.7      2.775      4.626
REMARK  Name = 
REMARK  4 active torsions:
REMARK  status: ('A' for Active; 'I' for Inactive)
REMARK    1  A    between atoms: C_2  and  O_3
REMARK    2  A    between atoms: C_2  and  C_11
REMARK    3  A    between atoms: O_3  and  C_4
REMARK    4  A    between atoms: C_9  and  O_10
REMARK                            x       y       z     vdW  Elec       q    Type
REMARK                         _______ _______ _______ _____ _____    ______ ____
ROOT
ATOM      1  O   UNL     1       2.253   3.177  16.206  0.00  0.00    +0.000 OA
ATOM      2  C   UNL     1       2.926   3.338  17.207  0.00  0.00    +0.000 C 
ENDROOT
BRANCH   2   3
ATOM      3  C   UNL     1       2.388   3.734  18.543  0.00  0.00    +0.000 A 
ATOM      4  C   UNL     1       2.109   2.661  19.411  0.00  0.00    +0.000 A 
ATOM      5  C   UNL     1       1.715   2.902  20.722  0.00  0.00    +0.000 A 
ATOM      6  C   UNL     1       1.602   4.212  21.177  0.00  0.00    +0.000 A 
ATOM      7  C   UNL     1       1.862   5.300  20.330  0.00  0.00    +0.000 A 
ATOM      8  C   UNL     1       1.743   6.607  20.827  0.00  0.00    +0.000 A 
ATOM      9  C   UNL     1       1.973   7.713  20.012  0.00  0.00    +0.000 A 
ATOM     10  C   UNL     1       2.310   7.525  18.680  0.00  0.00    +0.000 A 
ATOM     11  C   UNL     1       2.435   6.231  18.169  0.00  0.00    +0.000 A 
ATOM     12  C   UNL     1       2.241   5.081  18.979  0.00  0.00    +0.000 A 
ENDBRANCH   2   3
BRANCH   2  13
ATOM     13  O   UNL     1       4.275   3.061  17.357  0.00  0.00    +0.000 OA
BRANCH  13  14
ATOM     14  C   UNL     1       5.169   4.135  17.248  0.00  0.00    +0.000 A 
ATOM     15  C   UNL     1       5.161   4.842  16.045  0.00  0.00    +0.000 A 
ATOM     16  C   UNL     1       5.916   6.011  15.927  0.00  0.00    +0.000 A 
ATOM     17  C   UNL     1       6.667   6.470  17.012  0.00  0.00    +0.000 A 
ATOM     18  C   UNL     1       6.656   5.772  18.222  0.00  0.00    +0.000 A 
ATOM     19  C   UNL     1       5.893   4.615  18.344  0.00  0.00    +0.000 A 
BRANCH  19  20
ATOM     20  O   UNL     1       5.803   3.988  19.554  0.00  0.00    +0.000 OA
ATOM     21  H   UNL     1       6.677   3.652  19.804  0.00  0.00    +0.000 HD
ENDBRANCH  19  20
ENDBRANCH  13  14
ENDBRANCH   2  13
TORSDOF 4
ENDMDL
MODEL 4
REMARK VINA RESULT:      -7.4      3.262      4.328
REMARK  Name = 
REMARK  4 active torsions:
REMARK  status: ('A' for Active; 'I' for Inactive)
REMARK    1  A    between atoms: C_2  and  O_3
REMARK    2  A    between atoms: C_2  and  C_11
REMARK    3  A    between atoms: O_3  and  C_4
REMARK    4  A    between atoms: C_9  and  O_10
REMARK                            x       y       z     vdW  Elec       q    Type
REMARK                         _______ _______ _______ _____ _____    ______ ____
ROOT
ATOM      1  O   UNL     1       3.202   7.824  17.249  0.00  0.00    +0.000 OA
ATOM      2  C   UNL     1       3.533   6.735  17.681  0.00  0.00    +0.000 C 
ENDROOT
BRANCH   2   3
ATOM      3  C   UNL     1       2.795   5.974  18.734  0.00  0.00    +0.000 A 
ATOM      4  C   UNL     1       2.383   6.740  19.840  0.00  0.00    +0.000 A 
ATOM      5  C   UNL     1       1.588   6.175  20.830  0.00  0.00    +0.000 A 
ATOM      6  C   UNL     1       1.196   4.844  20.721  0.00  0.00    +0.000 A 
ATOM      7  C   UNL     1       1.603   4.054  19.635  0.00  0.00    +0.000 A 
ATOM      8  C   UNL     1       1.183   2.717  19.558  0.00  0.00    +0.000 A 
ATOM      9  C   UNL     1       1.582   1.895  18.506  0.00  0.00    +0.000 A 
ATOM     10  C   UNL     1       2.424   2.397  17.525  0.00  0.00    +0.000 A 
ATOM     11  C   UNL     1       2.850   3.725  17.586  0.00  0.00    +0.000 A 
ATOM     12  C   UNL     1       2.436   4.601  18.624  0.00  0.00    +0.000 A 
ENDBRANCH   2   3
BRANCH   2  13
ATOM     13  O   UNL     1       4.551   5.925  17.206  0.00  0.00    +0.000 OA
BRANCH  13  14
ATOM     14  C   UNL     1       5.854   6.210  17.637  0.00  0.00    +0.000 A 
ATOM     15  C   UNL     1       6.427   7.395  17.173  0.00  0.00    +0.000 A 
ATOM     16  C   UNL     1       7.659   7.811  17.681  0.00  0.00    +0.000 A 
ATOM     17  C   UNL     1       8.306   7.046  18.655  0.00  0.00    +0.000 A 
ATOM     18  C   UNL     1       7.721   5.872  19.134  0.00  0.00    +0.000 A 
ATOM     19  C   UNL     1       6.486   5.465  18.636  0.00  0.00    +0.000 A 
BRANCH  19  20
ATOM     20  O   UNL     1       5.867   4.372  19.174  0.00  0.00    +0.000 OA
ATOM     21  H   UNL     1       4.912   4.535  19.211  0.00  0.00    +0.000 HD
ENDBRANCH  19  20
ENDBRANCH  13  14
ENDBRANCH   2  13
TORSDOF 4
ENDMDL
MODEL 5
REMARK VINA RESULT:      -7.4      3.042      5.837
REMARK  Name = 
REMARK  4 active torsions:
REMARK  status: ('A' for Active; 'I' for Inactive)
REMARK    1  A    between atoms: C_2  and  O_3
REMARK    2  A    between atoms: C_2  and  C_11
REMARK    3  A    between atoms: O_3  and  C_4
REMARK    4  A    between atoms: C_9  and  O_10
REMARK                            x       y       z     vdW  Elec       q    Type
REMARK                         _______ _______ _______ _____ _____    ______ ____
ROOT
ATOM      1  O   UNL     1       6.090   3.897  19.527  0.00  0.00    +0.000 OA
ATOM      2  C   UNL     1       5.135   4.027  18.784  0.00  0.00    +0.000 C 
ENDROOT
BRANCH   2   3
ATOM      3  C   UNL     1       4.840   5.251  17.979  0.00  0.00    +0.000 A 
ATOM      4  C   UNL     1       5.528   5.333  16.754  0.00  0.00    +0.000 A 
ATOM      5  C   UNL     1       5.253   6.363  15.861  0.00  0.00    +0.000 A 
ATOM      6  C   UNL     1       4.289   7.313  16.183  0.00  0.00    +0.000 A 
ATOM      7  C   UNL     1       3.597   7.261  17.403  0.00  0.00    +0.000 A 
ATOM      8  C   UNL     1       2.627   8.235  17.689  0.00  0.00    +0.000 A 
ATOM      9  C   UNL     1       1.934   8.229  18.897  0.00  0.00    +0.000 A 
ATOM     10  C   UNL     1       2.215   7.257  19.845  0.00  0.00    +0.000 A 
ATOM     11  C   UNL     1       3.176   6.280  19.576  0.00  0.00    +0.000 A 
ATOM     12  C   UNL     1       3.878   6.235  18.342  0.00  0.00    +0.000 A 
ENDBRANCH   2   3
BRANCH   2  13
ATOM     13  O   UNL     1       4.219   3.052  18.425  0.00  0.00    +0.000 OA
BRANCH  13  14
ATOM     14  C   UNL     1       3.093   2.893  19.245  0.00  0.00    +0.000 A 
ATOM     15  C   UNL     1       3.327   2.692  20.605  0.00  0.00    +0.000 A 
ATOM     16  C   UNL     1       2.251   2.677  21.495  0.00  0.00    +0.000 A 
ATOM     17  C   UNL     1       0.951   2.872  21.022  0.00  0.00    +0.000 A 
ATOM     18  C   UNL     1       0.721   3.095  19.663  0.00  0.00    +0.000 A 
ATOM     19  C   UNL     1       1.796   3.123  18.778  0.00  0.00    +0.000 A 
BRANCH  19  20
ATOM     20  O   UNL     1       1.584   3.438  17.466  0.00  0.00    +0.000 OA
ATOM     21  H   UNL     1       2.103   4.226  17.241  0.00  0.00    +0.000 HD
ENDBRANCH  19  20
ENDBRANCH  13  14
ENDBRANCH   2  13
TORSDOF 4
ENDMDL
MODEL 6
REMARK VINA RESULT:      -7.4      2.453      4.485
REMARK  Name = 
REMARK  4 active torsions:
REMARK  status: ('A' for Active; 'I' for Inactive)
REMARK    1  A    between atoms: C_2  and  O_3
REMARK    2  A    between atoms: C_2  and  C_11
REMARK    3  A    between atoms: O_3  and  C_4
REMARK    4  A    between atoms: C_9  and  O_10
REMARK                            x       y       z     vdW  Elec       q    Type
REMARK                         _______ _______ _______ _____ _____    ______ ____
ROOT
ATOM      1  O   UNL     1       2.523   3.214  16.258  0.00  0.00    +0.000 OA
ATOM      2  C   UNL     1       3.112   3.385  17.309  0.00  0.00    +0.000 C 
ENDROOT
BRANCH   2   3
ATOM      3  C   UNL     1       2.462   3.763  18.600  0.00  0.00    +0.000 A 
ATOM      4  C   UNL     1       2.123   2.679  19.432  0.00  0.00    +0.000 A 
ATOM      5  C   UNL     1       1.620   2.903  20.708  0.00  0.00    +0.000 A 
ATOM      6  C   UNL     1       1.457   4.207  21.165  0.00  0.00    +0.000 A 
ATOM      7  C   UNL     1       1.776   5.306  20.352  0.00  0.00    +0.000 A 
ATOM      8  C   UNL     1       1.604   6.607  20.850  0.00  0.00    +0.000 A 
ATOM      9  C   UNL     1       1.890   7.723  20.067  0.00  0.00    +0.000 A 
ATOM     10  C   UNL     1       2.337   7.551  18.766  0.00  0.00    +0.000 A 
ATOM     11  C   UNL     1       2.516   6.263  18.255  0.00  0.00    +0.000 A 
ATOM     12  C   UNL     1       2.267   5.104  19.035  0.00  0.00    +0.000 A 
ENDBRANCH   2   3
BRANCH   2  13
ATOM     13  O   UNL     1       4.451   3.138  17.564  0.00  0.00    +0.000 OA
BRANCH  13  14
ATOM     14  C   UNL     1       5.333   4.225  17.489  0.00  0.00    +0.000 A 
ATOM     15  C   UNL     1       5.878   4.678  18.690  0.00  0.00    +0.000 A 
ATOM     16  C   UNL     1       6.875   5.656  18.669  0.00  0.00    +0.000 A 
ATOM     17  C   UNL     1       7.327   6.166  17.450  0.00  0.00    +0.000 A 
ATOM     18  C   UNL     1       6.796   5.694  16.248  0.00  0.00    +0.000 A 
ATOM     19  C   UNL     1       5.811   4.710  16.269  0.00  0.00    +0.000 A 
BRANCH  19  20
ATOM     20  O   UNL     1       5.362   4.178  15.094  0.00  0.00    +0.000 OA
ATOM     21  H   UNL     1       5.627   3.247  15.044  0.00  0.00    +0.000 HD
ENDBRANCH  19  20
ENDBRANCH  13  14
ENDBRANCH   2  13
TORSDOF 4
ENDMDL
MODEL 7
REMARK VINA RESULT:      -7.3      1.246      2.734
REMARK  Name = 
REMARK  4 active torsions:
REMARK  status: ('A' for Active; 'I' for Inactive)
REMARK    1  A    between atoms: C_2  and  O_3
REMARK    2  A    between atoms: C_2  and  C_11
REMARK    3  A    between atoms: O_3  and  C_4
REMARK    4  A    between atoms: C_9  and  O_10
REMARK                            x       y       z     vdW  Elec       q    Type
REMARK                         _______ _______ _______ _____ _____    ______ ____
ROOT
ATOM      1  O   UNL     1       6.427   4.277  17.572  0.00  0.00    +0.000 OA
ATOM      2  C   UNL     1       5.322   4.283  17.061  0.00  0.00    +0.000 C 
ENDROOT
BRANCH   2   3
ATOM      3  C   UNL     1       4.076   3.785  17.718  0.00  0.00    +0.000 A 
ATOM      4  C   UNL     1       3.777   2.431  17.473  0.00  0.00    +0.000 A 
ATOM      5  C   UNL     1       2.710   1.818  18.119  0.00  0.00    +0.000 A 
ATOM      6  C   UNL     1       1.938   2.549  19.017  0.00  0.00    +0.000 A 
ATOM      7  C   UNL     1       2.206   3.903  19.270  0.00  0.00    +0.000 A 
ATOM      8  C   UNL     1       1.408   4.606  20.187  0.00  0.00    +0.000 A 
ATOM      9  C   UNL     1       1.630   5.956  20.450  0.00  0.00    +0.000 A 
ATOM     10  C   UNL     1       2.645   6.627  19.784  0.00  0.00    +0.000 A 
ATOM     11  C   UNL     1       3.449   5.942  18.870  0.00  0.00    +0.000 A 
ATOM     12  C   UNL     1       3.274   4.559  18.603  0.00  0.00    +0.000 A 
ENDBRANCH   2   3
BRANCH   2  13
ATOM     13  O   UNL     1       4.964   4.863  15.855  0.00  0.00    +0.000 OA
BRANCH  13  14
ATOM     14  C   UNL     1       5.718   4.516  14.725  0.00  0.00    +0.000 A 
ATOM     15  C   UNL     1       5.074   3.761  13.746  0.00  0.00    +0.000 A 
ATOM     16  C   UNL     1       5.718   3.511  12.532  0.00  0.00    +0.000 A 
ATOM     17  C   UNL     1       6.997   4.026  12.302  0.00  0.00    +0.000 A 
ATOM     18  C   UNL     1       7.630   4.802  13.276  0.00  0.00    +0.000 A 
ATOM     19  C   UNL     1       6.982   5.060  14.480  0.00  0.00    +0.000 A 
BRANCH  19  20
ATOM     20  O   UNL     1       7.557   5.899  15.392  0.00  0.00    +0.000 OA
ATOM     21  H   UNL     1       7.615   5.447  16.248  0.00  0.00    +0.000 HD
ENDBRANCH  19  20
ENDBRANCH  13  14
ENDBRANCH   2  13
TORSDOF 4
ENDMDL
MODEL 8
REMARK VINA RESULT:      -7.3      2.679      6.225
REMARK  Name = 
REMARK  4 active torsions:
REMARK  status: ('A' for Active; 'I' for Inactive)
REMARK    1  A    between atoms: C_2  and  O_3
REMARK    2  A    between atoms: C_2  and  C_11
REMARK    3  A    between atoms: O_3  and  C_4
REMARK    4  A    between atoms: C_9  and  O_10
REMARK                            x       y       z     vdW  Elec       q    Type
REMARK                         _______ _______ _______ _____ _____    ______ ____
ROOT
ATOM      1  O   UNL     1       3.719   2.077  17.880  0.00  0.00    +0.000 OA
ATOM      2  C   UNL     1       3.691   3.228  17.485  0.00  0.00    +0.000 C 
ENDROOT
BRANCH   2   3
ATOM      3  C   UNL     1       4.828   3.928  16.814  0.00  0.00    +0.000 A 
ATOM      4  C   UNL     1       4.825   3.852  15.409  0.00  0.00    +0.000 A 
ATOM      5  C   UNL     1       5.762   4.559  14.665  0.00  0.00    +0.000 A 
ATOM      6  C   UNL     1       6.705   5.349  15.317  0.00  0.00    +0.000 A 
ATOM      7  C   UNL     1       6.738   5.433  16.717  0.00  0.00    +0.000 A 
ATOM      8  C   UNL     1       7.700   6.244  17.338  0.00  0.00    +0.000 A 
ATOM      9  C   UNL     1       7.778   6.338  18.726  0.00  0.00    +0.000 A 
ATOM     10  C   UNL     1       6.903   5.604  19.513  0.00  0.00    +0.000 A 
ATOM     11  C   UNL     1       5.939   4.793  18.911  0.00  0.00    +0.000 A 
ATOM     12  C   UNL     1       5.808   4.700  17.501  0.00  0.00    +0.000 A 
ENDBRANCH   2   3
BRANCH   2  13
ATOM     13  O   UNL     1       2.591   4.068  17.442  0.00  0.00    +0.000 OA
BRANCH  13  14
ATOM     14  C   UNL     1       2.423   4.964  18.508  0.00  0.00    +0.000 A 
ATOM     15  C   UNL     1       2.616   6.317  18.230  0.00  0.00    +0.000 A 
ATOM     16  C   UNL     1       2.318   7.270  19.206  0.00  0.00    +0.000 A 
ATOM     17  C   UNL     1       1.820   6.867  20.447  0.00  0.00    +0.000 A 
ATOM     18  C   UNL     1       1.606   5.512  20.715  0.00  0.00    +0.000 A 
ATOM     19  C   UNL     1       1.891   4.563  19.737  0.00  0.00    +0.000 A 
BRANCH  19  20
ATOM     20  O   UNL     1       1.589   3.250  19.960  0.00  0.00    +0.000 OA
ATOM     21  H   UNL     1       2.409   2.758  20.118  0.00  0.00    +0.000 HD
ENDBRANCH  19  20
ENDBRANCH  13  14
ENDBRANCH   2  13
TORSDOF 4
ENDMDL
MODEL 9
REMARK VINA RESULT:      -7.2      1.882      2.558
REMARK  Name = 
REMARK  4 active torsions:
REMARK  status: ('A' for Active; 'I' for Inactive)
REMARK    1  A    between atoms: C_2  and  O_3
REMARK    2  A    between atoms: C_2  and  C_11
REMARK    3  A    between atoms: O_3  and  C_4
REMARK    4  A    between atoms: C_9  and  O_10
REMARK                            x       y       z     vdW  Elec       q    Type
REMARK                         _______ _______ _______ _____ _____    ______ ____
ROOT
ATOM      1  O   UNL     1       6.210   5.262  19.685  0.00  0.00    +0.000 OA
ATOM      2  C   UNL     1       5.203   5.438  19.024  0.00  0.00    +0.000 C 
ENDROOT
BRANCH   2   3
ATOM      3  C   UNL     1       3.814   5.144  19.488  0.00  0.00    +0.000 A 
ATOM      4  C   UNL     1       3.148   6.228  20.090  0.00  0.00    +0.000 A 
ATOM      5  C   UNL     1       1.812   6.117  20.458  0.00  0.00    +0.000 A 
ATOM      6  C   UNL     1       1.131   4.926  20.224  0.00  0.00    +0.000 A 
ATOM      7  C   UNL     1       1.774   3.825  19.637  0.00  0.00    +0.000 A 
ATOM      8  C   UNL     1       1.052   2.643  19.412  0.00  0.00    +0.000 A 
ATOM      9  C   UNL     1       1.660   1.523  18.850  0.00  0.00    +0.000 A 
ATOM     10  C   UNL     1       3.007   1.565  18.522  0.00  0.00    +0.000 A 
ATOM     11  C   UNL     1       3.739   2.734  18.737  0.00  0.00    +0.000 A 
ATOM     12  C   UNL     1       3.145   3.905  19.276  0.00  0.00    +0.000 A 
ENDBRANCH   2   3
BRANCH   2  13
ATOM     13  O   UNL     1       5.115   6.062  17.790  0.00  0.00    +0.000 OA
BRANCH  13  14
ATOM     14  C   UNL     1       5.658   5.387  16.687  0.00  0.00    +0.000 A 
ATOM     15  C   UNL     1       4.815   4.506  16.010  0.00  0.00    +0.000 A 
ATOM     16  C   UNL     1       5.245   3.920  14.818  0.00  0.00    +0.000 A 
ATOM     17  C   UNL     1       6.508   4.224  14.306  0.00  0.00    +0.000 A 
ATOM     18  C   UNL     1       7.342   5.124  14.975  0.00  0.00    +0.000 A 
ATOM     19  C   UNL     1       6.907   5.718  16.156  0.00  0.00    +0.000 A 
BRANCH  19  20
ATOM     20  O   UNL     1       7.679   6.672  16.757  0.00  0.00    +0.000 OA
ATOM     21  H   UNL     1       7.322   7.548  16.547  0.00  0.00    +0.000 HD
ENDBRANCH  19  20
ENDBRANCH  13  14
ENDBRANCH   2  13
TORSDOF 4
ENDMDL
