MODEL 1
REMARK VINA RESULT:      -5.8      0.000      0.000
REMARK  Name = 
REMARK  5 active torsions:
REMARK  status: ('A' for Active; 'I' for Inactive)
REMARK    1  A    between atoms: C_2  and  O_3
REMARK    2  A    between atoms: C_2  and  C_4
REMARK    3  A    between atoms: C_4  and  S_5
REMARK    4  A    between atoms: C_4  and  C_6
REMARK    5  A    between atoms: C_6  and  C_7
REMARK                            x       y       z     vdW  Elec       q    Type
REMARK                         _______ _______ _______ _____ _____    ______ ____
ROOT
ATOM      1  C   UNL     1       5.931   4.215  16.193  0.00  0.00    +0.000 C 
ENDROOT
BRANCH   1   3
ATOM      2  O   UNL     1       8.103   4.209  17.308  0.00  0.00    +0.000 OA
ATOM      3  C   UNL     1       7.260   4.803  16.652  0.00  0.00    +0.000 C 
BRANCH   3   4
ATOM      4  O   UNL     1       7.457   6.077  16.223  0.00  0.00    +0.000 OA
ATOM      5  H   UNL     1       6.706   6.663  16.455  0.00  0.00    +0.000 HD
ENDBRANCH   3   4
ENDBRANCH   1   3
BRANCH   1   6
ATOM      6  S   UNL     1       5.924   4.164  14.353  0.00  0.00    +0.000 S 
ATOM      7  H   UNL     1       5.041   3.158  14.233  0.00  0.00    +0.000 HD
ENDBRANCH   1   6
BRANCH   1   8
ATOM      8  C   UNL     1       4.750   5.010  16.775  0.00  0.00    +0.000 C 
BRANCH   8   9
ATOM      9  C   UNL     1       3.649   4.150  17.358  0.00  0.00    +0.000 A 
ATOM     10  C   UNL     1       2.417   4.707  17.724  0.00  0.00    +0.000 A 
ATOM     11  C   UNL     1       1.420   3.911  18.293  0.00  0.00    +0.000 A 
ATOM     12  C   UNL     1       1.640   2.549  18.485  0.00  0.00    +0.000 A 
ATOM     13  C   UNL     1       2.852   1.978  18.105  0.00  0.00    +0.000 A 
ATOM     14  C   UNL     1       3.852   2.775  17.542  0.00  0.00    +0.000 A 
ENDBRANCH   8   9
ENDBRANCH   1   8
TORSDOF 5
ENDMDL
MODEL 2
REMARK VINA RESULT:      -5.7      0.260      1.678
REMARK  Name = 
REMARK  5 active torsions:
REMARK  status: ('A' for Active; 'I' for Inactive)
REMARK    1  A    between atoms: C_2  and  O_3
REMARK    2  A    between atoms: C_2  and  C_4
REMARK    3  A    between atoms: C_4  and  S_5
REMARK    4  A    between atoms: C_4  and  C_6
REMARK    5  A    between atoms: C_6  and  C_7
REMARK                            x       y       z     vdW  Elec       q    Type
REMARK                         _______ _______ _______ _____ _____    ______ ____
ROOT
ATOM      1  C   UNL     1       5.851   4.246  16.289  0.00  0.00    +0.000 C 
ENDROOT
BRANCH   1   3
ATOM      2  O   UNL     1       7.551   5.994  16.417  0.00  0.00    +0.000 OA
ATOM      3  C   UNL     1       7.106   4.930  16.820  0.00  0.00    +0.000 C 
BRANCH   3   4
ATOM      4  O   UNL     1       7.690   4.253  17.843  0.00  0.00    +0.000 OA
ATOM      5  H   UNL     1       7.393   4.581  18.717  0.00  0.00    +0.000 HD
ENDBRANCH   3   4
ENDBRANCH   1   3
BRANCH   1   6
ATOM      6  S   UNL     1       5.974   4.150  14.455  0.00  0.00    +0.000 S 
ATOM      7  H   UNL     1       7.212   4.663  14.359  0.00  0.00    +0.000 HD
ENDBRANCH   1   6
BRANCH   1   8
ATOM      8  C   UNL     1       4.586   4.976  16.767  0.00  0.00    +0.000 C 
BRANCH   8   9
ATOM      9  C   UNL     1       3.551   4.074  17.406  0.00  0.00    +0.000 A 
ATOM     10  C   UNL     1       3.841   2.734  17.691  0.00  0.00    +0.000 A 
ATOM     11  C   UNL     1       2.868   1.901  18.250  0.00  0.00    +0.000 A 
ATOM     12  C   UNL     1       1.603   2.407  18.545  0.00  0.00    +0.000 A 
ATOM     13  C   UNL     1       1.310   3.744  18.288  0.00  0.00    +0.000 A 
ATOM     14  C   UNL     1       2.280   4.575  17.723  0.00  0.00    +0.000 A 
ENDBRANCH   8   9
ENDBRANCH   1   8
TORSDOF 5
ENDMDL
MODEL 3
REMARK VINA RESULT:      -5.6      2.272      2.657
REMARK  Name = 
REMARK  5 active torsions:
REMARK  status: ('A' for Active; 'I' for Inactive)
REMARK    1  A    between atoms: C_2  and  O_3
REMARK    2  A    between atoms: C_2  and  C_4
REMARK    3  A    between atoms: C_4  and  S_5
REMARK    4  A    between atoms: C_4  and  C_6
REMARK    5  A    between atoms: C_6  and  C_7
REMARK                            x       y       z     vdW  Elec       q    Type
REMARK                         _______ _______ _______ _____ _____    ______ ____
ROOT
ATOM      1  C   UNL     1       4.901   5.252  17.764  0.00  0.00    +0.000 C 
ENDROOT
BRANCH   1   3
ATOM      2  O   UNL     1       6.343   5.312  19.733  0.00  0.00    +0.000 OA
ATOM      3  C   UNL     1       5.683   4.666  18.934  0.00  0.00    +0.000 C 
BRANCH   3   4
ATOM      4  O   UNL     1       5.548   3.318  19.043  0.00  0.00    +0.000 OA
ATOM      5  H   UNL     1       6.411   2.857  18.987  0.00  0.00    +0.000 HD
ENDBRANCH   3   4
ENDBRANCH   1   3
BRANCH   1   6
ATOM      6  S   UNL     1       5.997   6.427  16.866  0.00  0.00    +0.000 S 
ATOM      7  H   UNL     1       7.135   6.080  17.489  0.00  0.00    +0.000 HD
ENDBRANCH   1   6
BRANCH   1   8
ATOM      8  C   UNL     1       3.595   5.902  18.248  0.00  0.00    +0.000 C 
BRANCH   8   9
ATOM      9  C   UNL     1       2.586   4.924  18.811  0.00  0.00    +0.000 A 
ATOM     10  C   UNL     1       2.162   5.013  20.144  0.00  0.00    +0.000 A 
ATOM     11  C   UNL     1       1.256   4.085  20.663  0.00  0.00    +0.000 A 
ATOM     12  C   UNL     1       0.753   3.071  19.850  0.00  0.00    +0.000 A 
ATOM     13  C   UNL     1       1.149   2.985  18.518  0.00  0.00    +0.000 A 
ATOM     14  C   UNL     1       2.060   3.909  18.000  0.00  0.00    +0.000 A 
ENDBRANCH   8   9
ENDBRANCH   1   8
TORSDOF 5
ENDMDL
MODEL 4
REMARK VINA RESULT:      -5.6      1.524      1.798
REMARK  Name = 
REMARK  5 active torsions:
REMARK  status: ('A' for Active; 'I' for Inactive)
REMARK    1  A    between atoms: C_2  and  O_3
REMARK    2  A    between atoms: C_2  and  C_4
REMARK    3  A    between atoms: C_4  and  S_5
REMARK    4  A    between atoms: C_4  and  C_6
REMARK    5  A    between atoms: C_6  and  C_7
REMARK                            x       y       z     vdW  Elec       q    Type
REMARK                         _______ _______ _______ _____ _____    ______ ____
ROOT
ATOM      1  C   UNL     1       5.728   4.988  17.227  0.00  0.00    +0.000 C 
ENDROOT
BRANCH   1   3
ATOM      2  O   UNL     1       7.505   5.829  15.780  0.00  0.00    +0.000 OA
ATOM      3  C   UNL     1       7.137   5.053  16.649  0.00  0.00    +0.000 C 
BRANCH   3   4
ATOM      4  O   UNL     1       7.993   4.172  17.229  0.00  0.00    +0.000 OA
ATOM      5  H   UNL     1       8.161   4.388  18.170  0.00  0.00    +0.000 HD
ENDBRANCH   3   4
ENDBRANCH   1   3
BRANCH   1   6
ATOM      6  S   UNL     1       5.855   4.974  19.063  0.00  0.00    +0.000 S 
ATOM      7  H   UNL     1       5.570   3.671  19.225  0.00  0.00    +0.000 HD
ENDBRANCH   1   6
BRANCH   1   8
ATOM      8  C   UNL     1       4.962   3.778  16.670  0.00  0.00    +0.000 C 
BRANCH   8   9
ATOM      9  C   UNL     1       3.661   3.481  17.385  0.00  0.00    +0.000 A 
ATOM     10  C   UNL     1       2.656   4.452  17.484  0.00  0.00    +0.000 A 
ATOM     11  C   UNL     1       1.473   4.179  18.176  0.00  0.00    +0.000 A 
ATOM     12  C   UNL     1       1.278   2.929  18.759  0.00  0.00    +0.000 A 
ATOM     13  C   UNL     1       2.261   1.948  18.649  0.00  0.00    +0.000 A 
ATOM     14  C   UNL     1       3.447   2.222  17.963  0.00  0.00    +0.000 A 
ENDBRANCH   8   9
ENDBRANCH   1   8
TORSDOF 5
ENDMDL
MODEL 5
REMARK VINA RESULT:      -5.6      0.947      1.414
REMARK  Name = 
REMARK  5 active torsions:
REMARK  status: ('A' for Active; 'I' for Inactive)
REMARK    1  A    between atoms: C_2  and  O_3
REMARK    2  A    between atoms: C_2  and  C_4
REMARK    3  A    between atoms: C_4  and  S_5
REMARK    4  A    between atoms: C_4  and  C_6
REMARK    5  A    between atoms: C_6  and  C_7
REMARK                            x       y       z     vdW  Elec       q    Type
REMARK                         _______ _______ _______ _____ _____    ______ ____
ROOT
ATOM      1  C   UNL     1       6.046   4.082  15.983  0.00  0.00    +0.000 C 
ENDROOT
BRANCH   1   3
ATOM      2  O   UNL     1       7.500   6.028  16.230  0.00  0.00    +0.000 OA
ATOM      3  C   UNL     1       7.257   4.858  16.487  0.00  0.00    +0.000 C 
BRANCH   3   4
ATOM      4  O   UNL     1       8.054   4.128  17.310  0.00  0.00    +0.000 OA
ATOM      5  H   UNL     1       7.537   3.520  17.879  0.00  0.00    +0.000 HD
ENDBRANCH   3   4
ENDBRANCH   1   3
BRANCH   1   6
ATOM      6  S   UNL     1       6.113   4.031  14.145  0.00  0.00    +0.000 S 
ATOM      7  H   UNL     1       4.901   3.480  13.964  0.00  0.00    +0.000 HD
ENDBRANCH   1   6
BRANCH   1   8
ATOM      8  C   UNL     1       4.741   4.695  16.519  0.00  0.00    +0.000 C 
BRANCH   8   9
ATOM      9  C   UNL     1       3.996   3.813  17.498  0.00  0.00    +0.000 A 
ATOM     10  C   UNL     1       2.740   3.282  17.178  0.00  0.00    +0.000 A 
ATOM     11  C   UNL     1       2.046   2.497  18.102  0.00  0.00    +0.000 A 
ATOM     12  C   UNL     1       2.609   2.224  19.347  0.00  0.00    +0.000 A 
ATOM     13  C   UNL     1       3.867   2.728  19.669  0.00  0.00    +0.000 A 
ATOM     14  C   UNL     1       4.559   3.518  18.748  0.00  0.00    +0.000 A 
ENDBRANCH   8   9
ENDBRANCH   1   8
TORSDOF 5
ENDMDL
MODEL 6
REMARK VINA RESULT:      -5.6      2.256      2.790
REMARK  Name = 
REMARK  5 active torsions:
REMARK  status: ('A' for Active; 'I' for Inactive)
REMARK    1  A    between atoms: C_2  and  O_3
REMARK    2  A    between atoms: C_2  and  C_4
REMARK    3  A    between atoms: C_4  and  S_5
REMARK    4  A    between atoms: C_4  and  C_6
REMARK    5  A    between atoms: C_6  and  C_7
REMARK                            x       y       z     vdW  Elec       q    Type
REMARK                         _______ _______ _______ _____ _____    ______ ____
ROOT
ATOM      1  C   UNL     1       4.769   5.350  17.630  0.00  0.00    +0.000 C 
ENDROOT
BRANCH   1   3
ATOM      2  O   UNL     1       6.105   5.470  19.670  0.00  0.00    +0.000 OA
ATOM      3  C   UNL     1       5.573   4.796  18.801  0.00  0.00    +0.000 C 
BRANCH   3   4
ATOM      4  O   UNL     1       5.618   3.439  18.822  0.00  0.00    +0.000 OA
ATOM      5  H   UNL     1       5.990   3.070  17.994  0.00  0.00    +0.000 HD
ENDBRANCH   3   4
ENDBRANCH   1   3
BRANCH   1   6
ATOM      6  S   UNL     1       5.807   6.588  16.748  0.00  0.00    +0.000 S 
ATOM      7  H   UNL     1       6.824   5.758  16.464  0.00  0.00    +0.000 HD
ENDBRANCH   1   6
BRANCH   1   8
ATOM      8  C   UNL     1       3.427   5.926  18.110  0.00  0.00    +0.000 C 
BRANCH   8   9
ATOM      9  C   UNL     1       2.494   4.903  18.722  0.00  0.00    +0.000 A 
ATOM     10  C   UNL     1       2.016   3.822  17.970  0.00  0.00    +0.000 A 
ATOM     11  C   UNL     1       1.129   2.903  18.535  0.00  0.00    +0.000 A 
ATOM     12  C   UNL     1       0.726   3.046  19.861  0.00  0.00    +0.000 A 
ATOM     13  C   UNL     1       1.212   4.104  20.626  0.00  0.00    +0.000 A 
ATOM     14  C   UNL     1       2.094   5.027  20.060  0.00  0.00    +0.000 A 
ENDBRANCH   8   9
ENDBRANCH   1   8
TORSDOF 5
ENDMDL
MODEL 7
REMARK VINA RESULT:      -5.5      1.544      2.062
REMARK  Name = 
REMARK  5 active torsions:
REMARK  status: ('A' for Active; 'I' for Inactive)
REMARK    1  A    between atoms: C_2  and  O_3
REMARK    2  A    between atoms: C_2  and  C_4
REMARK    3  A    between atoms: C_4  and  S_5
REMARK    4  A    between atoms: C_4  and  C_6
REMARK    5  A    between atoms: C_6  and  C_7
REMARK                            x       y       z     vdW  Elec       q    Type
REMARK                         _______ _______ _______ _____ _____    ______ ____
ROOT
ATOM      1  C   UNL     1       5.711   5.056  17.269  0.00  0.00    +0.000 C 
ENDROOT
BRANCH   1   3
ATOM      2  O   UNL     1       7.971   4.219  16.877  0.00  0.00    +0.000 OA
ATOM      3  C   UNL     1       7.158   5.127  16.793  0.00  0.00    +0.000 C 
BRANCH   3   4
ATOM      4  O   UNL     1       7.470   6.313  16.209  0.00  0.00    +0.000 OA
ATOM      5  H   UNL     1       6.706   6.928  16.197  0.00  0.00    +0.000 HD
ENDBRANCH   3   4
ENDBRANCH   1   3
BRANCH   1   6
ATOM      6  S   UNL     1       5.701   5.130  19.108  0.00  0.00    +0.000 S 
ATOM      7  H   UNL     1       4.378   4.957  19.259  0.00  0.00    +0.000 HD
ENDBRANCH   1   6
BRANCH   1   8
ATOM      8  C   UNL     1       5.013   3.803  16.716  0.00  0.00    +0.000 C 
BRANCH   8   9
ATOM      9  C   UNL     1       3.709   3.462  17.405  0.00  0.00    +0.000 A 
ATOM     10  C   UNL     1       3.528   2.223  18.032  0.00  0.00    +0.000 A 
ATOM     11  C   UNL     1       2.309   1.905  18.636  0.00  0.00    +0.000 A 
ATOM     12  C   UNL     1       1.266   2.830  18.632  0.00  0.00    +0.000 A 
ATOM     13  C   UNL     1       1.441   4.074  18.031  0.00  0.00    +0.000 A 
ATOM     14  C   UNL     1       2.658   4.390  17.422  0.00  0.00    +0.000 A 
ENDBRANCH   8   9
ENDBRANCH   1   8
TORSDOF 5
ENDMDL
MODEL 8
REMARK VINA RESULT:      -5.4      1.198      1.630
REMARK  Name = 
REMARK  5 active torsions:
REMARK  status: ('A' for Active; 'I' for Inactive)
REMARK    1  A    between atoms: C_2  and  O_3
REMARK    2  A    between atoms: C_2  and  C_4
REMARK    3  A    between atoms: C_4  and  S_5
REMARK    4  A    between atoms: C_4  and  C_6
REMARK    5  A    between atoms: C_6  and  C_7
REMARK                            x       y       z     vdW  Elec       q    Type
REMARK                         _______ _______ _______ _____ _____    ______ ____
ROOT
ATOM      1  C   UNL     1       5.406   4.332  16.461  0.00  0.00    +0.000 C 
ENDROOT
BRANCH   1   3
ATOM      2  O   UNL     1       7.835   4.528  16.618  0.00  0.00    +0.000 OA
ATOM      3  C   UNL     1       6.758   4.341  17.165  0.00  0.00    +0.000 C 
BRANCH   3   4
ATOM      4  O   UNL     1       6.662   4.158  18.507  0.00  0.00    +0.000 OA
ATOM      5  H   UNL     1       6.647   3.208  18.748  0.00  0.00    +0.000 HD
ENDBRANCH   3   4
ENDBRANCH   1   3
BRANCH   1   6
ATOM      6  S   UNL     1       5.696   4.425  14.646  0.00  0.00    +0.000 S 
ATOM      7  H   UNL     1       6.890   5.036  14.714  0.00  0.00    +0.000 HD
ENDBRANCH   1   6
BRANCH   1   8
ATOM      8  C   UNL     1       4.509   5.466  16.984  0.00  0.00    +0.000 C 
BRANCH   8   9
ATOM      9  C   UNL     1       3.375   5.002  17.874  0.00  0.00    +0.000 A 
ATOM     10  C   UNL     1       3.154   5.591  19.125  0.00  0.00    +0.000 A 
ATOM     11  C   UNL     1       2.127   5.133  19.953  0.00  0.00    +0.000 A 
ATOM     12  C   UNL     1       1.301   4.094  19.530  0.00  0.00    +0.000 A 
ATOM     13  C   UNL     1       1.496   3.514  18.278  0.00  0.00    +0.000 A 
ATOM     14  C   UNL     1       2.528   3.968  17.453  0.00  0.00    +0.000 A 
ENDBRANCH   8   9
ENDBRANCH   1   8
TORSDOF 5
ENDMDL
MODEL 9
REMARK VINA RESULT:      -5.3      3.290      4.873
REMARK  Name = 
REMARK  5 active torsions:
REMARK  status: ('A' for Active; 'I' for Inactive)
REMARK    1  A    between atoms: C_2  and  O_3
REMARK    2  A    between atoms: C_2  and  C_4
REMARK    3  A    between atoms: C_4  and  S_5
REMARK    4  A    between atoms: C_4  and  C_6
REMARK    5  A    between atoms: C_6  and  C_7
REMARK                            x       y       z     vdW  Elec       q    Type
REMARK                         _______ _______ _______ _____ _____    ______ ____
ROOT
ATOM      1  C   UNL     1       3.011   3.125  19.114  0.00  0.00    +0.000 C 
ENDROOT
BRANCH   1   3
ATOM      2  O   UNL     1       3.394   2.386  21.410  0.00  0.00    +0.000 OA
ATOM      3  C   UNL     1       3.794   2.495  20.261  0.00  0.00    +0.000 C 
BRANCH   3   4
ATOM      4  O   UNL     1       5.004   2.011  19.877  0.00  0.00    +0.000 OA
ATOM      5  H   UNL     1       5.619   1.915  20.635  0.00  0.00    +0.000 HD
ENDBRANCH   3   4
ENDBRANCH   1   3
BRANCH   1   6
ATOM      6  S   UNL     1       1.312   2.417  19.114  0.00  0.00    +0.000 S 
ATOM      7  H   UNL     1       0.754   3.363  19.887  0.00  0.00    +0.000 HD
ENDBRANCH   1   6
BRANCH   1   8
ATOM      8  C   UNL     1       3.743   2.928  17.777  0.00  0.00    +0.000 C 
BRANCH   8   9
ATOM      9  C   UNL     1       4.237   4.210  17.143  0.00  0.00    +0.000 A 
ATOM     10  C   UNL     1       5.044   4.184  15.998  0.00  0.00    +0.000 A 
ATOM     11  C   UNL     1       5.522   5.372  15.440  0.00  0.00    +0.000 A 
ATOM     12  C   UNL     1       5.184   6.597  16.012  0.00  0.00    +0.000 A 
ATOM     13  C   UNL     1       4.364   6.638  17.138  0.00  0.00    +0.000 A 
ATOM     14  C   UNL     1       3.891   5.450  17.699  0.00  0.00    +0.000 A 
ENDBRANCH   8   9
ENDBRANCH   1   8
TORSDOF 5
ENDMDL
