MODEL 1
REMARK VINA RESULT:      -7.8      0.000      0.000
REMARK  Name = 
REMARK  12 active torsions:
REMARK  status: ('A' for Active; 'I' for Inactive)
REMARK    1  A    between atoms: C_1  and  O_2
REMARK    2  A    between atoms: O_2  and  C_3
REMARK    3  A    between atoms: C_6  and  C_7
REMARK    4  A    between atoms: C_11  and  C_12
REMARK    5  A    between atoms: C_16  and  C_17
REMARK    6  A    between atoms: C_21  and  O_22
REMARK    7  A    between atoms: O_22  and  C_23
REMARK    8  A    between atoms: C_23  and  C_24
REMARK    9  A    between atoms: C_24  and  N_25
REMARK   10  A    between atoms: N_25  and  C_26
REMARK   11  A    between atoms: N_25  and  C_27
REMARK   12  A    between atoms: C_30  and  C_31
REMARK                            x       y       z     vdW  Elec       q    Type
REMARK                         _______ _______ _______ _____ _____    ______ ____
ROOT
ATOM      1  C   UNL     1       1.811   7.159  19.400  0.00  0.00    +0.000 A 
ATOM      2  C   UNL     1       1.717   6.313  20.505  0.00  0.00    +0.000 A 
ATOM      3  C   UNL     1       2.024   4.952  20.316  0.00  0.00    +0.000 A 
ATOM      4  C   UNL     1       1.770   4.022  21.331  0.00  0.00    +0.000 A 
ATOM      5  C   UNL     1       2.050   2.661  21.137  0.00  0.00    +0.000 A 
ATOM      6  C   UNL     1       1.637   1.656  22.179  0.00  0.00    +0.000 C 
ATOM      7  C   UNL     1       2.679   2.257  19.944  0.00  0.00    +0.000 A 
ATOM      8  C   UNL     1       3.013   3.187  18.951  0.00  0.00    +0.000 A 
ATOM      9  C   UNL     1       2.649   4.538  19.104  0.00  0.00    +0.000 A 
ATOM     10  C   UNL     1       2.907   5.513  18.097  0.00  0.00    +0.000 A 
ATOM     11  N   UNL     1       2.285   6.688  18.234  0.00  0.00    +0.000 NA
ENDROOT
BRANCH   1  15
ATOM     12  C   UNL     1       1.147  11.228  18.762  0.00  0.00    +0.000 A 
ATOM     13  C   UNL     1       1.872  10.473  17.825  0.00  0.00    +0.000 A 
ATOM     14  C   UNL     1       2.265   9.170  18.138  0.00  0.00    +0.000 A 
ATOM     15  C   UNL     1       1.913   8.609  19.380  0.00  0.00    +0.000 A 
ATOM     16  C   UNL     1       1.238   9.388  20.340  0.00  0.00    +0.000 A 
ATOM     17  C   UNL     1       0.770   8.829  21.655  0.00  0.00    +0.000 C 
ATOM     18  C   UNL     1       0.896  10.705  20.030  0.00  0.00    +0.000 A 
BRANCH  12  20
ATOM     19  C   UNL     1      -0.790  12.606  18.380  0.00  0.00    +0.000 C 
ATOM     20  O   UNL     1       0.576  12.418  18.467  0.00  0.00    +0.000 OA
ENDBRANCH  12  20
ENDBRANCH   1  15
BRANCH  10  21
ATOM     21  C   UNL     1       4.307   5.976  17.877  0.00  0.00    +0.000 A 
ATOM     22  C   UNL     1       5.296   5.860  18.877  0.00  0.00    +0.000 A 
ATOM     23  C   UNL     1       6.658   5.864  18.529  0.00  0.00    +0.000 A 
ATOM     24  C   UNL     1       7.049   5.917  17.185  0.00  0.00    +0.000 A 
ATOM     25  C   UNL     1       6.092   5.976  16.168  0.00  0.00    +0.000 A 
ATOM     26  C   UNL     1       4.729   6.034  16.533  0.00  0.00    +0.000 A 
BRANCH  25  27
ATOM     27  O   UNL     1       6.517   5.872  14.870  0.00  0.00    +0.000 OA
BRANCH  27  28
ATOM     28  C   UNL     1       7.036   4.747  14.235  0.00  0.00    +0.000 C 
BRANCH  28  29
ATOM     29  C   UNL     1       5.928   3.748  13.908  0.00  0.00    +0.000 C 
BRANCH  29  30
ATOM     30  N   UNL     1       6.046   3.220  12.525  0.00  0.00    +0.000 NA
ATOM     31  C   UNL     1       4.775   3.319  11.776  0.00  0.00    +0.000 C 
ATOM     32  C   UNL     1       7.083   3.972  11.803  0.00  0.00    +0.000 C 
ENDBRANCH  29  30
ENDBRANCH  28  29
ENDBRANCH  27  28
ENDBRANCH  25  27
ENDBRANCH  10  21
TORSDOF 7
ENDMDL
MODEL 2
REMARK VINA RESULT:      -7.4      4.338      8.305
REMARK  Name = 
REMARK  12 active torsions:
REMARK  status: ('A' for Active; 'I' for Inactive)
REMARK    1  A    between atoms: C_1  and  O_2
REMARK    2  A    between atoms: O_2  and  C_3
REMARK    3  A    between atoms: C_6  and  C_7
REMARK    4  A    between atoms: C_11  and  C_12
REMARK    5  A    between atoms: C_16  and  C_17
REMARK    6  A    between atoms: C_21  and  O_22
REMARK    7  A    between atoms: O_22  and  C_23
REMARK    8  A    between atoms: C_23  and  C_24
REMARK    9  A    between atoms: C_24  and  N_25
REMARK   10  A    between atoms: N_25  and  C_26
REMARK   11  A    between atoms: N_25  and  C_27
REMARK   12  A    between atoms: C_30  and  C_31
REMARK                            x       y       z     vdW  Elec       q    Type
REMARK                         _______ _______ _______ _____ _____    ______ ____
ROOT
ATOM      1  C   UNL     1      -1.496  12.716  19.762  0.00  0.00    +0.000 A 
ATOM      2  C   UNL     1      -0.905  13.816  19.140  0.00  0.00    +0.000 A 
ATOM      3  C   UNL     1       0.471  14.028  19.353  0.00  0.00    +0.000 A 
ATOM      4  C   UNL     1       1.081  15.209  18.915  0.00  0.00    +0.000 A 
ATOM      5  C   UNL     1       2.446  15.436  19.150  0.00  0.00    +0.000 A 
ATOM      6  C   UNL     1       3.053  16.770  18.803  0.00  0.00    +0.000 C 
ATOM      7  C   UNL     1       3.213  14.419  19.747  0.00  0.00    +0.000 A 
ATOM      8  C   UNL     1       2.635  13.199  20.120  0.00  0.00    +0.000 A 
ATOM      9  C   UNL     1       1.248  13.005  19.970  0.00  0.00    +0.000 A 
ATOM     10  C   UNL     1       0.598  11.808  20.391  0.00  0.00    +0.000 A 
ATOM     11  N   UNL     1      -0.737  11.845  20.447  0.00  0.00    +0.000 NA
ENDROOT
BRANCH   1  15
ATOM     12  C   UNL     1      -5.344  11.858  18.395  0.00  0.00    +0.000 A 
ATOM     13  C   UNL     1      -5.149  12.378  19.686  0.00  0.00    +0.000 A 
ATOM     14  C   UNL     1      -3.858  12.470  20.211  0.00  0.00    +0.000 A 
ATOM     15  C   UNL     1      -2.754  12.065  19.436  0.00  0.00    +0.000 A 
ATOM     16  C   UNL     1      -2.957  11.490  18.166  0.00  0.00    +0.000 A 
ATOM     17  C   UNL     1      -1.820  11.105  17.260  0.00  0.00    +0.000 C 
ATOM     18  C   UNL     1      -4.258  11.360  17.677  0.00  0.00    +0.000 A 
BRANCH  12  20
ATOM     19  C   UNL     1      -7.469  12.901  17.960  0.00  0.00    +0.000 C 
ATOM     20  O   UNL     1      -6.532  11.908  17.751  0.00  0.00    +0.000 OA
ENDBRANCH  12  20
ENDBRANCH   1  15
BRANCH  10  21
ATOM     21  C   UNL     1       0.798  10.558  19.604  0.00  0.00    +0.000 A 
ATOM     22  C   UNL     1       1.388  10.571  18.322  0.00  0.00    +0.000 A 
ATOM     23  C   UNL     1       1.976   9.405  17.802  0.00  0.00    +0.000 A 
ATOM     24  C   UNL     1       2.042   8.237  18.572  0.00  0.00    +0.000 A 
ATOM     25  C   UNL     1       1.517   8.208  19.867  0.00  0.00    +0.000 A 
ATOM     26  C   UNL     1       0.874   9.367  20.355  0.00  0.00    +0.000 A 
BRANCH  25  27
ATOM     27  O   UNL     1       1.741   7.096  20.634  0.00  0.00    +0.000 OA
BRANCH  27  28
ATOM     28  C   UNL     1       2.216   5.857  20.214  0.00  0.00    +0.000 C 
BRANCH  28  29
ATOM     29  C   UNL     1       1.205   4.754  20.523  0.00  0.00    +0.000 C 
BRANCH  29  30
ATOM     30  N   UNL     1       1.803   3.400  20.397  0.00  0.00    +0.000 NA
ATOM     31  C   UNL     1       1.641   2.598  21.629  0.00  0.00    +0.000 C 
ATOM     32  C   UNL     1       1.165   2.689  19.279  0.00  0.00    +0.000 C 
ENDBRANCH  29  30
ENDBRANCH  28  29
ENDBRANCH  27  28
ENDBRANCH  25  27
ENDBRANCH  10  21
TORSDOF 7
ENDMDL
MODEL 3
REMARK VINA RESULT:      -7.4      3.703      7.348
REMARK  Name = 
REMARK  12 active torsions:
REMARK  status: ('A' for Active; 'I' for Inactive)
REMARK    1  A    between atoms: C_1  and  O_2
REMARK    2  A    between atoms: O_2  and  C_3
REMARK    3  A    between atoms: C_6  and  C_7
REMARK    4  A    between atoms: C_11  and  C_12
REMARK    5  A    between atoms: C_16  and  C_17
REMARK    6  A    between atoms: C_21  and  O_22
REMARK    7  A    between atoms: O_22  and  C_23
REMARK    8  A    between atoms: C_23  and  C_24
REMARK    9  A    between atoms: C_24  and  N_25
REMARK   10  A    between atoms: N_25  and  C_26
REMARK   11  A    between atoms: N_25  and  C_27
REMARK   12  A    between atoms: C_30  and  C_31
REMARK                            x       y       z     vdW  Elec       q    Type
REMARK                         _______ _______ _______ _____ _____    ______ ____
ROOT
ATOM      1  C   UNL     1      -0.173  13.072  19.055  0.00  0.00    +0.000 A 
ATOM      2  C   UNL     1      -1.562  13.045  19.174  0.00  0.00    +0.000 A 
ATOM      3  C   UNL     1      -2.242  11.924  18.660  0.00  0.00    +0.000 A 
ATOM      4  C   UNL     1      -3.639  11.919  18.578  0.00  0.00    +0.000 A 
ATOM      5  C   UNL     1      -4.319  10.815  18.042  0.00  0.00    +0.000 A 
ATOM      6  C   UNL     1      -5.807  10.885  17.826  0.00  0.00    +0.000 C 
ATOM      7  C   UNL     1      -3.581   9.674  17.674  0.00  0.00    +0.000 A 
ATOM      8  C   UNL     1      -2.190   9.631  17.824  0.00  0.00    +0.000 A 
ATOM      9  C   UNL     1      -1.497  10.771  18.275  0.00  0.00    +0.000 A 
ATOM     10  C   UNL     1      -0.076  10.803  18.385  0.00  0.00    +0.000 A 
ATOM     11  N   UNL     1       0.479  12.006  18.561  0.00  0.00    +0.000 NA
ENDROOT
BRANCH   1  15
ATOM     12  C   UNL     1       3.250  15.075  20.352  0.00  0.00    +0.000 A 
ATOM     13  C   UNL     1       3.000  13.756  20.769  0.00  0.00    +0.000 A 
ATOM     14  C   UNL     1       1.762  13.167  20.501  0.00  0.00    +0.000 A 
ATOM     15  C   UNL     1       0.779  13.885  19.794  0.00  0.00    +0.000 A 
ATOM     16  C   UNL     1       1.012  15.226  19.429  0.00  0.00    +0.000 A 
ATOM     17  C   UNL     1       0.036  16.024  18.611  0.00  0.00    +0.000 C 
ATOM     18  C   UNL     1       2.236  15.816  19.748  0.00  0.00    +0.000 A 
BRANCH  12  20
ATOM     19  C   UNL     1       4.716  16.965  20.078  0.00  0.00    +0.000 C 
ATOM     20  O   UNL     1       4.475  15.645  20.409  0.00  0.00    +0.000 OA
ENDBRANCH  12  20
ENDBRANCH   1  15
BRANCH  10  21
ATOM     21  C   UNL     1       0.584  10.041  19.481  0.00  0.00    +0.000 A 
ATOM     22  C   UNL     1      -0.000   9.916  20.760  0.00  0.00    +0.000 A 
ATOM     23  C   UNL     1       0.374   8.862  21.611  0.00  0.00    +0.000 A 
ATOM     24  C   UNL     1       1.279   7.885  21.176  0.00  0.00    +0.000 A 
ATOM     25  C   UNL     1       1.833   7.948  19.895  0.00  0.00    +0.000 A 
ATOM     26  C   UNL     1       1.497   9.047  19.073  0.00  0.00    +0.000 A 
BRANCH  25  27
ATOM     27  O   UNL     1       2.592   6.892  19.462  0.00  0.00    +0.000 OA
BRANCH  27  28
ATOM     28  C   UNL     1       2.582   6.301  18.202  0.00  0.00    +0.000 C 
BRANCH  28  29
ATOM     29  C   UNL     1       2.218   4.821  18.300  0.00  0.00    +0.000 C 
BRANCH  29  30
ATOM     30  N   UNL     1       2.356   4.304  19.686  0.00  0.00    +0.000 NA
ATOM     31  C   UNL     1       1.083   3.767  20.215  0.00  0.00    +0.000 C 
ATOM     32  C   UNL     1       3.369   3.238  19.709  0.00  0.00    +0.000 C 
ENDBRANCH  29  30
ENDBRANCH  28  29
ENDBRANCH  27  28
ENDBRANCH  25  27
ENDBRANCH  10  21
TORSDOF 7
ENDMDL
MODEL 4
REMARK VINA RESULT:      -7.4      3.313      7.082
REMARK  Name = 
REMARK  12 active torsions:
REMARK  status: ('A' for Active; 'I' for Inactive)
REMARK    1  A    between atoms: C_1  and  O_2
REMARK    2  A    between atoms: O_2  and  C_3
REMARK    3  A    between atoms: C_6  and  C_7
REMARK    4  A    between atoms: C_11  and  C_12
REMARK    5  A    between atoms: C_16  and  C_17
REMARK    6  A    between atoms: C_21  and  O_22
REMARK    7  A    between atoms: O_22  and  C_23
REMARK    8  A    between atoms: C_23  and  C_24
REMARK    9  A    between atoms: C_24  and  N_25
REMARK   10  A    between atoms: N_25  and  C_26
REMARK   11  A    between atoms: N_25  and  C_27
REMARK   12  A    between atoms: C_30  and  C_31
REMARK                            x       y       z     vdW  Elec       q    Type
REMARK                         _______ _______ _______ _____ _____    ______ ____
ROOT
ATOM      1  C   UNL     1      -0.239  13.151  19.152  0.00  0.00    +0.000 A 
ATOM      2  C   UNL     1      -1.619  13.083  19.347  0.00  0.00    +0.000 A 
ATOM      3  C   UNL     1      -2.307  11.991  18.783  0.00  0.00    +0.000 A 
ATOM      4  C   UNL     1      -3.706  11.961  18.781  0.00  0.00    +0.000 A 
ATOM      5  C   UNL     1      -4.396  10.889  18.196  0.00  0.00    +0.000 A 
ATOM      6  C   UNL     1      -5.896  10.942  18.073  0.00  0.00    +0.000 C 
ATOM      7  C   UNL     1      -3.661   9.798  17.696  0.00  0.00    +0.000 A 
ATOM      8  C   UNL     1      -2.263   9.775  17.761  0.00  0.00    +0.000 A 
ATOM      9  C   UNL     1      -1.566  10.891  18.264  0.00  0.00    +0.000 A 
ATOM     10  C   UNL     1      -0.142  10.946  18.294  0.00  0.00    +0.000 A 
ATOM     11  N   UNL     1       0.401  12.143  18.536  0.00  0.00    +0.000 NA
ENDROOT
BRANCH   1  15
ATOM     12  C   UNL     1       3.251  15.018  20.471  0.00  0.00    +0.000 A 
ATOM     13  C   UNL     1       2.951  13.707  20.878  0.00  0.00    +0.000 A 
ATOM     14  C   UNL     1       1.694  13.165  20.603  0.00  0.00    +0.000 A 
ATOM     15  C   UNL     1       0.740  13.924  19.898  0.00  0.00    +0.000 A 
ATOM     16  C   UNL     1       1.022  15.258  19.544  0.00  0.00    +0.000 A 
ATOM     17  C   UNL     1       0.078  16.097  18.729  0.00  0.00    +0.000 C 
ATOM     18  C   UNL     1       2.266  15.801  19.870  0.00  0.00    +0.000 A 
BRANCH  12  20
ATOM     19  C   UNL     1       4.889  16.657  19.819  0.00  0.00    +0.000 C 
ATOM     20  O   UNL     1       4.495  15.543  20.535  0.00  0.00    +0.000 OA
ENDBRANCH  12  20
ENDBRANCH   1  15
BRANCH  10  21
ATOM     21  C   UNL     1       0.596  10.113  19.285  0.00  0.00    +0.000 A 
ATOM     22  C   UNL     1       0.066   9.830  20.562  0.00  0.00    +0.000 A 
ATOM     23  C   UNL     1       0.524   8.716  21.287  0.00  0.00    +0.000 A 
ATOM     24  C   UNL     1       1.460   7.838  20.727  0.00  0.00    +0.000 A 
ATOM     25  C   UNL     1       1.963   8.060  19.442  0.00  0.00    +0.000 A 
ATOM     26  C   UNL     1       1.542   9.216  18.748  0.00  0.00    +0.000 A 
BRANCH  25  27
ATOM     27  O   UNL     1       2.756   7.095  18.879  0.00  0.00    +0.000 OA
BRANCH  27  28
ATOM     28  C   UNL     1       2.801   5.741  19.198  0.00  0.00    +0.000 C 
BRANCH  28  29
ATOM     29  C   UNL     1       4.244   5.268  19.356  0.00  0.00    +0.000 C 
BRANCH  29  30
ATOM     30  N   UNL     1       4.658   4.365  18.252  0.00  0.00    +0.000 NA
ATOM     31  C   UNL     1       3.510   3.663  17.640  0.00  0.00    +0.000 C 
ATOM     32  C   UNL     1       5.347   5.148  17.215  0.00  0.00    +0.000 C 
ENDBRANCH  29  30
ENDBRANCH  28  29
ENDBRANCH  27  28
ENDBRANCH  25  27
ENDBRANCH  10  21
TORSDOF 7
ENDMDL
MODEL 5
REMARK VINA RESULT:      -7.3      3.364      8.163
REMARK  Name = 
REMARK  12 active torsions:
REMARK  status: ('A' for Active; 'I' for Inactive)
REMARK    1  A    between atoms: C_1  and  O_2
REMARK    2  A    between atoms: O_2  and  C_3
REMARK    3  A    between atoms: C_6  and  C_7
REMARK    4  A    between atoms: C_11  and  C_12
REMARK    5  A    between atoms: C_16  and  C_17
REMARK    6  A    between atoms: C_21  and  O_22
REMARK    7  A    between atoms: O_22  and  C_23
REMARK    8  A    between atoms: C_23  and  C_24
REMARK    9  A    between atoms: C_24  and  N_25
REMARK   10  A    between atoms: N_25  and  C_26
REMARK   11  A    between atoms: N_25  and  C_27
REMARK   12  A    between atoms: C_30  and  C_31
REMARK                            x       y       z     vdW  Elec       q    Type
REMARK                         _______ _______ _______ _____ _____    ______ ____
ROOT
ATOM      1  C   UNL     1      -1.384  12.916  19.713  0.00  0.00    +0.000 A 
ATOM      2  C   UNL     1      -0.476  13.325  18.736  0.00  0.00    +0.000 A 
ATOM      3  C   UNL     1       0.827  13.659  19.151  0.00  0.00    +0.000 A 
ATOM      4  C   UNL     1       1.726  14.252  18.257  0.00  0.00    +0.000 A 
ATOM      5  C   UNL     1       3.016  14.611  18.673  0.00  0.00    +0.000 A 
ATOM      6  C   UNL     1       3.917  15.379  17.743  0.00  0.00    +0.000 C 
ATOM      7  C   UNL     1       3.427  14.281  19.979  0.00  0.00    +0.000 A 
ATOM      8  C   UNL     1       2.568  13.615  20.862  0.00  0.00    +0.000 A 
ATOM      9  C   UNL     1       1.242  13.337  20.476  0.00  0.00    +0.000 A 
ATOM     10  C   UNL     1       0.308  12.720  21.358  0.00  0.00    +0.000 A 
ATOM     11  N   UNL     1      -0.974  12.752  20.982  0.00  0.00    +0.000 NA
ENDROOT
BRANCH   1  15
ATOM     12  C   UNL     1      -5.159  11.642  18.475  0.00  0.00    +0.000 A 
ATOM     13  C   UNL     1      -5.030  12.537  19.551  0.00  0.00    +0.000 A 
ATOM     14  C   UNL     1      -3.768  12.799  20.089  0.00  0.00    +0.000 A 
ATOM     15  C   UNL     1      -2.627  12.185  19.538  0.00  0.00    +0.000 A 
ATOM     16  C   UNL     1      -2.767  11.243  18.499  0.00  0.00    +0.000 A 
ATOM     17  C   UNL     1      -1.586  10.608  17.818  0.00  0.00    +0.000 C 
ATOM     18  C   UNL     1      -4.040  10.956  18.005  0.00  0.00    +0.000 A 
BRANCH  12  20
ATOM     19  C   UNL     1      -7.097  12.532  17.359  0.00  0.00    +0.000 C 
ATOM     20  O   UNL     1      -6.311  11.480  17.786  0.00  0.00    +0.000 OA
ENDBRANCH  12  20
ENDBRANCH   1  15
BRANCH  10  21
ATOM     21  C   UNL     1       0.457  11.272  21.676  0.00  0.00    +0.000 A 
ATOM     22  C   UNL     1      -0.429  10.605  22.550  0.00  0.00    +0.000 A 
ATOM     23  C   UNL     1      -0.566   9.208  22.489  0.00  0.00    +0.000 A 
ATOM     24  C   UNL     1       0.121   8.467  21.519  0.00  0.00    +0.000 A 
ATOM     25  C   UNL     1       0.963   9.104  20.602  0.00  0.00    +0.000 A 
ATOM     26  C   UNL     1       1.140  10.501  20.714  0.00  0.00    +0.000 A 
BRANCH  25  27
ATOM     27  O   UNL     1       1.491   8.360  19.580  0.00  0.00    +0.000 OA
BRANCH  27  28
ATOM     28  C   UNL     1       2.271   7.212  19.682  0.00  0.00    +0.000 C 
BRANCH  28  29
ATOM     29  C   UNL     1       2.864   6.836  18.325  0.00  0.00    +0.000 C 
BRANCH  29  30
ATOM     30  N   UNL     1       3.125   5.378  18.217  0.00  0.00    +0.000 NA
ATOM     31  C   UNL     1       1.908   4.614  17.868  0.00  0.00    +0.000 C 
ATOM     32  C   UNL     1       4.148   5.142  17.186  0.00  0.00    +0.000 C 
ENDBRANCH  29  30
ENDBRANCH  28  29
ENDBRANCH  27  28
ENDBRANCH  25  27
ENDBRANCH  10  21
TORSDOF 7
ENDMDL
MODEL 6
REMARK VINA RESULT:      -7.3      3.948      7.331
REMARK  Name = 
REMARK  12 active torsions:
REMARK  status: ('A' for Active; 'I' for Inactive)
REMARK    1  A    between atoms: C_1  and  O_2
REMARK    2  A    between atoms: O_2  and  C_3
REMARK    3  A    between atoms: C_6  and  C_7
REMARK    4  A    between atoms: C_11  and  C_12
REMARK    5  A    between atoms: C_16  and  C_17
REMARK    6  A    between atoms: C_21  and  O_22
REMARK    7  A    between atoms: O_22  and  C_23
REMARK    8  A    between atoms: C_23  and  C_24
REMARK    9  A    between atoms: C_24  and  N_25
REMARK   10  A    between atoms: N_25  and  C_26
REMARK   11  A    between atoms: N_25  and  C_27
REMARK   12  A    between atoms: C_30  and  C_31
REMARK                            x       y       z     vdW  Elec       q    Type
REMARK                         _______ _______ _______ _____ _____    ______ ____
ROOT
ATOM      1  C   UNL     1       0.222  12.930  19.117  0.00  0.00    +0.000 A 
ATOM      2  C   UNL     1      -1.169  12.974  19.210  0.00  0.00    +0.000 A 
ATOM      3  C   UNL     1      -1.898  11.915  18.634  0.00  0.00    +0.000 A 
ATOM      4  C   UNL     1      -3.292  11.990  18.528  0.00  0.00    +0.000 A 
ATOM      5  C   UNL     1      -4.019  10.950  17.931  0.00  0.00    +0.000 A 
ATOM      6  C   UNL     1      -5.497  11.110  17.692  0.00  0.00    +0.000 C 
ATOM      7  C   UNL     1      -3.337   9.786  17.526  0.00  0.00    +0.000 A 
ATOM      8  C   UNL     1      -1.953   9.661  17.698  0.00  0.00    +0.000 A 
ATOM      9  C   UNL     1      -1.209  10.741  18.212  0.00  0.00    +0.000 A 
ATOM     10  C   UNL     1       0.209  10.691  18.348  0.00  0.00    +0.000 A 
ATOM     11  N   UNL     1       0.824  11.852  18.587  0.00  0.00    +0.000 NA
ENDROOT
BRANCH   1  15
ATOM     12  C   UNL     1       2.403  15.896  21.078  0.00  0.00    +0.000 A 
ATOM     13  C   UNL     1       2.704  15.557  19.747  0.00  0.00    +0.000 A 
ATOM     14  C   UNL     1       2.114  14.433  19.167  0.00  0.00    +0.000 A 
ATOM     15  C   UNL     1       1.201  13.657  19.907  0.00  0.00    +0.000 A 
ATOM     16  C   UNL     1       0.947  13.965  21.258  0.00  0.00    +0.000 A 
ATOM     17  C   UNL     1      -0.069  13.223  22.081  0.00  0.00    +0.000 C 
ATOM     18  C   UNL     1       1.583  15.064  21.838  0.00  0.00    +0.000 A 
BRANCH  12  20
ATOM     19  C   UNL     1       3.981  17.223  22.322  0.00  0.00    +0.000 C 
ATOM     20  O   UNL     1       2.787  17.062  21.646  0.00  0.00    +0.000 OA
ENDBRANCH  12  20
ENDBRANCH   1  15
BRANCH  10  21
ATOM     21  C   UNL     1       0.806   9.846  19.421  0.00  0.00    +0.000 A 
ATOM     22  C   UNL     1       0.161   9.652  20.662  0.00  0.00    +0.000 A 
ATOM     23  C   UNL     1       0.478   8.537  21.457  0.00  0.00    +0.000 A 
ATOM     24  C   UNL     1       1.385   7.573  21.001  0.00  0.00    +0.000 A 
ATOM     25  C   UNL     1       1.999   7.707  19.753  0.00  0.00    +0.000 A 
ATOM     26  C   UNL     1       1.719   8.863  18.990  0.00  0.00    +0.000 A 
BRANCH  25  27
ATOM     27  O   UNL     1       2.758   6.666  19.286  0.00  0.00    +0.000 OA
BRANCH  27  28
ATOM     28  C   UNL     1       2.311   5.443  18.797  0.00  0.00    +0.000 C 
BRANCH  28  29
ATOM     29  C   UNL     1       2.503   4.340  19.836  0.00  0.00    +0.000 C 
BRANCH  29  30
ATOM     30  N   UNL     1       1.247   3.589  20.089  0.00  0.00    +0.000 NA
ATOM     31  C   UNL     1       0.927   2.645  18.997  0.00  0.00    +0.000 C 
ATOM     32  C   UNL     1       1.374   2.836  21.346  0.00  0.00    +0.000 C 
ENDBRANCH  29  30
ENDBRANCH  28  29
ENDBRANCH  27  28
ENDBRANCH  25  27
ENDBRANCH  10  21
TORSDOF 7
ENDMDL
MODEL 7
REMARK VINA RESULT:      -7.1      3.807      8.564
REMARK  Name = 
REMARK  12 active torsions:
REMARK  status: ('A' for Active; 'I' for Inactive)
REMARK    1  A    between atoms: C_1  and  O_2
REMARK    2  A    between atoms: O_2  and  C_3
REMARK    3  A    between atoms: C_6  and  C_7
REMARK    4  A    between atoms: C_11  and  C_12
REMARK    5  A    between atoms: C_16  and  C_17
REMARK    6  A    between atoms: C_21  and  O_22
REMARK    7  A    between atoms: O_22  and  C_23
REMARK    8  A    between atoms: C_23  and  C_24
REMARK    9  A    between atoms: C_24  and  N_25
REMARK   10  A    between atoms: N_25  and  C_26
REMARK   11  A    between atoms: N_25  and  C_27
REMARK   12  A    between atoms: C_30  and  C_31
REMARK                            x       y       z     vdW  Elec       q    Type
REMARK                         _______ _______ _______ _____ _____    ______ ____
ROOT
ATOM      1  C   UNL     1      -0.733  12.650  18.936  0.00  0.00    +0.000 A 
ATOM      2  C   UNL     1       0.492  13.081  18.425  0.00  0.00    +0.000 A 
ATOM      3  C   UNL     1       1.326  13.836  19.273  0.00  0.00    +0.000 A 
ATOM      4  C   UNL     1       2.475  14.454  18.768  0.00  0.00    +0.000 A 
ATOM      5  C   UNL     1       3.294  15.229  19.602  0.00  0.00    +0.000 A 
ATOM      6  C   UNL     1       4.442  16.004  19.014  0.00  0.00    +0.000 C 
ATOM      7  C   UNL     1       2.995  15.298  20.976  0.00  0.00    +0.000 A 
ATOM      8  C   UNL     1       1.893  14.621  21.513  0.00  0.00    +0.000 A 
ATOM      9  C   UNL     1       1.018  13.919  20.662  0.00  0.00    +0.000 A 
ATOM     10  C   UNL     1      -0.152  13.266  21.147  0.00  0.00    +0.000 A 
ATOM     11  N   UNL     1      -1.036  12.869  20.226  0.00  0.00    +0.000 NA
ENDROOT
BRANCH   1  15
ATOM     12  C   UNL     1      -3.047  10.139  16.538  0.00  0.00    +0.000 A 
ATOM     13  C   UNL     1      -3.625  11.265  17.150  0.00  0.00    +0.000 A 
ATOM     14  C   UNL     1      -2.903  11.981  18.108  0.00  0.00    +0.000 A 
ATOM     15  C   UNL     1      -1.592  11.588  18.440  0.00  0.00    +0.000 A 
ATOM     16  C   UNL     1      -1.039  10.425  17.868  0.00  0.00    +0.000 A 
ATOM     17  C   UNL     1       0.378   9.993  18.123  0.00  0.00    +0.000 C 
ATOM     18  C   UNL     1      -1.792   9.693  16.949  0.00  0.00    +0.000 A 
BRANCH  12  20
ATOM     19  C   UNL     1      -3.477   9.954  14.176  0.00  0.00    +0.000 C 
ATOM     20  O   UNL     1      -3.604   9.510  15.478  0.00  0.00    +0.000 OA
ENDBRANCH  12  20
ENDBRANCH   1  15
BRANCH  10  21
ATOM     21  C   UNL     1      -0.008  12.010  21.937  0.00  0.00    +0.000 A 
ATOM     22  C   UNL     1      -1.053  11.514  22.747  0.00  0.00    +0.000 A 
ATOM     23  C   UNL     1      -1.087  10.156  23.105  0.00  0.00    +0.000 A 
ATOM     24  C   UNL     1      -0.125   9.266  22.612  0.00  0.00    +0.000 A 
ATOM     25  C   UNL     1       0.890   9.714  21.763  0.00  0.00    +0.000 A 
ATOM     26  C   UNL     1       0.950  11.092  21.460  0.00  0.00    +0.000 A 
BRANCH  25  27
ATOM     27  O   UNL     1       1.713   8.783  21.185  0.00  0.00    +0.000 OA
BRANCH  27  28
ATOM     28  C   UNL     1       1.375   7.504  20.754  0.00  0.00    +0.000 C 
BRANCH  28  29
ATOM     29  C   UNL     1       2.276   7.064  19.601  0.00  0.00    +0.000 C 
BRANCH  29  30
ATOM     30  N   UNL     1       2.853   5.715  19.830  0.00  0.00    +0.000 NA
ATOM     31  C   UNL     1       1.994   4.875  20.692  0.00  0.00    +0.000 C 
ATOM     32  C   UNL     1       3.035   5.038  18.536  0.00  0.00    +0.000 C 
ENDBRANCH  29  30
ENDBRANCH  28  29
ENDBRANCH  27  28
ENDBRANCH  25  27
ENDBRANCH  10  21
TORSDOF 7
ENDMDL
MODEL 8
REMARK VINA RESULT:      -7.1      4.265     10.604
REMARK  Name = 
REMARK  12 active torsions:
REMARK  status: ('A' for Active; 'I' for Inactive)
REMARK    1  A    between atoms: C_1  and  O_2
REMARK    2  A    between atoms: O_2  and  C_3
REMARK    3  A    between atoms: C_6  and  C_7
REMARK    4  A    between atoms: C_11  and  C_12
REMARK    5  A    between atoms: C_16  and  C_17
REMARK    6  A    between atoms: C_21  and  O_22
REMARK    7  A    between atoms: O_22  and  C_23
REMARK    8  A    between atoms: C_23  and  C_24
REMARK    9  A    between atoms: C_24  and  N_25
REMARK   10  A    between atoms: N_25  and  C_26
REMARK   11  A    between atoms: N_25  and  C_27
REMARK   12  A    between atoms: C_30  and  C_31
REMARK                            x       y       z     vdW  Elec       q    Type
REMARK                         _______ _______ _______ _____ _____    ______ ____
ROOT
ATOM      1  C   UNL     1       1.022  11.030  18.581  0.00  0.00    +0.000 A 
ATOM      2  C   UNL     1       2.023  11.987  18.740  0.00  0.00    +0.000 A 
ATOM      3  C   UNL     1       1.640  13.342  18.737  0.00  0.00    +0.000 A 
ATOM      4  C   UNL     1       2.608  14.352  18.704  0.00  0.00    +0.000 A 
ATOM      5  C   UNL     1       2.231  15.703  18.674  0.00  0.00    +0.000 A 
ATOM      6  C   UNL     1       3.278  16.769  18.491  0.00  0.00    +0.000 C 
ATOM      7  C   UNL     1       0.866  16.031  18.774  0.00  0.00    +0.000 A 
ATOM      8  C   UNL     1      -0.112  15.035  18.888  0.00  0.00    +0.000 A 
ATOM      9  C   UNL     1       0.258  13.678  18.825  0.00  0.00    +0.000 A 
ATOM     10  C   UNL     1      -0.703  12.625  18.872  0.00  0.00    +0.000 A 
ATOM     11  N   UNL     1      -0.267  11.408  18.536  0.00  0.00    +0.000 NA
ENDROOT
BRANCH   1  15
ATOM     12  C   UNL     1       2.267   7.149  19.473  0.00  0.00    +0.000 A 
ATOM     13  C   UNL     1       2.086   7.546  18.136  0.00  0.00    +0.000 A 
ATOM     14  C   UNL     1       1.477   8.770  17.853  0.00  0.00    +0.000 A 
ATOM     15  C   UNL     1       1.069   9.613  18.904  0.00  0.00    +0.000 A 
ATOM     16  C   UNL     1       1.199   9.186  20.241  0.00  0.00    +0.000 A 
ATOM     17  C   UNL     1       0.851  10.066  21.409  0.00  0.00    +0.000 C 
ATOM     18  C   UNL     1       1.764   7.938  20.506  0.00  0.00    +0.000 A 
BRANCH  12  20
ATOM     19  C   UNL     1       4.048   5.581  19.065  0.00  0.00    +0.000 C 
ATOM     20  O   UNL     1       3.007   6.074  19.828  0.00  0.00    +0.000 OA
ENDBRANCH  12  20
ENDBRANCH   1  15
BRANCH  10  21
ATOM     21  C   UNL     1      -1.382  12.319  20.163  0.00  0.00    +0.000 A 
ATOM     22  C   UNL     1      -0.744  12.519  21.406  0.00  0.00    +0.000 A 
ATOM     23  C   UNL     1      -1.507  12.668  22.577  0.00  0.00    +0.000 A 
ATOM     24  C   UNL     1      -2.906  12.686  22.518  0.00  0.00    +0.000 A 
ATOM     25  C   UNL     1      -3.567  12.547  21.294  0.00  0.00    +0.000 A 
ATOM     26  C   UNL     1      -2.791  12.336  20.133  0.00  0.00    +0.000 A 
BRANCH  25  27
ATOM     27  O   UNL     1      -4.926  12.725  21.266  0.00  0.00    +0.000 OA
BRANCH  27  28
ATOM     28  C   UNL     1      -5.775  12.598  20.171  0.00  0.00    +0.000 C 
BRANCH  28  29
ATOM     29  C   UNL     1      -6.789  11.477  20.397  0.00  0.00    +0.000 C 
BRANCH  29  30
ATOM     30  N   UNL     1      -6.966  10.635  19.186  0.00  0.00    +0.000 NA
ATOM     31  C   UNL     1      -5.859  10.800  18.220  0.00  0.00    +0.000 C 
ATOM     32  C   UNL     1      -7.044   9.222  19.584  0.00  0.00    +0.000 C 
ENDBRANCH  29  30
ENDBRANCH  28  29
ENDBRANCH  27  28
ENDBRANCH  25  27
ENDBRANCH  10  21
TORSDOF 7
ENDMDL
MODEL 9
REMARK VINA RESULT:      -7.1      4.803      9.215
REMARK  Name = 
REMARK  12 active torsions:
REMARK  status: ('A' for Active; 'I' for Inactive)
REMARK    1  A    between atoms: C_1  and  O_2
REMARK    2  A    between atoms: O_2  and  C_3
REMARK    3  A    between atoms: C_6  and  C_7
REMARK    4  A    between atoms: C_11  and  C_12
REMARK    5  A    between atoms: C_16  and  C_17
REMARK    6  A    between atoms: C_21  and  O_22
REMARK    7  A    between atoms: O_22  and  C_23
REMARK    8  A    between atoms: C_23  and  C_24
REMARK    9  A    between atoms: C_24  and  N_25
REMARK   10  A    between atoms: N_25  and  C_26
REMARK   11  A    between atoms: N_25  and  C_27
REMARK   12  A    between atoms: C_30  and  C_31
REMARK                            x       y       z     vdW  Elec       q    Type
REMARK                         _______ _______ _______ _____ _____    ______ ____
ROOT
ATOM      1  C   UNL     1       1.736  12.506  18.904  0.00  0.00    +0.000 A 
ATOM      2  C   UNL     1       2.026  11.389  18.122  0.00  0.00    +0.000 A 
ATOM      3  C   UNL     1       1.914  10.121  18.724  0.00  0.00    +0.000 A 
ATOM      4  C   UNL     1       2.369   8.978  18.056  0.00  0.00    +0.000 A 
ATOM      5  C   UNL     1       2.284   7.716  18.663  0.00  0.00    +0.000 A 
ATOM      6  C   UNL     1       2.909   6.520  17.995  0.00  0.00    +0.000 C 
ATOM      7  C   UNL     1       1.649   7.603  19.914  0.00  0.00    +0.000 A 
ATOM      8  C   UNL     1       1.117   8.725  20.561  0.00  0.00    +0.000 A 
ATOM      9  C   UNL     1       1.283  10.005  19.996  0.00  0.00    +0.000 A 
ATOM     10  C   UNL     1       0.818  11.187  20.643  0.00  0.00    +0.000 A 
ATOM     11  N   UNL     1       1.265  12.347  20.152  0.00  0.00    +0.000 NA
ENDROOT
BRANCH   1  15
ATOM     12  C   UNL     1       0.750  16.558  18.754  0.00  0.00    +0.000 A 
ATOM     13  C   UNL     1      -0.262  15.582  18.777  0.00  0.00    +0.000 A 
ATOM     14  C   UNL     1       0.070  14.234  18.621  0.00  0.00    +0.000 A 
ATOM     15  C   UNL     1       1.417  13.855  18.466  0.00  0.00    +0.000 A 
ATOM     16  C   UNL     1       2.421  14.840  18.385  0.00  0.00    +0.000 A 
ATOM     17  C   UNL     1       3.883  14.500  18.293  0.00  0.00    +0.000 C 
ATOM     18  C   UNL     1       2.067  16.185  18.493  0.00  0.00    +0.000 A 
BRANCH  12  20
ATOM     19  C   UNL     1      -0.411  18.255  20.006  0.00  0.00    +0.000 C 
ATOM     20  O   UNL     1       0.532  17.852  19.081  0.00  0.00    +0.000 OA
ENDBRANCH  12  20
ENDBRANCH   1  15
BRANCH  10  21
ATOM     21  C   UNL     1      -0.646  11.462  20.687  0.00  0.00    +0.000 A 
ATOM     22  C   UNL     1      -1.194  12.450  21.533  0.00  0.00    +0.000 A 
ATOM     23  C   UNL     1      -2.453  13.006  21.250  0.00  0.00    +0.000 A 
ATOM     24  C   UNL     1      -3.150  12.636  20.093  0.00  0.00    +0.000 A 
ATOM     25  C   UNL     1      -2.609  11.701  19.205  0.00  0.00    +0.000 A 
ATOM     26  C   UNL     1      -1.372  11.104  19.533  0.00  0.00    +0.000 A 
BRANCH  25  27
ATOM     27  O   UNL     1      -3.254  11.486  18.015  0.00  0.00    +0.000 OA
BRANCH  27  28
ATOM     28  C   UNL     1      -4.562  11.051  17.825  0.00  0.00    +0.000 C 
BRANCH  28  29
ATOM     29  C   UNL     1      -5.336  12.027  16.941  0.00  0.00    +0.000 C 
BRANCH  29  30
ATOM     30  N   UNL     1      -6.236  12.903  17.734  0.00  0.00    +0.000 NA
ATOM     31  C   UNL     1      -7.043  13.801  16.879  0.00  0.00    +0.000 C 
ATOM     32  C   UNL     1      -7.143  12.069  18.537  0.00  0.00    +0.000 C 
ENDBRANCH  29  30
ENDBRANCH  28  29
ENDBRANCH  27  28
ENDBRANCH  25  27
ENDBRANCH  10  21
TORSDOF 7
ENDMDL
