MODEL 1
REMARK VINA RESULT:      -7.4      0.000      0.000
REMARK  Name = 
REMARK  7 active torsions:
REMARK  status: ('A' for Active; 'I' for Inactive)
REMARK    1  A    between atoms: C_1  and  C_2
REMARK    2  A    between atoms: C_2  and  O_4
REMARK    3  A    between atoms: O_4  and  C_5
REMARK    4  A    between atoms: C_12  and  C_13
REMARK    5  A    between atoms: C_22  and  C_23
REMARK    6  A    between atoms: C_22  and  C_24
REMARK    7  A    between atoms: C_26  and  S_27
REMARK                            x       y       z     vdW  Elec       q    Type
REMARK                         _______ _______ _______ _____ _____    ______ ____
ROOT
ATOM      1  C   UNL     1       6.747   5.244  15.002  0.00  0.00    +0.000 A 
ATOM      2  C   UNL     1       6.873   4.021  15.645  0.00  0.00    +0.000 A 
ATOM      3  C   UNL     1       5.961   3.658  16.669  0.00  0.00    +0.000 A 
ATOM      4  C   UNL     1       4.956   4.544  17.127  0.00  0.00    +0.000 A 
ATOM      5  C   UNL     1       5.006   5.852  16.534  0.00  0.00    +0.000 A 
ATOM      6  C   UNL     1       5.829   6.172  15.474  0.00  0.00    +0.000 A 
ATOM      7  O   UNL     1       4.387   6.993  17.033  0.00  0.00    +0.000 OA
ATOM      8  C   UNL     1       3.382   6.602  17.935  0.00  0.00    +0.000 C 
ATOM      9  C   UNL     1       4.035   5.679  19.020  0.00  0.00    +0.000 C 
ATOM     10  C   UNL     1       4.053   4.259  18.382  0.00  0.00    +0.000 C 
ATOM     11  C   UNL     1       2.546   3.955  18.336  0.00  0.00    +0.000 C 
ATOM     12  C   UNL     1       2.106   3.537  19.814  0.00  0.00    +0.000 C 
ATOM     13  C   UNL     1       2.805   3.863  21.214  0.00  0.00    +0.000 C 
ATOM     14  C   UNL     1       0.673   4.032  20.005  0.00  0.00    +0.000 C 
ATOM     15  N   UNL     1       2.354   2.091  19.722  0.00  0.00    +0.000 NA
ATOM     16  C   UNL     1       3.632   1.988  19.434  0.00  0.00    +0.000 C 
ATOM     17  N   UNL     1       4.526   3.054  19.158  0.00  0.00    +0.000 N 
ATOM     18  H   UNL     1       5.493   2.778  19.055  0.00  0.00    +0.000 HD
ENDROOT
BRANCH   8  19
ATOM     19  C   UNL     1       2.488   7.724  18.415  0.00  0.00    +0.000 A 
ATOM     20  C   UNL     1       2.000   7.680  19.747  0.00  0.00    +0.000 A 
ATOM     21  C   UNL     1       1.246   8.719  20.274  0.00  0.00    +0.000 A 
ATOM     22  C   UNL     1       0.957   9.822  19.480  0.00  0.00    +0.000 A 
ATOM     23  C   UNL     1       1.420   9.878  18.163  0.00  0.00    +0.000 A 
ATOM     24  C   UNL     1       2.177   8.842  17.632  0.00  0.00    +0.000 A 
ENDBRANCH   8  19
BRANCH  16  25
ATOM     25  S   UNL     1       4.236   0.359  19.448  0.00  0.00    +0.000 S 
ATOM     26  H   UNL     1       5.338   0.685  18.745  0.00  0.00    +0.000 HD
ENDBRANCH  16  25
BRANCH   1  27
ATOM     27  O   UNL     1       7.646   5.627  13.998  0.00  0.00    +0.000 OA
BRANCH  27  29
ATOM     28  C   UNL     1       7.852   5.948  11.661  0.00  0.00    +0.000 C 
ATOM     29  C   UNL     1       7.363   5.055  12.759  0.00  0.00    +0.000 C 
ATOM     30  O   UNL     1       6.750   4.002  12.560  0.00  0.00    +0.000 OA
ENDBRANCH  27  29
ENDBRANCH   1  27
TORSDOF 4
ENDMDL
MODEL 2
REMARK VINA RESULT:      -6.8      9.912     12.503
REMARK  Name = 
REMARK  7 active torsions:
REMARK  status: ('A' for Active; 'I' for Inactive)
REMARK    1  A    between atoms: C_1  and  C_2
REMARK    2  A    between atoms: C_2  and  O_4
REMARK    3  A    between atoms: O_4  and  C_5
REMARK    4  A    between atoms: C_12  and  C_13
REMARK    5  A    between atoms: C_22  and  C_23
REMARK    6  A    between atoms: C_22  and  C_24
REMARK    7  A    between atoms: C_26  and  S_27
REMARK                            x       y       z     vdW  Elec       q    Type
REMARK                         _______ _______ _______ _____ _____    ______ ____
ROOT
ATOM      1  C   UNL     1       6.390  11.889  25.014  0.00  0.00    +0.000 A 
ATOM      2  C   UNL     1       5.905  13.189  25.062  0.00  0.00    +0.000 A 
ATOM      3  C   UNL     1       6.167  14.085  23.994  0.00  0.00    +0.000 A 
ATOM      4  C   UNL     1       6.986  13.726  22.897  0.00  0.00    +0.000 A 
ATOM      5  C   UNL     1       7.593  12.428  23.012  0.00  0.00    +0.000 A 
ATOM      6  C   UNL     1       7.263  11.523  23.999  0.00  0.00    +0.000 A 
ATOM      7  O   UNL     1       8.684  11.974  22.279  0.00  0.00    +0.000 OA
ATOM      8  C   UNL     1       8.833  12.789  21.142  0.00  0.00    +0.000 C 
ATOM      9  C   UNL     1       8.932  14.277  21.620  0.00  0.00    +0.000 C 
ATOM     10  C   UNL     1       7.457  14.743  21.794  0.00  0.00    +0.000 C 
ATOM     11  C   UNL     1       6.988  14.739  20.330  0.00  0.00    +0.000 C 
ATOM     12  C   UNL     1       7.568  16.062  19.647  0.00  0.00    +0.000 C 
ATOM     13  C   UNL     1       8.814  16.966  20.076  0.00  0.00    +0.000 C 
ATOM     14  C   UNL     1       7.862  15.714  18.189  0.00  0.00    +0.000 C 
ATOM     15  N   UNL     1       6.458  16.977  19.951  0.00  0.00    +0.000 NA
ATOM     16  C   UNL     1       6.373  16.976  21.263  0.00  0.00    +0.000 C 
ATOM     17  N   UNL     1       7.120  16.169  22.159  0.00  0.00    +0.000 N 
ATOM     18  H   UNL     1       6.982  16.384  23.136  0.00  0.00    +0.000 HD
ENDROOT
BRANCH   8  19
ATOM     19  C   UNL     1       9.860  12.303  20.143  0.00  0.00    +0.000 A 
ATOM     20  C   UNL     1       9.450  12.079  18.804  0.00  0.00    +0.000 A 
ATOM     21  C   UNL     1      10.360  11.715  17.821  0.00  0.00    +0.000 A 
ATOM     22  C   UNL     1      11.700  11.558  18.158  0.00  0.00    +0.000 A 
ATOM     23  C   UNL     1      12.119  11.764  19.474  0.00  0.00    +0.000 A 
ATOM     24  C   UNL     1      11.212  12.131  20.460  0.00  0.00    +0.000 A 
ENDBRANCH   8  19
BRANCH  16  25
ATOM     25  S   UNL     1       5.244  18.130  21.904  0.00  0.00    +0.000 S 
ATOM     26  H   UNL     1       5.763  19.144  21.186  0.00  0.00    +0.000 HD
ENDBRANCH  16  25
BRANCH   1  27
ATOM     27  O   UNL     1       6.154  10.994  26.065  0.00  0.00    +0.000 OA
BRANCH  27  29
ATOM     28  C   UNL     1       4.239  11.101  27.454  0.00  0.00    +0.000 C 
ATOM     29  C   UNL     1       4.820  10.603  26.167  0.00  0.00    +0.000 C 
ATOM     30  O   UNL     1       4.198   9.901  25.364  0.00  0.00    +0.000 OA
ENDBRANCH  27  29
ENDBRANCH   1  27
TORSDOF 4
ENDMDL
MODEL 3
REMARK VINA RESULT:      -6.2      6.408      9.788
REMARK  Name = 
REMARK  7 active torsions:
REMARK  status: ('A' for Active; 'I' for Inactive)
REMARK    1  A    between atoms: C_1  and  C_2
REMARK    2  A    between atoms: C_2  and  O_4
REMARK    3  A    between atoms: O_4  and  C_5
REMARK    4  A    between atoms: C_12  and  C_13
REMARK    5  A    between atoms: C_22  and  C_23
REMARK    6  A    between atoms: C_22  and  C_24
REMARK    7  A    between atoms: C_26  and  S_27
REMARK                            x       y       z     vdW  Elec       q    Type
REMARK                         _______ _______ _______ _____ _____    ______ ____
ROOT
ATOM      1  C   UNL     1       1.478   9.518  18.335  0.00  0.00    +0.000 A 
ATOM      2  C   UNL     1       2.267  10.581  17.915  0.00  0.00    +0.000 A 
ATOM      3  C   UNL     1       2.073  11.872  18.470  0.00  0.00    +0.000 A 
ATOM      4  C   UNL     1       1.036  12.144  19.394  0.00  0.00    +0.000 A 
ATOM      5  C   UNL     1       0.157  11.034  19.640  0.00  0.00    +0.000 A 
ATOM      6  C   UNL     1       0.401   9.758  19.176  0.00  0.00    +0.000 A 
ATOM      7  O   UNL     1      -1.110  11.112  20.210  0.00  0.00    +0.000 OA
ATOM      8  C   UNL     1      -1.224  12.341  20.884  0.00  0.00    +0.000 C 
ATOM      9  C   UNL     1      -0.886  13.486  19.870  0.00  0.00    +0.000 C 
ATOM     10  C   UNL     1       0.667  13.591  19.886  0.00  0.00    +0.000 C 
ATOM     11  C   UNL     1       0.896  14.127  21.309  0.00  0.00    +0.000 C 
ATOM     12  C   UNL     1       0.560  15.689  21.282  0.00  0.00    +0.000 C 
ATOM     13  C   UNL     1      -0.351  16.517  20.263  0.00  0.00    +0.000 C 
ATOM     14  C   UNL     1      -0.025  16.038  22.650  0.00  0.00    +0.000 C 
ATOM     15  N   UNL     1       1.891  16.200  20.926  0.00  0.00    +0.000 NA
ATOM     16  C   UNL     1       2.169  15.634  19.772  0.00  0.00    +0.000 C 
ATOM     17  N   UNL     1       1.391  14.657  19.099  0.00  0.00    +0.000 N 
ATOM     18  H   UNL     1       1.722  14.417  18.176  0.00  0.00    +0.000 HD
ENDROOT
BRANCH   8  19
ATOM     19  C   UNL     1      -2.476  12.491  21.720  0.00  0.00    +0.000 A 
ATOM     20  C   UNL     1      -2.412  12.173  23.101  0.00  0.00    +0.000 A 
ATOM     21  C   UNL     1      -3.500  12.370  23.939  0.00  0.00    +0.000 A 
ATOM     22  C   UNL     1      -4.681  12.882  23.413  0.00  0.00    +0.000 A 
ATOM     23  C   UNL     1      -4.766  13.190  22.054  0.00  0.00    +0.000 A 
ATOM     24  C   UNL     1      -3.678  12.998  21.212  0.00  0.00    +0.000 A 
ENDBRANCH   8  19
BRANCH  16  25
ATOM     25  S   UNL     1       3.628  16.214  19.028  0.00  0.00    +0.000 S 
ATOM     26  H   UNL     1       4.162  16.593  20.204  0.00  0.00    +0.000 HD
ENDBRANCH  16  25
BRANCH   1  27
ATOM     27  O   UNL     1       1.644   8.239  17.789  0.00  0.00    +0.000 OA
BRANCH  27  29
ATOM     28  C   UNL     1       3.745   7.164  17.597  0.00  0.00    +0.000 C 
ATOM     29  C   UNL     1       2.572   7.462  18.479  0.00  0.00    +0.000 C 
ATOM     30  O   UNL     1       2.450   7.017  19.624  0.00  0.00    +0.000 OA
ENDBRANCH  27  29
ENDBRANCH   1  27
TORSDOF 4
ENDMDL
MODEL 4
REMARK VINA RESULT:      -6.2      6.597     10.025
REMARK  Name = 
REMARK  7 active torsions:
REMARK  status: ('A' for Active; 'I' for Inactive)
REMARK    1  A    between atoms: C_1  and  C_2
REMARK    2  A    between atoms: C_2  and  O_4
REMARK    3  A    between atoms: O_4  and  C_5
REMARK    4  A    between atoms: C_12  and  C_13
REMARK    5  A    between atoms: C_22  and  C_23
REMARK    6  A    between atoms: C_22  and  C_24
REMARK    7  A    between atoms: C_26  and  S_27
REMARK                            x       y       z     vdW  Elec       q    Type
REMARK                         _______ _______ _______ _____ _____    ______ ____
ROOT
ATOM      1  C   UNL     1       1.483   9.782  18.521  0.00  0.00    +0.000 A 
ATOM      2  C   UNL     1       2.184  10.800  17.888  0.00  0.00    +0.000 A 
ATOM      3  C   UNL     1       2.167  12.114  18.424  0.00  0.00    +0.000 A 
ATOM      4  C   UNL     1       1.385  12.453  19.554  0.00  0.00    +0.000 A 
ATOM      5  C   UNL     1       0.554  11.387  20.040  0.00  0.00    +0.000 A 
ATOM      6  C   UNL     1       0.642  10.089  19.581  0.00  0.00    +0.000 A 
ATOM      7  O   UNL     1      -0.540  11.532  20.888  0.00  0.00    +0.000 OA
ATOM      8  C   UNL     1      -0.454  12.784  21.523  0.00  0.00    +0.000 C 
ATOM      9  C   UNL     1      -0.328  13.884  20.415  0.00  0.00    +0.000 C 
ATOM     10  C   UNL     1       1.188  13.928  20.063  0.00  0.00    +0.000 C 
ATOM     11  C   UNL     1       1.762  14.496  21.372  0.00  0.00    +0.000 C 
ATOM     12  C   UNL     1       1.477  16.068  21.365  0.00  0.00    +0.000 C 
ATOM     13  C   UNL     1       0.379  16.901  20.556  0.00  0.00    +0.000 C 
ATOM     14  C   UNL     1       1.242  16.481  22.817  0.00  0.00    +0.000 C 
ATOM     15  N   UNL     1       2.704  16.516  20.688  0.00  0.00    +0.000 NA
ATOM     16  C   UNL     1       2.684  15.906  19.524  0.00  0.00    +0.000 C 
ATOM     17  N   UNL     1       1.740  14.941  19.089  0.00  0.00    +0.000 N 
ATOM     18  H   UNL     1       1.836  14.661  18.123  0.00  0.00    +0.000 HD
ENDROOT
BRANCH   8  19
ATOM     19  C   UNL     1      -1.469  13.008  22.622  0.00  0.00    +0.000 A 
ATOM     20  C   UNL     1      -1.407  14.214  23.367  0.00  0.00    +0.000 A 
ATOM     21  C   UNL     1      -2.359  14.518  24.330  0.00  0.00    +0.000 A 
ATOM     22  C   UNL     1      -3.391  13.619  24.575  0.00  0.00    +0.000 A 
ATOM     23  C   UNL     1      -3.462  12.422  23.859  0.00  0.00    +0.000 A 
ATOM     24  C   UNL     1      -2.513  12.115  22.892  0.00  0.00    +0.000 A 
ENDBRANCH   8  19
BRANCH  16  25
ATOM     25  S   UNL     1       3.944  16.406  18.437  0.00  0.00    +0.000 S 
ATOM     26  H   UNL     1       3.272  15.985  17.349  0.00  0.00    +0.000 HD
ENDBRANCH  16  25
BRANCH   1  27
ATOM     27  O   UNL     1       1.475   8.482  18.000  0.00  0.00    +0.000 OA
BRANCH  27  29
ATOM     28  C   UNL     1       3.531   7.366  17.633  0.00  0.00    +0.000 C 
ATOM     29  C   UNL     1       2.418   7.645  18.594  0.00  0.00    +0.000 C 
ATOM     30  O   UNL     1       2.347   7.143  19.720  0.00  0.00    +0.000 OA
ENDBRANCH  27  29
ENDBRANCH   1  27
TORSDOF 4
ENDMDL
MODEL 5
REMARK VINA RESULT:      -6.2      8.888     11.716
REMARK  Name = 
REMARK  7 active torsions:
REMARK  status: ('A' for Active; 'I' for Inactive)
REMARK    1  A    between atoms: C_1  and  C_2
REMARK    2  A    between atoms: C_2  and  O_4
REMARK    3  A    between atoms: O_4  and  C_5
REMARK    4  A    between atoms: C_12  and  C_13
REMARK    5  A    between atoms: C_22  and  C_23
REMARK    6  A    between atoms: C_22  and  C_24
REMARK    7  A    between atoms: C_26  and  S_27
REMARK                            x       y       z     vdW  Elec       q    Type
REMARK                         _______ _______ _______ _____ _____    ______ ____
ROOT
ATOM      1  C   UNL     1       1.030  16.376  18.546  0.00  0.00    +0.000 A 
ATOM      2  C   UNL     1      -0.181  17.045  18.658  0.00  0.00    +0.000 A 
ATOM      3  C   UNL     1      -1.218  16.507  19.464  0.00  0.00    +0.000 A 
ATOM      4  C   UNL     1      -1.095  15.252  20.106  0.00  0.00    +0.000 A 
ATOM      5  C   UNL     1       0.117  14.545  19.795  0.00  0.00    +0.000 A 
ATOM      6  C   UNL     1       1.162  15.107  19.092  0.00  0.00    +0.000 A 
ATOM      7  O   UNL     1       0.339  13.187  19.996  0.00  0.00    +0.000 OA
ATOM      8  C   UNL     1      -0.610  12.707  20.916  0.00  0.00    +0.000 C 
ATOM      9  C   UNL     1      -2.036  13.070  20.378  0.00  0.00    +0.000 C 
ATOM     10  C   UNL     1      -2.282  14.534  20.846  0.00  0.00    +0.000 C 
ATOM     11  C   UNL     1      -2.380  14.328  22.367  0.00  0.00    +0.000 C 
ATOM     12  C   UNL     1      -3.836  13.743  22.668  0.00  0.00    +0.000 C 
ATOM     13  C   UNL     1      -4.842  12.967  21.698  0.00  0.00    +0.000 C 
ATOM     14  C   UNL     1      -3.695  12.803  23.865  0.00  0.00    +0.000 C 
ATOM     15  N   UNL     1      -4.558  15.012  22.840  0.00  0.00    +0.000 NA
ATOM     16  C   UNL     1      -4.398  15.645  21.699  0.00  0.00    +0.000 C 
ATOM     17  N   UNL     1      -3.601  15.227  20.603  0.00  0.00    +0.000 N 
ATOM     18  H   UNL     1      -3.686  15.801  19.776  0.00  0.00    +0.000 HD
ENDROOT
BRANCH   8  19
ATOM     19  C   UNL     1      -0.378  11.288  21.385  0.00  0.00    +0.000 A 
ATOM     20  C   UNL     1       0.239  10.372  20.494  0.00  0.00    +0.000 A 
ATOM     21  C   UNL     1       0.557   9.081  20.891  0.00  0.00    +0.000 A 
ATOM     22  C   UNL     1       0.258   8.674  22.187  0.00  0.00    +0.000 A 
ATOM     23  C   UNL     1      -0.358   9.559  23.074  0.00  0.00    +0.000 A 
ATOM     24  C   UNL     1      -0.675  10.853  22.681  0.00  0.00    +0.000 A 
ENDBRANCH   8  19
BRANCH  16  25
ATOM     25  S   UNL     1      -5.316  17.115  21.566  0.00  0.00    +0.000 S 
ATOM     26  H   UNL     1      -4.891  17.350  20.310  0.00  0.00    +0.000 HD
ENDBRANCH  16  25
BRANCH   1  27
ATOM     27  O   UNL     1       2.061  16.883  17.744  0.00  0.00    +0.000 OA
BRANCH  27  29
ATOM     28  C   UNL     1       4.050  15.610  17.576  0.00  0.00    +0.000 C 
ATOM     29  C   UNL     1       3.327  16.704  18.297  0.00  0.00    +0.000 C 
ATOM     30  O   UNL     1       3.791  17.300  19.275  0.00  0.00    +0.000 OA
ENDBRANCH  27  29
ENDBRANCH   1  27
TORSDOF 4
ENDMDL
MODEL 6
REMARK VINA RESULT:      -6.1      8.698     11.030
REMARK  Name = 
REMARK  7 active torsions:
REMARK  status: ('A' for Active; 'I' for Inactive)
REMARK    1  A    between atoms: C_1  and  C_2
REMARK    2  A    between atoms: C_2  and  O_4
REMARK    3  A    between atoms: O_4  and  C_5
REMARK    4  A    between atoms: C_12  and  C_13
REMARK    5  A    between atoms: C_22  and  C_23
REMARK    6  A    between atoms: C_22  and  C_24
REMARK    7  A    between atoms: C_26  and  S_27
REMARK                            x       y       z     vdW  Elec       q    Type
REMARK                         _______ _______ _______ _____ _____    ______ ____
ROOT
ATOM      1  C   UNL     1       3.573  15.101  18.077  0.00  0.00    +0.000 A 
ATOM      2  C   UNL     1       2.708  16.177  17.934  0.00  0.00    +0.000 A 
ATOM      3  C   UNL     1       1.485  16.205  18.653  0.00  0.00    +0.000 A 
ATOM      4  C   UNL     1       1.066  15.123  19.464  0.00  0.00    +0.000 A 
ATOM      5  C   UNL     1       1.934  13.978  19.417  0.00  0.00    +0.000 A 
ATOM      6  C   UNL     1       3.165  13.987  18.797  0.00  0.00    +0.000 A 
ATOM      7  O   UNL     1       1.600  12.690  19.822  0.00  0.00    +0.000 OA
ATOM      8  C   UNL     1       0.471  12.759  20.658  0.00  0.00    +0.000 C 
ATOM      9  C   UNL     1      -0.659  13.522  19.887  0.00  0.00    +0.000 C 
ATOM     10  C   UNL     1      -0.359  15.031  20.122  0.00  0.00    +0.000 C 
ATOM     11  C   UNL     1      -0.646  15.141  21.629  0.00  0.00    +0.000 C 
ATOM     12  C   UNL     1      -2.233  15.193  21.802  0.00  0.00    +0.000 C 
ATOM     13  C   UNL     1      -3.382  14.686  20.813  0.00  0.00    +0.000 C 
ATOM     14  C   UNL     1      -2.557  14.489  23.119  0.00  0.00    +0.000 C 
ATOM     15  N   UNL     1      -2.423  16.648  21.707  0.00  0.00    +0.000 NA
ATOM     16  C   UNL     1      -1.945  16.971  20.526  0.00  0.00    +0.000 C 
ATOM     17  N   UNL     1      -1.287  16.107  19.613  0.00  0.00    +0.000 N 
ATOM     18  H   UNL     1      -1.081  16.520  18.715  0.00  0.00    +0.000 HD
ENDROOT
BRANCH   8  19
ATOM     19  C   UNL     1       0.104  11.458  21.335  0.00  0.00    +0.000 A 
ATOM     20  C   UNL     1       0.615  10.247  20.801  0.00  0.00    +0.000 A 
ATOM     21  C   UNL     1       0.386   9.028  21.424  0.00  0.00    +0.000 A 
ATOM     22  C   UNL     1      -0.368   8.992  22.592  0.00  0.00    +0.000 A 
ATOM     23  C   UNL     1      -0.889  10.173  23.126  0.00  0.00    +0.000 A 
ATOM     24  C   UNL     1      -0.659  11.394  22.508  0.00  0.00    +0.000 A 
ENDBRANCH   8  19
BRANCH  16  25
ATOM     25  S   UNL     1      -2.214  18.628  20.078  0.00  0.00    +0.000 S 
ATOM     26  H   UNL     1      -2.384  19.020  21.355  0.00  0.00    +0.000 HD
ENDBRANCH  16  25
BRANCH   1  27
ATOM     27  O   UNL     1       4.779  15.047  17.364  0.00  0.00    +0.000 OA
BRANCH  27  29
ATOM     28  C   UNL     1       6.990  14.256  17.664  0.00  0.00    +0.000 C 
ATOM     29  C   UNL     1       5.905  15.149  18.179  0.00  0.00    +0.000 C 
ATOM     30  O   UNL     1       6.004  15.819  19.212  0.00  0.00    +0.000 OA
ENDBRANCH  27  29
ENDBRANCH   1  27
TORSDOF 4
ENDMDL
MODEL 7
REMARK VINA RESULT:      -6.1      9.078     11.837
REMARK  Name = 
REMARK  7 active torsions:
REMARK  status: ('A' for Active; 'I' for Inactive)
REMARK    1  A    between atoms: C_1  and  C_2
REMARK    2  A    between atoms: C_2  and  O_4
REMARK    3  A    between atoms: O_4  and  C_5
REMARK    4  A    between atoms: C_12  and  C_13
REMARK    5  A    between atoms: C_22  and  C_23
REMARK    6  A    between atoms: C_22  and  C_24
REMARK    7  A    between atoms: C_26  and  S_27
REMARK                            x       y       z     vdW  Elec       q    Type
REMARK                         _______ _______ _______ _____ _____    ______ ____
ROOT
ATOM      1  C   UNL     1       1.381  16.799  19.296  0.00  0.00    +0.000 A 
ATOM      2  C   UNL     1       0.143  17.420  19.225  0.00  0.00    +0.000 A 
ATOM      3  C   UNL     1      -0.999  16.795  19.790  0.00  0.00    +0.000 A 
ATOM      4  C   UNL     1      -0.940  15.502  20.363  0.00  0.00    +0.000 A 
ATOM      5  C   UNL     1       0.337  14.856  20.236  0.00  0.00    +0.000 A 
ATOM      6  C   UNL     1       1.467  15.499  19.775  0.00  0.00    +0.000 A 
ATOM      7  O   UNL     1       0.577  13.495  20.387  0.00  0.00    +0.000 OA
ATOM      8  C   UNL     1      -0.502  12.923  21.084  0.00  0.00    +0.000 C 
ATOM      9  C   UNL     1      -1.820  13.278  20.317  0.00  0.00    +0.000 C 
ATOM     10  C   UNL     1      -2.210  14.698  20.824  0.00  0.00    +0.000 C 
ATOM     11  C   UNL     1      -2.574  14.382  22.285  0.00  0.00    +0.000 C 
ATOM     12  C   UNL     1      -4.033  13.732  22.275  0.00  0.00    +0.000 C 
ATOM     13  C   UNL     1      -4.812  12.996  21.090  0.00  0.00    +0.000 C 
ATOM     14  C   UNL     1      -4.072  12.715  23.415  0.00  0.00    +0.000 C 
ATOM     15  N   UNL     1      -4.829  14.963  22.392  0.00  0.00    +0.000 NA
ATOM     16  C   UNL     1      -4.492  15.680  21.342  0.00  0.00    +0.000 C 
ATOM     17  N   UNL     1      -3.492  15.365  20.388  0.00  0.00    +0.000 N 
ATOM     18  H   UNL     1      -3.450  15.993  19.598  0.00  0.00    +0.000 HD
ENDROOT
BRANCH   8  19
ATOM     19  C   UNL     1      -0.297  11.481  21.497  0.00  0.00    +0.000 A 
ATOM     20  C   UNL     1      -0.771  11.066  22.768  0.00  0.00    +0.000 A 
ATOM     21  C   UNL     1      -0.691   9.741  23.171  0.00  0.00    +0.000 A 
ATOM     22  C   UNL     1      -0.128   8.802  22.315  0.00  0.00    +0.000 A 
ATOM     23  C   UNL     1       0.354   9.194  21.064  0.00  0.00    +0.000 A 
ATOM     24  C   UNL     1       0.273  10.519  20.656  0.00  0.00    +0.000 A 
ENDBRANCH   8  19
BRANCH  16  25
ATOM     25  S   UNL     1      -5.433  17.126  21.137  0.00  0.00    +0.000 S 
ATOM     26  H   UNL     1      -4.775  17.480  20.016  0.00  0.00    +0.000 HD
ENDBRANCH  16  25
BRANCH   1  27
ATOM     27  O   UNL     1       2.518  17.392  18.731  0.00  0.00    +0.000 OA
BRANCH  27  29
ATOM     28  C   UNL     1       3.489  15.920  17.151  0.00  0.00    +0.000 C 
ATOM     29  C   UNL     1       2.650  17.141  17.367  0.00  0.00    +0.000 C 
ATOM     30  O   UNL     1       2.207  17.835  16.447  0.00  0.00    +0.000 OA
ENDBRANCH  27  29
ENDBRANCH   1  27
TORSDOF 4
ENDMDL
MODEL 8
REMARK VINA RESULT:      -6.1      7.700     11.269
REMARK  Name = 
REMARK  7 active torsions:
REMARK  status: ('A' for Active; 'I' for Inactive)
REMARK    1  A    between atoms: C_1  and  C_2
REMARK    2  A    between atoms: C_2  and  O_4
REMARK    3  A    between atoms: O_4  and  C_5
REMARK    4  A    between atoms: C_12  and  C_13
REMARK    5  A    between atoms: C_22  and  C_23
REMARK    6  A    between atoms: C_22  and  C_24
REMARK    7  A    between atoms: C_26  and  S_27
REMARK                            x       y       z     vdW  Elec       q    Type
REMARK                         _______ _______ _______ _____ _____    ______ ____
ROOT
ATOM      1  C   UNL     1       0.025  11.232  18.869  0.00  0.00    +0.000 A 
ATOM      2  C   UNL     1      -1.180  10.885  18.273  0.00  0.00    +0.000 A 
ATOM      3  C   UNL     1      -2.395  11.441  18.751  0.00  0.00    +0.000 A 
ATOM      4  C   UNL     1      -2.438  12.289  19.883  0.00  0.00    +0.000 A 
ATOM      5  C   UNL     1      -1.173  12.454  20.547  0.00  0.00    +0.000 A 
ATOM      6  C   UNL     1       0.019  11.993  20.029  0.00  0.00    +0.000 A 
ATOM      7  O   UNL     1      -0.992  12.929  21.842  0.00  0.00    +0.000 OA
ATOM      8  C   UNL     1      -2.157  13.609  22.239  0.00  0.00    +0.000 C 
ATOM      9  C   UNL     1      -3.373  12.638  22.057  0.00  0.00    +0.000 C 
ATOM     10  C   UNL     1      -3.773  12.770  20.559  0.00  0.00    +0.000 C 
ATOM     11  C   UNL     1      -4.304  14.214  20.538  0.00  0.00    +0.000 C 
ATOM     12  C   UNL     1      -5.773  14.182  21.167  0.00  0.00    +0.000 C 
ATOM     13  C   UNL     1      -6.438  13.109  22.146  0.00  0.00    +0.000 C 
ATOM     14  C   UNL     1      -5.966  15.507  21.904  0.00  0.00    +0.000 C 
ATOM     15  N   UNL     1      -6.539  13.933  19.938  0.00  0.00    +0.000 NA
ATOM     16  C   UNL     1      -6.068  12.795  19.476  0.00  0.00    +0.000 C 
ATOM     17  N   UNL     1      -4.979  12.054  20.000  0.00  0.00    +0.000 N 
ATOM     18  H   UNL     1      -4.832  11.154  19.565  0.00  0.00    +0.000 HD
ENDROOT
BRANCH   8  19
ATOM     19  C   UNL     1      -2.042  14.351  23.552  0.00  0.00    +0.000 A 
ATOM     20  C   UNL     1      -0.882  15.133  23.789  0.00  0.00    +0.000 A 
ATOM     21  C   UNL     1      -0.754  15.905  24.935  0.00  0.00    +0.000 A 
ATOM     22  C   UNL     1      -1.779  15.905  25.875  0.00  0.00    +0.000 A 
ATOM     23  C   UNL     1      -2.923  15.133  25.663  0.00  0.00    +0.000 A 
ATOM     24  C   UNL     1      -3.057  14.362  24.515  0.00  0.00    +0.000 A 
ENDBRANCH   8  19
BRANCH  16  25
ATOM     25  S   UNL     1      -6.938  12.169  18.107  0.00  0.00    +0.000 S 
ATOM     26  H   UNL     1      -6.348  13.025  17.251  0.00  0.00    +0.000 HD
ENDBRANCH  16  25
BRANCH   1  27
ATOM     27  O   UNL     1       1.233  10.682  18.421  0.00  0.00    +0.000 OA
BRANCH  27  29
ATOM     28  C   UNL     1       1.946   8.538  17.712  0.00  0.00    +0.000 C 
ATOM     29  C   UNL     1       1.432   9.370  18.846  0.00  0.00    +0.000 C 
ATOM     30  O   UNL     1       1.176   8.914  19.965  0.00  0.00    +0.000 OA
ENDBRANCH  27  29
ENDBRANCH   1  27
TORSDOF 4
ENDMDL
MODEL 9
REMARK VINA RESULT:      -6.1      7.555     12.176
REMARK  Name = 
REMARK  7 active torsions:
REMARK  status: ('A' for Active; 'I' for Inactive)
REMARK    1  A    between atoms: C_1  and  C_2
REMARK    2  A    between atoms: C_2  and  O_4
REMARK    3  A    between atoms: O_4  and  C_5
REMARK    4  A    between atoms: C_12  and  C_13
REMARK    5  A    between atoms: C_22  and  C_23
REMARK    6  A    between atoms: C_22  and  C_24
REMARK    7  A    between atoms: C_26  and  S_27
REMARK                            x       y       z     vdW  Elec       q    Type
REMARK                         _______ _______ _______ _____ _____    ______ ____
ROOT
ATOM      1  C   UNL     1      -4.262  13.583  21.107  0.00  0.00    +0.000 A 
ATOM      2  C   UNL     1      -3.657  14.817  21.301  0.00  0.00    +0.000 A 
ATOM      3  C   UNL     1      -2.294  15.002  20.954  0.00  0.00    +0.000 A 
ATOM      4  C   UNL     1      -1.488  13.938  20.485  0.00  0.00    +0.000 A 
ATOM      5  C   UNL     1      -2.141  12.658  20.482  0.00  0.00    +0.000 A 
ATOM      6  C   UNL     1      -3.488  12.495  20.727  0.00  0.00    +0.000 A 
ATOM      7  O   UNL     1      -1.505  11.423  20.409  0.00  0.00    +0.000 OA
ATOM      8  C   UNL     1      -0.201  11.616  19.918  0.00  0.00    +0.000 C 
ATOM      9  C   UNL     1       0.511  12.670  20.832  0.00  0.00    +0.000 C 
ATOM     10  C   UNL     1       0.066  14.053  20.272  0.00  0.00    +0.000 C 
ATOM     11  C   UNL     1       0.775  14.043  18.907  0.00  0.00    +0.000 C 
ATOM     12  C   UNL     1       2.312  14.386  19.175  0.00  0.00    +0.000 C 
ATOM     13  C   UNL     1       3.172  14.234  20.513  0.00  0.00    +0.000 C 
ATOM     14  C   UNL     1       3.125  13.613  18.137  0.00  0.00    +0.000 C 
ATOM     15  N   UNL     1       2.237  15.851  19.072  0.00  0.00    +0.000 NA
ATOM     16  C   UNL     1       1.380  16.208  20.003  0.00  0.00    +0.000 C 
ATOM     17  N   UNL     1       0.619  15.343  20.830  0.00  0.00    +0.000 N 
ATOM     18  H   UNL     1       0.089  15.808  21.553  0.00  0.00    +0.000 HD
ENDROOT
BRANCH   8  19
ATOM     19  C   UNL     1       0.551  10.343  19.598  0.00  0.00    +0.000 A 
ATOM     20  C   UNL     1       1.096  10.186  18.298  0.00  0.00    +0.000 A 
ATOM     21  C   UNL     1       1.868   9.082  17.966  0.00  0.00    +0.000 A 
ATOM     22  C   UNL     1       2.106   8.105  18.926  0.00  0.00    +0.000 A 
ATOM     23  C   UNL     1       1.568   8.237  20.209  0.00  0.00    +0.000 A 
ATOM     24  C   UNL     1       0.798   9.342  20.545  0.00  0.00    +0.000 A 
ENDBRANCH   8  19
BRANCH  16  25
ATOM     25  S   UNL     1       1.241  17.926  20.222  0.00  0.00    +0.000 S 
ATOM     26  H   UNL     1       2.568  18.121  20.095  0.00  0.00    +0.000 HD
ENDBRANCH  16  25
BRANCH   1  27
ATOM     27  O   UNL     1      -5.603  13.375  21.456  0.00  0.00    +0.000 OA
BRANCH  27  29
ATOM     28  C   UNL     1      -6.672  14.322  23.345  0.00  0.00    +0.000 C 
ATOM     29  C   UNL     1      -5.797  13.223  22.828  0.00  0.00    +0.000 C 
ATOM     30  O   UNL     1      -5.289  12.359  23.549  0.00  0.00    +0.000 OA
ENDBRANCH  27  29
ENDBRANCH   1  27
TORSDOF 4
ENDMDL
