MODEL 1
REMARK VINA RESULT:      -8.7      0.000      0.000
REMARK  Name = 
REMARK  8 active torsions:
REMARK  status: ('A' for Active; 'I' for Inactive)
REMARK    1  A    between atoms: C_1  and  N_2
REMARK    2  A    between atoms: N_2  and  C_3
REMARK    3  A    between atoms: C_5  and  N_6
REMARK    4  A    between atoms: C_7  and  O_9
REMARK    5  A    between atoms: O_9  and  C_10
REMARK    6  A    between atoms: C_13  and  N_14
REMARK    7  A    between atoms: N_14  and  C_15
REMARK    8  A    between atoms: C_25  and  N_26
REMARK                            x       y       z     vdW  Elec       q    Type
REMARK                         _______ _______ _______ _____ _____    ______ ____
ROOT
ATOM      1  N   UNL     1       2.290   6.882  18.485  0.00  0.00    +0.000 N 
ATOM      2  H   UNL     1       1.836   6.554  17.634  0.00  0.00    +0.000 HD
ENDROOT
BRANCH   1   3
ATOM      3  C   UNL     1       3.555   6.152  18.796  0.00  0.00    +0.000 A 
ATOM      4  C   UNL     1       4.655   5.943  17.782  0.00  0.00    +0.000 A 
ATOM      5  C   UNL     1       4.714   6.080  16.359  0.00  0.00    +0.000 A 
ATOM      6  C   UNL     1       5.813   5.587  15.592  0.00  0.00    +0.000 A 
ATOM      7  C   UNL     1       6.957   5.084  16.203  0.00  0.00    +0.000 A 
ATOM      8  C   UNL     1       6.954   4.974  17.576  0.00  0.00    +0.000 A 
ATOM      9  C   UNL     1       5.802   5.259  18.289  0.00  0.00    +0.000 A 
ATOM     10  N   UNL     1       5.730   4.583  19.409  0.00  0.00    +0.000 NA
ATOM     11  C   UNL     1       4.488   4.249  19.713  0.00  0.00    +0.000 A 
ATOM     12  C   UNL     1       3.895   3.191  19.023  0.00  0.00    +0.000 A 
ATOM     13  C   UNL     1       2.490   3.185  18.896  0.00  0.00    +0.000 A 
ATOM     14  C   UNL     1       1.782   3.779  19.929  0.00  0.00    +0.000 A 
ATOM     15  C   UNL     1       2.476   4.749  20.606  0.00  0.00    +0.000 A 
ATOM     16  C   UNL     1       3.594   5.262  19.941  0.00  0.00    +0.000 A 
BRANCH  13  17
ATOM     17  N   UNL     1       1.964   3.416  17.519  0.00  0.00    +0.000 N 
ATOM     18  O   UNL     1       2.560   2.869  16.581  0.00  0.00    +0.000 OA
ATOM     19  O   UNL     1       1.018   4.209  17.380  0.00  0.00    +0.000 OA
ENDBRANCH  13  17
ENDBRANCH   1   3
BRANCH   1  25
ATOM     20  C   UNL     1       1.294   8.800  19.916  0.00  0.00    +0.000 A 
ATOM     21  C   UNL     1       0.937  10.191  19.963  0.00  0.00    +0.000 A 
ATOM     22  C   UNL     1       1.266  11.110  18.972  0.00  0.00    +0.000 A 
ATOM     23  C   UNL     1       1.959  10.631  17.875  0.00  0.00    +0.000 A 
ATOM     24  C   UNL     1       2.203   9.252  17.729  0.00  0.00    +0.000 A 
ATOM     25  C   UNL     1       1.912   8.285  18.713  0.00  0.00    +0.000 A 
BRANCH  22  26
ATOM     26  N   UNL     1       0.872  12.467  18.983  0.00  0.00    +0.000 N 
ATOM     27  C   UNL     1      -0.295  13.015  18.513  0.00  0.00    +0.000 C 
ATOM     28  O   UNL     1      -1.302  12.429  18.148  0.00  0.00    +0.000 OA
ATOM     29  H   UNL     1       1.541  13.154  19.302  0.00  0.00    +0.000 HD
BRANCH  27  30
ATOM     30  O   UNL     1      -0.177  14.375  18.509  0.00  0.00    +0.000 OA
ATOM     31  C   UNL     1       1.048  14.847  19.084  0.00  0.00    +0.000 C 
ENDBRANCH  27  30
ENDBRANCH  22  26
BRANCH  20  33
ATOM     32  C   UNL     1      -0.239   8.425  21.845  0.00  0.00    +0.000 C 
ATOM     33  N   UNL     1       0.904   7.978  21.014  0.00  0.00    +0.000 N 
ATOM     34  H   UNL     1       1.722   7.777  21.588  0.00  0.00    +0.000 HD
ENDBRANCH  20  33
ENDBRANCH   1  25
TORSDOF 6
ENDMDL
MODEL 2
REMARK VINA RESULT:      -8.5      0.896      1.043
REMARK  Name = 
REMARK  8 active torsions:
REMARK  status: ('A' for Active; 'I' for Inactive)
REMARK    1  A    between atoms: C_1  and  N_2
REMARK    2  A    between atoms: N_2  and  C_3
REMARK    3  A    between atoms: C_5  and  N_6
REMARK    4  A    between atoms: C_7  and  O_9
REMARK    5  A    between atoms: O_9  and  C_10
REMARK    6  A    between atoms: C_13  and  N_14
REMARK    7  A    between atoms: N_14  and  C_15
REMARK    8  A    between atoms: C_25  and  N_26
REMARK                            x       y       z     vdW  Elec       q    Type
REMARK                         _______ _______ _______ _____ _____    ______ ____
ROOT
ATOM      1  N   UNL     1       2.236   6.501  19.048  0.00  0.00    +0.000 N 
ATOM      2  H   UNL     1       1.561   6.005  18.468  0.00  0.00    +0.000 HD
ENDROOT
BRANCH   1   3
ATOM      3  C   UNL     1       3.547   5.797  19.161  0.00  0.00    +0.000 A 
ATOM      4  C   UNL     1       4.596   5.832  18.075  0.00  0.00    +0.000 A 
ATOM      5  C   UNL     1       4.568   6.224  16.699  0.00  0.00    +0.000 A 
ATOM      6  C   UNL     1       5.643   5.936  15.804  0.00  0.00    +0.000 A 
ATOM      7  C   UNL     1       6.840   5.394  16.258  0.00  0.00    +0.000 A 
ATOM      8  C   UNL     1       6.921   5.041  17.586  0.00  0.00    +0.000 A 
ATOM      9  C   UNL     1       5.799   5.132  18.394  0.00  0.00    +0.000 A 
ATOM     10  N   UNL     1       5.821   4.264  19.375  0.00  0.00    +0.000 NA
ATOM     11  C   UNL     1       4.615   3.814  19.672  0.00  0.00    +0.000 A 
ATOM     12  C   UNL     1       4.031   2.866  18.832  0.00  0.00    +0.000 A 
ATOM     13  C   UNL     1       2.622   2.806  18.774  0.00  0.00    +0.000 A 
ATOM     14  C   UNL     1       1.948   3.168  19.930  0.00  0.00    +0.000 A 
ATOM     15  C   UNL     1       2.636   4.037  20.737  0.00  0.00    +0.000 A 
ATOM     16  C   UNL     1       3.690   4.720  20.123  0.00  0.00    +0.000 A 
BRANCH  13  17
ATOM     17  N   UNL     1       2.010   3.252  17.488  0.00  0.00    +0.000 N 
ATOM     18  O   UNL     1       2.558   2.889  16.438  0.00  0.00    +0.000 OA
ATOM     19  O   UNL     1       1.042   4.028  17.540  0.00  0.00    +0.000 OA
ENDBRANCH  13  17
ENDBRANCH   1   3
BRANCH   1  25
ATOM     20  C   UNL     1       1.538   8.733  20.168  0.00  0.00    +0.000 A 
ATOM     21  C   UNL     1       1.208  10.117  19.966  0.00  0.00    +0.000 A 
ATOM     22  C   UNL     1       1.354  10.779  18.752  0.00  0.00    +0.000 A 
ATOM     23  C   UNL     1       1.826  10.039  17.684  0.00  0.00    +0.000 A 
ATOM     24  C   UNL     1       2.028   8.650  17.809  0.00  0.00    +0.000 A 
ATOM     25  C   UNL     1       1.918   7.937  19.021  0.00  0.00    +0.000 A 
BRANCH  22  26
ATOM     26  N   UNL     1       0.980  12.124  18.529  0.00  0.00    +0.000 N 
ATOM     27  C   UNL     1       1.787  13.232  18.478  0.00  0.00    +0.000 C 
ATOM     28  O   UNL     1       3.008  13.266  18.443  0.00  0.00    +0.000 OA
ATOM     29  H   UNL     1      -0.006  12.339  18.469  0.00  0.00    +0.000 HD
BRANCH  27  30
ATOM     30  O   UNL     1       1.006  14.351  18.470  0.00  0.00    +0.000 OA
ATOM     31  C   UNL     1       1.669  15.518  18.971  0.00  0.00    +0.000 C 
ENDBRANCH  27  30
ENDBRANCH  22  26
BRANCH  20  33
ATOM     32  C   UNL     1       0.867   9.099  22.541  0.00  0.00    +0.000 C 
ATOM     33  N   UNL     1       1.354   8.192  21.475  0.00  0.00    +0.000 N 
ATOM     34  H   UNL     1       2.204   7.708  21.760  0.00  0.00    +0.000 HD
ENDBRANCH  20  33
ENDBRANCH   1  25
TORSDOF 6
ENDMDL
MODEL 3
REMARK VINA RESULT:      -8.3      1.741      2.407
REMARK  Name = 
REMARK  8 active torsions:
REMARK  status: ('A' for Active; 'I' for Inactive)
REMARK    1  A    between atoms: C_1  and  N_2
REMARK    2  A    between atoms: N_2  and  C_3
REMARK    3  A    between atoms: C_5  and  N_6
REMARK    4  A    between atoms: C_7  and  O_9
REMARK    5  A    between atoms: O_9  and  C_10
REMARK    6  A    between atoms: C_13  and  N_14
REMARK    7  A    between atoms: N_14  and  C_15
REMARK    8  A    between atoms: C_25  and  N_26
REMARK                            x       y       z     vdW  Elec       q    Type
REMARK                         _______ _______ _______ _____ _____    ______ ____
ROOT
ATOM      1  N   UNL     1       2.517   6.846  18.591  0.00  0.00    +0.000 N 
ATOM      2  H   UNL     1       2.376   7.106  17.616  0.00  0.00    +0.000 HD
ENDROOT
BRANCH   1   3
ATOM      3  C   UNL     1       3.745   6.026  18.810  0.00  0.00    +0.000 A 
ATOM      4  C   UNL     1       4.800   5.823  17.747  0.00  0.00    +0.000 A 
ATOM      5  C   UNL     1       4.823   6.052  16.334  0.00  0.00    +0.000 A 
ATOM      6  C   UNL     1       5.867   5.550  15.500  0.00  0.00    +0.000 A 
ATOM      7  C   UNL     1       6.997   4.942  16.036  0.00  0.00    +0.000 A 
ATOM      8  C   UNL     1       7.030   4.741  17.398  0.00  0.00    +0.000 A 
ATOM      9  C   UNL     1       5.919   5.042  18.168  0.00  0.00    +0.000 A 
ATOM     10  N   UNL     1       5.841   4.298  19.243  0.00  0.00    +0.000 NA
ATOM     11  C   UNL     1       4.592   4.015  19.567  0.00  0.00    +0.000 A 
ATOM     12  C   UNL     1       3.916   3.042  18.831  0.00  0.00    +0.000 A 
ATOM     13  C   UNL     1       2.510   3.124  18.753  0.00  0.00    +0.000 A 
ATOM     14  C   UNL     1       1.870   3.688  19.846  0.00  0.00    +0.000 A 
ATOM     15  C   UNL     1       2.641   4.568  20.561  0.00  0.00    +0.000 A 
ATOM     16  C   UNL     1       3.766   5.060  19.893  0.00  0.00    +0.000 A 
BRANCH  13  17
ATOM     17  N   UNL     1       1.957   3.478  17.413  0.00  0.00    +0.000 N 
ATOM     18  O   UNL     1       2.503   2.978  16.420  0.00  0.00    +0.000 OA
ATOM     19  O   UNL     1       1.042   4.317  17.361  0.00  0.00    +0.000 OA
ENDBRANCH  13  17
ENDBRANCH   1   3
BRANCH   1  25
ATOM     20  C   UNL     1       1.601   9.223  19.071  0.00  0.00    +0.000 A 
ATOM     21  C   UNL     1       1.008  10.099  20.043  0.00  0.00    +0.000 A 
ATOM     22  C   UNL     1       0.554   9.680  21.290  0.00  0.00    +0.000 A 
ATOM     23  C   UNL     1       0.712   8.341  21.599  0.00  0.00    +0.000 A 
ATOM     24  C   UNL     1       1.413   7.484  20.729  0.00  0.00    +0.000 A 
ATOM     25  C   UNL     1       1.871   7.852  19.448  0.00  0.00    +0.000 A 
BRANCH  22  26
ATOM     26  N   UNL     1       0.020  10.542  22.274  0.00  0.00    +0.000 N 
ATOM     27  C   UNL     1      -0.900  11.547  22.112  0.00  0.00    +0.000 C 
ATOM     28  O   UNL     1      -1.575  11.791  21.123  0.00  0.00    +0.000 OA
ATOM     29  H   UNL     1       0.398  10.487  23.210  0.00  0.00    +0.000 HD
BRANCH  27  30
ATOM     30  O   UNL     1      -0.968  12.277  23.263  0.00  0.00    +0.000 OA
ATOM     31  C   UNL     1      -1.269  13.661  23.049  0.00  0.00    +0.000 C 
ENDBRANCH  27  30
ENDBRANCH  22  26
BRANCH  20  33
ATOM     32  C   UNL     1       2.238  11.254  17.773  0.00  0.00    +0.000 C 
ATOM     33  N   UNL     1       2.004   9.791  17.826  0.00  0.00    +0.000 N 
ATOM     34  H   UNL     1       1.358   9.492  17.098  0.00  0.00    +0.000 HD
ENDBRANCH  20  33
ENDBRANCH   1  25
TORSDOF 6
ENDMDL
MODEL 4
REMARK VINA RESULT:      -7.7      1.724      3.653
REMARK  Name = 
REMARK  8 active torsions:
REMARK  status: ('A' for Active; 'I' for Inactive)
REMARK    1  A    between atoms: C_1  and  N_2
REMARK    2  A    between atoms: N_2  and  C_3
REMARK    3  A    between atoms: C_5  and  N_6
REMARK    4  A    between atoms: C_7  and  O_9
REMARK    5  A    between atoms: O_9  and  C_10
REMARK    6  A    between atoms: C_13  and  N_14
REMARK    7  A    between atoms: N_14  and  C_15
REMARK    8  A    between atoms: C_25  and  N_26
REMARK                            x       y       z     vdW  Elec       q    Type
REMARK                         _______ _______ _______ _____ _____    ______ ____
ROOT
ATOM      1  N   UNL     1       2.935   6.925  19.014  0.00  0.00    +0.000 N 
ATOM      2  H   UNL     1       3.384   6.809  19.921  0.00  0.00    +0.000 HD
ENDROOT
BRANCH   1   3
ATOM      3  C   UNL     1       2.599   5.630  18.352  0.00  0.00    +0.000 A 
ATOM      4  C   UNL     1       1.990   4.461  19.091  0.00  0.00    +0.000 A 
ATOM      5  C   UNL     1       1.842   4.151  20.481  0.00  0.00    +0.000 A 
ATOM      6  C   UNL     1       1.442   2.857  20.932  0.00  0.00    +0.000 A 
ATOM      7  C   UNL     1       1.026   1.874  20.042  0.00  0.00    +0.000 A 
ATOM      8  C   UNL     1       1.115   2.149  18.696  0.00  0.00    +0.000 A 
ATOM      9  C   UNL     1       1.703   3.329  18.269  0.00  0.00    +0.000 A 
ATOM     10  N   UNL     1       2.250   3.213  17.085  0.00  0.00    +0.000 NA
ATOM     11  C   UNL     1       3.347   3.940  16.967  0.00  0.00    +0.000 A 
ATOM     12  C   UNL     1       4.520   3.479  17.566  0.00  0.00    +0.000 A 
ATOM     13  C   UNL     1       5.488   4.430  17.951  0.00  0.00    +0.000 A 
ATOM     14  C   UNL     1       5.548   5.584  17.186  0.00  0.00    +0.000 A 
ATOM     15  C   UNL     1       4.370   5.912  16.565  0.00  0.00    +0.000 A 
ATOM     16  C   UNL     1       3.226   5.300  17.086  0.00  0.00    +0.000 A 
BRANCH  13  17
ATOM     17  N   UNL     1       5.673   4.605  19.421  0.00  0.00    +0.000 N 
ATOM     18  O   UNL     1       6.349   5.572  19.801  0.00  0.00    +0.000 OA
ATOM     19  O   UNL     1       5.217   3.731  20.176  0.00  0.00    +0.000 OA
ENDBRANCH  13  17
ENDBRANCH   1   3
BRANCH   1  25
ATOM     20  C   UNL     1       1.614   8.853  20.136  0.00  0.00    +0.000 A 
ATOM     21  C   UNL     1       0.926  10.100  19.941  0.00  0.00    +0.000 A 
ATOM     22  C   UNL     1       0.931  10.809  18.744  0.00  0.00    +0.000 A 
ATOM     23  C   UNL     1       1.627  10.252  17.687  0.00  0.00    +0.000 A 
ATOM     24  C   UNL     1       2.195   8.969  17.799  0.00  0.00    +0.000 A 
ATOM     25  C   UNL     1       2.238   8.221  18.994  0.00  0.00    +0.000 A 
BRANCH  22  26
ATOM     26  N   UNL     1       0.213  12.006  18.526  0.00  0.00    +0.000 N 
ATOM     27  C   UNL     1       0.681  13.295  18.566  0.00  0.00    +0.000 C 
ATOM     28  O   UNL     1       1.844  13.667  18.627  0.00  0.00    +0.000 OA
ATOM     29  H   UNL     1      -0.787  11.943  18.395  0.00  0.00    +0.000 HD
BRANCH  27  30
ATOM     30  O   UNL     1      -0.379  14.154  18.524  0.00  0.00    +0.000 OA
ATOM     31  C   UNL     1      -0.031  15.510  18.828  0.00  0.00    +0.000 C 
ENDBRANCH  27  30
ENDBRANCH  22  26
BRANCH  20  33
ATOM     32  C   UNL     1       0.955   9.044  22.533  0.00  0.00    +0.000 C 
ATOM     33  N   UNL     1       1.535   8.248  21.425  0.00  0.00    +0.000 N 
ATOM     34  H   UNL     1       2.450   7.875  21.676  0.00  0.00    +0.000 HD
ENDBRANCH  20  33
ENDBRANCH   1  25
TORSDOF 6
ENDMDL
MODEL 5
REMARK VINA RESULT:      -7.6      1.998      2.433
REMARK  Name = 
REMARK  8 active torsions:
REMARK  status: ('A' for Active; 'I' for Inactive)
REMARK    1  A    between atoms: C_1  and  N_2
REMARK    2  A    between atoms: N_2  and  C_3
REMARK    3  A    between atoms: C_5  and  N_6
REMARK    4  A    between atoms: C_7  and  O_9
REMARK    5  A    between atoms: O_9  and  C_10
REMARK    6  A    between atoms: C_13  and  N_14
REMARK    7  A    between atoms: N_14  and  C_15
REMARK    8  A    between atoms: C_25  and  N_26
REMARK                            x       y       z     vdW  Elec       q    Type
REMARK                         _______ _______ _______ _____ _____    ______ ____
ROOT
ATOM      1  N   UNL     1       2.234   7.058  18.719  0.00  0.00    +0.000 N 
ATOM      2  H   UNL     1       2.057   7.194  17.724  0.00  0.00    +0.000 HD
ENDROOT
BRANCH   1   3
ATOM      3  C   UNL     1       3.457   6.250  18.995  0.00  0.00    +0.000 A 
ATOM      4  C   UNL     1       4.581   6.090  17.997  0.00  0.00    +0.000 A 
ATOM      5  C   UNL     1       4.690   6.356  16.595  0.00  0.00    +0.000 A 
ATOM      6  C   UNL     1       5.792   5.890  15.816  0.00  0.00    +0.000 A 
ATOM      7  C   UNL     1       6.895   5.284  16.409  0.00  0.00    +0.000 A 
ATOM      8  C   UNL     1       6.845   5.047  17.764  0.00  0.00    +0.000 A 
ATOM      9  C   UNL     1       5.683   5.313  18.469  0.00  0.00    +0.000 A 
ATOM     10  N   UNL     1       5.548   4.540  19.518  0.00  0.00    +0.000 NA
ATOM     11  C   UNL     1       4.285   4.232  19.754  0.00  0.00    +0.000 A 
ATOM     12  C   UNL     1       3.672   3.269  18.952  0.00  0.00    +0.000 A 
ATOM     13  C   UNL     1       2.273   3.334  18.786  0.00  0.00    +0.000 A 
ATOM     14  C   UNL     1       1.557   3.859  19.850  0.00  0.00    +0.000 A 
ATOM     15  C   UNL     1       2.267   4.732  20.634  0.00  0.00    +0.000 A 
ATOM     16  C   UNL     1       3.425   5.256  20.052  0.00  0.00    +0.000 A 
BRANCH  13  17
ATOM     17  N   UNL     1       1.801   3.715  17.422  0.00  0.00    +0.000 N 
ATOM     18  O   UNL     1       2.444   3.285  16.454  0.00  0.00    +0.000 OA
ATOM     19  O   UNL     1       0.849   4.507  17.334  0.00  0.00    +0.000 OA
ENDBRANCH  13  17
ENDBRANCH   1   3
BRANCH   1  25
ATOM     20  C   UNL     1       0.805   9.215  18.890  0.00  0.00    +0.000 A 
ATOM     21  C   UNL     1       0.338  10.272  19.743  0.00  0.00    +0.000 A 
ATOM     22  C   UNL     1       0.528  10.296  21.122  0.00  0.00    +0.000 A 
ATOM     23  C   UNL     1       1.227   9.242  21.679  0.00  0.00    +0.000 A 
ATOM     24  C   UNL     1       1.817   8.261  20.859  0.00  0.00    +0.000 A 
ATOM     25  C   UNL     1       1.636   8.178  19.463  0.00  0.00    +0.000 A 
BRANCH  22  26
ATOM     26  N   UNL     1       0.122  11.358  21.962  0.00  0.00    +0.000 N 
ATOM     27  C   UNL     1      -0.866  11.356  22.914  0.00  0.00    +0.000 C 
ATOM     28  O   UNL     1      -1.480  10.395  23.352  0.00  0.00    +0.000 OA
ATOM     29  H   UNL     1       0.542  12.266  21.817  0.00  0.00    +0.000 HD
BRANCH  27  30
ATOM     30  O   UNL     1      -1.083  12.637  23.331  0.00  0.00    +0.000 OA
ATOM     31  C   UNL     1      -0.489  13.626  22.481  0.00  0.00    +0.000 C 
ENDBRANCH  27  30
ENDBRANCH  22  26
BRANCH  20  33
ATOM     32  C   UNL     1      -0.855   9.686  17.091  0.00  0.00    +0.000 C 
ATOM     33  N   UNL     1       0.522   9.315  17.495  0.00  0.00    +0.000 N 
ATOM     34  H   UNL     1       0.827   8.462  17.030  0.00  0.00    +0.000 HD
ENDBRANCH  20  33
ENDBRANCH   1  25
TORSDOF 6
ENDMDL
MODEL 6
REMARK VINA RESULT:      -7.5      2.553      4.471
REMARK  Name = 
REMARK  8 active torsions:
REMARK  status: ('A' for Active; 'I' for Inactive)
REMARK    1  A    between atoms: C_1  and  N_2
REMARK    2  A    between atoms: N_2  and  C_3
REMARK    3  A    between atoms: C_5  and  N_6
REMARK    4  A    between atoms: C_7  and  O_9
REMARK    5  A    between atoms: O_9  and  C_10
REMARK    6  A    between atoms: C_13  and  N_14
REMARK    7  A    between atoms: N_14  and  C_15
REMARK    8  A    between atoms: C_25  and  N_26
REMARK                            x       y       z     vdW  Elec       q    Type
REMARK                         _______ _______ _______ _____ _____    ______ ____
ROOT
ATOM      1  N   UNL     1       2.980   7.042  18.878  0.00  0.00    +0.000 N 
ATOM      2  H   UNL     1       3.868   7.072  19.378  0.00  0.00    +0.000 HD
ENDROOT
BRANCH   1   3
ATOM      3  C   UNL     1       2.730   5.735  18.201  0.00  0.00    +0.000 A 
ATOM      4  C   UNL     1       2.144   4.538  18.913  0.00  0.00    +0.000 A 
ATOM      5  C   UNL     1       1.954   4.217  20.295  0.00  0.00    +0.000 A 
ATOM      6  C   UNL     1       1.594   2.905  20.728  0.00  0.00    +0.000 A 
ATOM      7  C   UNL     1       1.259   1.907  19.820  0.00  0.00    +0.000 A 
ATOM      8  C   UNL     1       1.391   2.191  18.479  0.00  0.00    +0.000 A 
ATOM      9  C   UNL     1       1.942   3.397  18.079  0.00  0.00    +0.000 A 
ATOM     10  N   UNL     1       2.542   3.309  16.917  0.00  0.00    +0.000 NA
ATOM     11  C   UNL     1       3.609   4.085  16.846  0.00  0.00    +0.000 A 
ATOM     12  C   UNL     1       4.776   3.674  17.492  0.00  0.00    +0.000 A 
ATOM     13  C   UNL     1       5.684   4.666  17.917  0.00  0.00    +0.000 A 
ATOM     14  C   UNL     1       5.723   5.824  17.156  0.00  0.00    +0.000 A 
ATOM     15  C   UNL     1       4.558   6.102  16.488  0.00  0.00    +0.000 A 
ATOM     16  C   UNL     1       3.422   5.438  16.961  0.00  0.00    +0.000 A 
BRANCH  13  17
ATOM     17  N   UNL     1       5.801   4.845  19.394  0.00  0.00    +0.000 N 
ATOM     18  O   UNL     1       5.181   4.052  20.116  0.00  0.00    +0.000 OA
ATOM     19  O   UNL     1       6.436   5.825  19.816  0.00  0.00    +0.000 OA
ENDBRANCH  13  17
ENDBRANCH   1   3
BRANCH   1  25
ATOM     20  C   UNL     1       1.638   9.259  18.953  0.00  0.00    +0.000 A 
ATOM     21  C   UNL     1       0.758  10.095  19.721  0.00  0.00    +0.000 A 
ATOM     22  C   UNL     1       0.166   9.704  20.918  0.00  0.00    +0.000 A 
ATOM     23  C   UNL     1       0.475   8.441  21.389  0.00  0.00    +0.000 A 
ATOM     24  C   UNL     1       1.439   7.649  20.736  0.00  0.00    +0.000 A 
ATOM     25  C   UNL     1       2.048   7.988  19.510  0.00  0.00    +0.000 A 
BRANCH  22  26
ATOM     26  N   UNL     1      -0.656  10.538  21.709  0.00  0.00    +0.000 N 
ATOM     27  C   UNL     1      -0.775  10.562  23.075  0.00  0.00    +0.000 C 
ATOM     28  O   UNL     1      -0.074   9.991  23.897  0.00  0.00    +0.000 OA
ATOM     29  H   UNL     1      -1.303  11.154  21.236  0.00  0.00    +0.000 HD
BRANCH  27  30
ATOM     30  O   UNL     1      -1.836  11.351  23.415  0.00  0.00    +0.000 OA
ATOM     31  C   UNL     1      -2.276  12.208  22.354  0.00  0.00    +0.000 C 
ENDBRANCH  27  30
ENDBRANCH  22  26
BRANCH  20  33
ATOM     32  C   UNL     1       2.476  11.233  17.682  0.00  0.00    +0.000 C 
ATOM     33  N   UNL     1       2.157   9.786  17.733  0.00  0.00    +0.000 N 
ATOM     34  H   UNL     1       1.545   9.515  16.964  0.00  0.00    +0.000 HD
ENDBRANCH  20  33
ENDBRANCH   1  25
TORSDOF 6
ENDMDL
MODEL 7
REMARK VINA RESULT:      -7.5      2.430      4.353
REMARK  Name = 
REMARK  8 active torsions:
REMARK  status: ('A' for Active; 'I' for Inactive)
REMARK    1  A    between atoms: C_1  and  N_2
REMARK    2  A    between atoms: N_2  and  C_3
REMARK    3  A    between atoms: C_5  and  N_6
REMARK    4  A    between atoms: C_7  and  O_9
REMARK    5  A    between atoms: O_9  and  C_10
REMARK    6  A    between atoms: C_13  and  N_14
REMARK    7  A    between atoms: N_14  and  C_15
REMARK    8  A    between atoms: C_25  and  N_26
REMARK                            x       y       z     vdW  Elec       q    Type
REMARK                         _______ _______ _______ _____ _____    ______ ____
ROOT
ATOM      1  N   UNL     1       2.798   7.024  19.492  0.00  0.00    +0.000 N 
ATOM      2  H   UNL     1       3.586   6.916  20.128  0.00  0.00    +0.000 HD
ENDROOT
BRANCH   1   3
ATOM      3  C   UNL     1       2.523   5.802  18.680  0.00  0.00    +0.000 A 
ATOM      4  C   UNL     1       2.041   4.504  19.284  0.00  0.00    +0.000 A 
ATOM      5  C   UNL     1       1.989   4.007  20.625  0.00  0.00    +0.000 A 
ATOM      6  C   UNL     1       1.709   2.639  20.919  0.00  0.00    +0.000 A 
ATOM      7  C   UNL     1       1.320   1.747  19.925  0.00  0.00    +0.000 A 
ATOM      8  C   UNL     1       1.318   2.200  18.624  0.00  0.00    +0.000 A 
ATOM      9  C   UNL     1       1.795   3.467  18.333  0.00  0.00    +0.000 A 
ATOM     10  N   UNL     1       2.286   3.548  17.121  0.00  0.00    +0.000 NA
ATOM     11  C   UNL     1       3.320   4.369  17.054  0.00  0.00    +0.000 A 
ATOM     12  C   UNL     1       4.553   3.929  17.536  0.00  0.00    +0.000 A 
ATOM     13  C   UNL     1       5.468   4.897  18.002  0.00  0.00    +0.000 A 
ATOM     14  C   UNL     1       5.402   6.141  17.393  0.00  0.00    +0.000 A 
ATOM     15  C   UNL     1       4.172   6.451  16.872  0.00  0.00    +0.000 A 
ATOM     16  C   UNL     1       3.105   5.689  17.356  0.00  0.00    +0.000 A 
BRANCH  13  17
ATOM     17  N   UNL     1       5.716   4.896  19.473  0.00  0.00    +0.000 N 
ATOM     18  O   UNL     1       6.458   5.778  19.927  0.00  0.00    +0.000 OA
ATOM     19  O   UNL     1       5.240   3.968  20.146  0.00  0.00    +0.000 OA
ENDBRANCH  13  17
ENDBRANCH   1   3
BRANCH   1  25
ATOM     20  C   UNL     1       1.430   9.223  19.348  0.00  0.00    +0.000 A 
ATOM     21  C   UNL     1       0.574  10.142  20.044  0.00  0.00    +0.000 A 
ATOM     22  C   UNL     1       0.041   9.902  21.306  0.00  0.00    +0.000 A 
ATOM     23  C   UNL     1       0.387   8.711  21.918  0.00  0.00    +0.000 A 
ATOM     24  C   UNL     1       1.332   7.850  21.327  0.00  0.00    +0.000 A 
ATOM     25  C   UNL     1       1.882   8.036  20.042  0.00  0.00    +0.000 A 
BRANCH  22  26
ATOM     26  N   UNL     1      -0.756  10.823  22.022  0.00  0.00    +0.000 N 
ATOM     27  C   UNL     1      -0.490  12.141  22.296  0.00  0.00    +0.000 C 
ATOM     28  O   UNL     1       0.403  12.835  21.835  0.00  0.00    +0.000 OA
ATOM     29  H   UNL     1      -1.599  10.481  22.463  0.00  0.00    +0.000 HD
BRANCH  27  30
ATOM     30  O   UNL     1      -1.405  12.600  23.199  0.00  0.00    +0.000 OA
ATOM     31  C   UNL     1      -2.762  12.317  22.836  0.00  0.00    +0.000 C 
ENDBRANCH  27  30
ENDBRANCH  22  26
BRANCH  20  33
ATOM     32  C   UNL     1       2.293  11.005  17.833  0.00  0.00    +0.000 C 
ATOM     33  N   UNL     1       1.887   9.595  18.049  0.00  0.00    +0.000 N 
ATOM     34  H   UNL     1       1.203   9.297  17.355  0.00  0.00    +0.000 HD
ENDBRANCH  20  33
ENDBRANCH   1  25
TORSDOF 6
ENDMDL
MODEL 8
REMARK VINA RESULT:      -7.3      2.277      3.870
REMARK  Name = 
REMARK  8 active torsions:
REMARK  status: ('A' for Active; 'I' for Inactive)
REMARK    1  A    between atoms: C_1  and  N_2
REMARK    2  A    between atoms: N_2  and  C_3
REMARK    3  A    between atoms: C_5  and  N_6
REMARK    4  A    between atoms: C_7  and  O_9
REMARK    5  A    between atoms: O_9  and  C_10
REMARK    6  A    between atoms: C_13  and  N_14
REMARK    7  A    between atoms: N_14  and  C_15
REMARK    8  A    between atoms: C_25  and  N_26
REMARK                            x       y       z     vdW  Elec       q    Type
REMARK                         _______ _______ _______ _____ _____    ______ ____
ROOT
ATOM      1  N   UNL     1       3.280   6.989  18.829  0.00  0.00    +0.000 N 
ATOM      2  H   UNL     1       3.632   6.846  19.775  0.00  0.00    +0.000 HD
ENDROOT
BRANCH   1   3
ATOM      3  C   UNL     1       3.461   5.798  17.947  0.00  0.00    +0.000 A 
ATOM      4  C   UNL     1       3.130   4.391  18.386  0.00  0.00    +0.000 A 
ATOM      5  C   UNL     1       2.871   3.799  19.663  0.00  0.00    +0.000 A 
ATOM      6  C   UNL     1       2.819   2.385  19.849  0.00  0.00    +0.000 A 
ATOM      7  C   UNL     1       2.864   1.508  18.770  0.00  0.00    +0.000 A 
ATOM      8  C   UNL     1       3.072   2.043  17.518  0.00  0.00    +0.000 A 
ATOM      9  C   UNL     1       3.331   3.397  17.380  0.00  0.00    +0.000 A 
ATOM     10  N   UNL     1       4.063   3.659  16.326  0.00  0.00    +0.000 NA
ATOM     11  C   UNL     1       4.891   4.668  16.530  0.00  0.00    +0.000 A 
ATOM     12  C   UNL     1       6.042   4.443  17.287  0.00  0.00    +0.000 A 
ATOM     13  C   UNL     1       6.604   5.535  17.982  0.00  0.00    +0.000 A 
ATOM     14  C   UNL     1       6.426   6.782  17.404  0.00  0.00    +0.000 A 
ATOM     15  C   UNL     1       5.315   6.884  16.608  0.00  0.00    +0.000 A 
ATOM     16  C   UNL     1       4.345   5.895  16.801  0.00  0.00    +0.000 A 
BRANCH  13  17
ATOM     17  N   UNL     1       6.498   5.477  19.469  0.00  0.00    +0.000 N 
ATOM     18  O   UNL     1       5.361   5.495  19.962  0.00  0.00    +0.000 OA
ATOM     19  O   UNL     1       7.548   5.502  20.132  0.00  0.00    +0.000 OA
ENDBRANCH  13  17
ENDBRANCH   1   3
BRANCH   1  25
ATOM     20  C   UNL     1       1.590   8.513  20.071  0.00  0.00    +0.000 A 
ATOM     21  C   UNL     1       0.520   9.463  19.940  0.00  0.00    +0.000 A 
ATOM     22  C   UNL     1       0.126  10.023  18.729  0.00  0.00    +0.000 A 
ATOM     23  C   UNL     1       0.802   9.611  17.596  0.00  0.00    +0.000 A 
ATOM     24  C   UNL     1       1.760   8.582  17.667  0.00  0.00    +0.000 A 
ATOM     25  C   UNL     1       2.212   7.999  18.870  0.00  0.00    +0.000 A 
BRANCH  22  26
ATOM     26  N   UNL     1      -0.961  10.915  18.582  0.00  0.00    +0.000 N 
ATOM     27  C   UNL     1      -2.213  10.651  18.089  0.00  0.00    +0.000 C 
ATOM     28  O   UNL     1      -2.704   9.560  17.838  0.00  0.00    +0.000 OA
ATOM     29  H   UNL     1      -0.805  11.892  18.787  0.00  0.00    +0.000 HD
BRANCH  27  30
ATOM     30  O   UNL     1      -2.877  11.830  17.908  0.00  0.00    +0.000 OA
ATOM     31  C   UNL     1      -4.299  11.714  18.035  0.00  0.00    +0.000 C 
ENDBRANCH  27  30
ENDBRANCH  22  26
BRANCH  20  33
ATOM     32  C   UNL     1       1.552   8.902  22.533  0.00  0.00    +0.000 C 
ATOM     33  N   UNL     1       1.897   8.037  21.381  0.00  0.00    +0.000 N 
ATOM     34  H   UNL     1       2.874   7.751  21.412  0.00  0.00    +0.000 HD
ENDBRANCH  20  33
ENDBRANCH   1  25
TORSDOF 6
ENDMDL
MODEL 9
REMARK VINA RESULT:      -7.3      2.148      3.850
REMARK  Name = 
REMARK  8 active torsions:
REMARK  status: ('A' for Active; 'I' for Inactive)
REMARK    1  A    between atoms: C_1  and  N_2
REMARK    2  A    between atoms: N_2  and  C_3
REMARK    3  A    between atoms: C_5  and  N_6
REMARK    4  A    between atoms: C_7  and  O_9
REMARK    5  A    between atoms: O_9  and  C_10
REMARK    6  A    between atoms: C_13  and  N_14
REMARK    7  A    between atoms: N_14  and  C_15
REMARK    8  A    between atoms: C_25  and  N_26
REMARK                            x       y       z     vdW  Elec       q    Type
REMARK                         _______ _______ _______ _____ _____    ______ ____
ROOT
ATOM      1  N   UNL     1       3.844   6.828  18.538  0.00  0.00    +0.000 N 
ATOM      2  H   UNL     1       4.416   6.810  19.382  0.00  0.00    +0.000 HD
ENDROOT
BRANCH   1   3
ATOM      3  C   UNL     1       3.897   5.553  17.764  0.00  0.00    +0.000 A 
ATOM      4  C   UNL     1       3.807   4.191  18.412  0.00  0.00    +0.000 A 
ATOM      5  C   UNL     1       3.928   3.741  19.765  0.00  0.00    +0.000 A 
ATOM      6  C   UNL     1       4.045   2.358  20.099  0.00  0.00    +0.000 A 
ATOM      7  C   UNL     1       3.892   1.364  19.138  0.00  0.00    +0.000 A 
ATOM      8  C   UNL     1       3.733   1.758  17.829  0.00  0.00    +0.000 A 
ATOM      9  C   UNL     1       3.833   3.098  17.493  0.00  0.00    +0.000 A 
ATOM     10  N   UNL     1       4.253   3.274  16.265  0.00  0.00    +0.000 NA
ATOM     11  C   UNL     1       5.017   4.345  16.145  0.00  0.00    +0.000 A 
ATOM     12  C   UNL     1       6.335   4.277  16.597  0.00  0.00    +0.000 A 
ATOM     13  C   UNL     1       6.959   5.473  17.011  0.00  0.00    +0.000 A 
ATOM     14  C   UNL     1       6.538   6.631  16.377  0.00  0.00    +0.000 A 
ATOM     15  C   UNL     1       5.257   6.575  15.889  0.00  0.00    +0.000 A 
ATOM     16  C   UNL     1       4.455   5.563  16.424  0.00  0.00    +0.000 A 
BRANCH  13  17
ATOM     17  N   UNL     1       7.235   5.586  18.473  0.00  0.00    +0.000 N 
ATOM     18  O   UNL     1       7.863   6.581  18.860  0.00  0.00    +0.000 OA
ATOM     19  O   UNL     1       6.899   4.641  19.206  0.00  0.00    +0.000 OA
ENDBRANCH  13  17
ENDBRANCH   1   3
BRANCH   1  25
ATOM     20  C   UNL     1       1.889   7.856  19.897  0.00  0.00    +0.000 A 
ATOM     21  C   UNL     1       0.824   8.820  19.911  0.00  0.00    +0.000 A 
ATOM     22  C   UNL     1       0.640   9.786  18.927  0.00  0.00    +0.000 A 
ATOM     23  C   UNL     1       1.532   9.786  17.871  0.00  0.00    +0.000 A 
ATOM     24  C   UNL     1       2.502   8.772  17.753  0.00  0.00    +0.000 A 
ATOM     25  C   UNL     1       2.745   7.787  18.732  0.00  0.00    +0.000 A 
BRANCH  22  26
ATOM     26  N   UNL     1      -0.436  10.702  18.903  0.00  0.00    +0.000 N 
ATOM     27  C   UNL     1      -1.491  10.748  18.027  0.00  0.00    +0.000 C 
ATOM     28  O   UNL     1      -1.811   9.910  17.197  0.00  0.00    +0.000 OA
ATOM     29  H   UNL     1      -0.416  11.476  19.553  0.00  0.00    +0.000 HD
BRANCH  27  30
ATOM     30  O   UNL     1      -2.174  11.915  18.216  0.00  0.00    +0.000 OA
ATOM     31  C   UNL     1      -1.484  12.856  19.048  0.00  0.00    +0.000 C 
ENDBRANCH  27  30
ENDBRANCH  22  26
BRANCH  20  33
ATOM     32  C   UNL     1       1.364   5.593  20.801  0.00  0.00    +0.000 C 
ATOM     33  N   UNL     1       1.965   6.936  20.984  0.00  0.00    +0.000 N 
ATOM     34  H   UNL     1       1.615   7.386  21.828  0.00  0.00    +0.000 HD
ENDBRANCH  20  33
ENDBRANCH   1  25
TORSDOF 6
ENDMDL
