MODEL 1
REMARK VINA RESULT:      -8.2      0.000      0.000
REMARK  Name = 
REMARK  5 active torsions:
REMARK  status: ('A' for Active; 'I' for Inactive)
REMARK    1  A    between atoms: C_1  and  C_2
REMARK    2  A    between atoms: C_6  and  C_7
REMARK    3  A    between atoms: C_17  and  O_18
REMARK    4  A    between atoms: C_17  and  C_19
REMARK    5  A    between atoms: C_23  and  O_24
REMARK                            x       y       z     vdW  Elec       q    Type
REMARK                         _______ _______ _______ _____ _____    ______ ____
ROOT
ATOM      1  C   UNL     1       3.599   7.148  17.730  0.00  0.00    +0.000 C 
ATOM      2  O   UNL     1       4.640   7.681  17.344  0.00  0.00    +0.000 OA
ATOM      3  N   UNL     1       3.386   5.765  17.670  0.00  0.00    +0.000 N 
ATOM      4  N   UNL     1       2.136   5.236  17.872  0.00  0.00    +0.000 NA
ATOM      5  C   UNL     1       2.262   3.967  18.002  0.00  0.00    +0.000 C 
ATOM      6  C   UNL     1       1.118   3.057  18.327  0.00  0.00    +0.000 C 
ATOM      7  C   UNL     1       1.553   2.048  19.386  0.00  0.00    +0.000 C 
ATOM      8  C   UNL     1       2.884   1.380  19.030  0.00  0.00    +0.000 C 
ATOM      9  C   UNL     1       3.990   2.424  18.857  0.00  0.00    +0.000 C 
ATOM     10  C   UNL     1       3.625   3.414  17.749  0.00  0.00    +0.000 C 
ATOM     11  C   UNL     1       4.447   4.724  17.667  0.00  0.00    +0.000 C 
ENDROOT
BRANCH   1  17
ATOM     12  C   UNL     1       0.582   8.388  21.640  0.00  0.00    +0.000 C 
ATOM     13  C   UNL     1       1.136   8.645  20.267  0.00  0.00    +0.000 A 
ATOM     14  C   UNL     1       0.604   9.706  19.519  0.00  0.00    +0.000 A 
ATOM     15  C   UNL     1       0.956   9.866  18.190  0.00  0.00    +0.000 A 
ATOM     16  C   UNL     1       1.861   8.987  17.611  0.00  0.00    +0.000 A 
ATOM     17  C   UNL     1       2.540   8.010  18.369  0.00  0.00    +0.000 A 
ATOM     18  C   UNL     1       2.121   7.814  19.695  0.00  0.00    +0.000 A 
BRANCH  18  19
ATOM     19  O   UNL     1       2.623   6.805  20.478  0.00  0.00    +0.000 OA
ATOM     20  H   UNL     1       3.586   6.730  20.304  0.00  0.00    +0.000 HD
ENDBRANCH  18  19
ENDBRANCH   1  17
BRANCH  11  21
ATOM     21  C   UNL     1       5.402   4.687  16.429  0.00  0.00    +0.000 C 
ATOM     22  F   UNL     1       4.901   5.312  15.342  0.00  0.00    +0.000 F 
ATOM     23  F   UNL     1       6.615   5.230  16.695  0.00  0.00    +0.000 F 
ATOM     24  F   UNL     1       5.656   3.404  16.043  0.00  0.00    +0.000 F 
ENDBRANCH  11  21
BRANCH  11  25
ATOM     25  O   UNL     1       5.155   4.892  18.908  0.00  0.00    +0.000 OA
ATOM     26  H   UNL     1       5.597   4.042  19.072  0.00  0.00    +0.000 HD
ENDBRANCH  11  25
TORSDOF 4
ENDMDL
MODEL 2
REMARK VINA RESULT:      -8.0      3.512      5.182
REMARK  Name = 
REMARK  5 active torsions:
REMARK  status: ('A' for Active; 'I' for Inactive)
REMARK    1  A    between atoms: C_1  and  C_2
REMARK    2  A    between atoms: C_6  and  C_7
REMARK    3  A    between atoms: C_17  and  O_18
REMARK    4  A    between atoms: C_17  and  C_19
REMARK    5  A    between atoms: C_23  and  O_24
REMARK                            x       y       z     vdW  Elec       q    Type
REMARK                         _______ _______ _______ _____ _____    ______ ____
ROOT
ATOM      1  C   UNL     1       5.246   4.814  18.783  0.00  0.00    +0.000 C 
ATOM      2  O   UNL     1       5.815   5.319  19.753  0.00  0.00    +0.000 OA
ATOM      3  N   UNL     1       5.599   5.108  17.459  0.00  0.00    +0.000 N 
ATOM      4  N   UNL     1       4.793   4.728  16.416  0.00  0.00    +0.000 NA
ATOM      5  C   UNL     1       5.450   4.899  15.329  0.00  0.00    +0.000 C 
ATOM      6  C   UNL     1       4.925   4.506  13.983  0.00  0.00    +0.000 C 
ATOM      7  C   UNL     1       6.028   3.816  13.185  0.00  0.00    +0.000 C 
ATOM      8  C   UNL     1       7.337   4.610  13.210  0.00  0.00    +0.000 C 
ATOM      9  C   UNL     1       7.821   4.821  14.647  0.00  0.00    +0.000 C 
ATOM     10  C   UNL     1       6.771   5.579  15.461  0.00  0.00    +0.000 C 
ATOM     11  C   UNL     1       6.931   5.580  17.002  0.00  0.00    +0.000 C 
ENDROOT
BRANCH   1  17
ATOM     12  C   UNL     1       1.022   3.187  21.113  0.00  0.00    +0.000 C 
ATOM     13  C   UNL     1       2.118   3.018  20.100  0.00  0.00    +0.000 A 
ATOM     14  C   UNL     1       2.190   1.813  19.385  0.00  0.00    +0.000 A 
ATOM     15  C   UNL     1       3.281   1.546  18.577  0.00  0.00    +0.000 A 
ATOM     16  C   UNL     1       4.291   2.491  18.458  0.00  0.00    +0.000 A 
ATOM     17  C   UNL     1       4.181   3.776  19.029  0.00  0.00    +0.000 A 
ATOM     18  C   UNL     1       3.105   4.005  19.901  0.00  0.00    +0.000 A 
BRANCH  18  19
ATOM     19  O   UNL     1       2.976   5.174  20.610  0.00  0.00    +0.000 OA
ATOM     20  H   UNL     1       3.874   5.486  20.854  0.00  0.00    +0.000 HD
ENDBRANCH  18  19
ENDBRANCH   1  17
BRANCH  11  21
ATOM     21  C   UNL     1       7.393   6.991  17.496  0.00  0.00    +0.000 C 
ATOM     22  F   UNL     1       8.083   6.957  18.656  0.00  0.00    +0.000 F 
ATOM     23  F   UNL     1       8.155   7.636  16.580  0.00  0.00    +0.000 F 
ATOM     24  F   UNL     1       6.323   7.808  17.718  0.00  0.00    +0.000 F 
ENDBRANCH  11  21
BRANCH  11  25
ATOM     25  O   UNL     1       7.854   4.538  17.362  0.00  0.00    +0.000 OA
ATOM     26  H   UNL     1       8.246   4.817  18.206  0.00  0.00    +0.000 HD
ENDBRANCH  11  25
TORSDOF 4
ENDMDL
MODEL 3
REMARK VINA RESULT:      -8.0      1.044      1.720
REMARK  Name = 
REMARK  5 active torsions:
REMARK  status: ('A' for Active; 'I' for Inactive)
REMARK    1  A    between atoms: C_1  and  C_2
REMARK    2  A    between atoms: C_6  and  C_7
REMARK    3  A    between atoms: C_17  and  O_18
REMARK    4  A    between atoms: C_17  and  C_19
REMARK    5  A    between atoms: C_23  and  O_24
REMARK                            x       y       z     vdW  Elec       q    Type
REMARK                         _______ _______ _______ _____ _____    ______ ____
ROOT
ATOM      1  C   UNL     1       3.247   7.511  18.068  0.00  0.00    +0.000 C 
ATOM      2  O   UNL     1       4.188   8.199  17.666  0.00  0.00    +0.000 OA
ATOM      3  N   UNL     1       3.156   6.134  17.826  0.00  0.00    +0.000 N 
ATOM      4  N   UNL     1       1.988   5.454  18.067  0.00  0.00    +0.000 NA
ATOM      5  C   UNL     1       2.242   4.200  17.996  0.00  0.00    +0.000 C 
ATOM      6  C   UNL     1       1.228   3.139  18.292  0.00  0.00    +0.000 C 
ATOM      7  C   UNL     1       1.865   2.045  19.144  0.00  0.00    +0.000 C 
ATOM      8  C   UNL     1       3.204   1.576  18.568  0.00  0.00    +0.000 C 
ATOM      9  C   UNL     1       4.186   2.745  18.445  0.00  0.00    +0.000 C 
ATOM     10  C   UNL     1       3.613   3.833  17.535  0.00  0.00    +0.000 C 
ATOM     11  C   UNL     1       4.299   5.221  17.569  0.00  0.00    +0.000 C 
ENDROOT
BRANCH   1  17
ATOM     12  C   UNL     1      -0.168  11.179  18.968  0.00  0.00    +0.000 C 
ATOM     13  C   UNL     1       0.507   9.886  19.331  0.00  0.00    +0.000 A 
ATOM     14  C   UNL     1       0.181   9.281  20.554  0.00  0.00    +0.000 A 
ATOM     15  C   UNL     1       0.905   8.191  21.007  0.00  0.00    +0.000 A 
ATOM     16  C   UNL     1       1.938   7.686  20.229  0.00  0.00    +0.000 A 
ATOM     17  C   UNL     1       2.192   8.161  18.926  0.00  0.00    +0.000 A 
ATOM     18  C   UNL     1       1.498   9.309  18.511  0.00  0.00    +0.000 A 
BRANCH  18  19
ATOM     19  O   UNL     1       1.763   9.930  17.315  0.00  0.00    +0.000 OA
ATOM     20  H   UNL     1       2.648   9.638  17.007  0.00  0.00    +0.000 HD
ENDBRANCH  18  19
ENDBRANCH   1  17
BRANCH  11  21
ATOM     21  C   UNL     1       5.112   5.455  16.252  0.00  0.00    +0.000 C 
ATOM     22  F   UNL     1       4.664   6.496  15.519  0.00  0.00    +0.000 F 
ATOM     23  F   UNL     1       6.432   5.652  16.488  0.00  0.00    +0.000 F 
ATOM     24  F   UNL     1       5.048   4.364  15.436  0.00  0.00    +0.000 F 
ENDBRANCH  11  21
BRANCH  11  25
ATOM     25  O   UNL     1       5.121   5.291  18.747  0.00  0.00    +0.000 OA
ATOM     26  H   UNL     1       5.595   6.138  18.683  0.00  0.00    +0.000 HD
ENDBRANCH  11  25
TORSDOF 4
ENDMDL
MODEL 4
REMARK VINA RESULT:      -7.6      1.122      1.367
REMARK  Name = 
REMARK  5 active torsions:
REMARK  status: ('A' for Active; 'I' for Inactive)
REMARK    1  A    between atoms: C_1  and  C_2
REMARK    2  A    between atoms: C_6  and  C_7
REMARK    3  A    between atoms: C_17  and  O_18
REMARK    4  A    between atoms: C_17  and  C_19
REMARK    5  A    between atoms: C_23  and  O_24
REMARK                            x       y       z     vdW  Elec       q    Type
REMARK                         _______ _______ _______ _____ _____    ______ ____
ROOT
ATOM      1  C   UNL     1       3.052   7.272  18.095  0.00  0.00    +0.000 C 
ATOM      2  O   UNL     1       4.032   7.700  17.482  0.00  0.00    +0.000 OA
ATOM      3  N   UNL     1       2.891   5.918  18.418  0.00  0.00    +0.000 N 
ATOM      4  N   UNL     1       1.687   5.443  18.874  0.00  0.00    +0.000 NA
ATOM      5  C   UNL     1       1.875   4.254  19.315  0.00  0.00    +0.000 C 
ATOM      6  C   UNL     1       0.803   3.446  19.978  0.00  0.00    +0.000 C 
ATOM      7  C   UNL     1       1.374   2.755  21.213  0.00  0.00    +0.000 C 
ATOM      8  C   UNL     1       2.692   2.036  20.912  0.00  0.00    +0.000 C 
ATOM      9  C   UNL     1       3.735   3.015  20.364  0.00  0.00    +0.000 C 
ATOM     10  C   UNL     1       3.229   3.674  19.079  0.00  0.00    +0.000 C 
ATOM     11  C   UNL     1       3.987   4.929  18.579  0.00  0.00    +0.000 C 
ENDROOT
BRANCH   1  17
ATOM     12  C   UNL     1       0.215   9.309  21.800  0.00  0.00    +0.000 C 
ATOM     13  C   UNL     1       0.707   9.277  20.381  0.00  0.00    +0.000 A 
ATOM     14  C   UNL     1       0.142  10.169  19.456  0.00  0.00    +0.000 A 
ATOM     15  C   UNL     1       0.434  10.053  18.108  0.00  0.00    +0.000 A 
ATOM     16  C   UNL     1       1.312   9.065  17.682  0.00  0.00    +0.000 A 
ATOM     17  C   UNL     1       2.024   8.256  18.592  0.00  0.00    +0.000 A 
ATOM     18  C   UNL     1       1.664   8.337  19.946  0.00  0.00    +0.000 A 
BRANCH  18  19
ATOM     19  O   UNL     1       2.200   7.503  20.895  0.00  0.00    +0.000 OA
ATOM     20  H   UNL     1       1.507   6.863  21.169  0.00  0.00    +0.000 HD
ENDBRANCH  18  19
ENDBRANCH   1  17
BRANCH  11  21
ATOM     21  C   UNL     1       4.824   4.582  17.303  0.00  0.00    +0.000 C 
ATOM     22  F   UNL     1       6.060   5.125  17.304  0.00  0.00    +0.000 F 
ATOM     23  F   UNL     1       4.959   3.246  17.122  0.00  0.00    +0.000 F 
ATOM     24  F   UNL     1       4.211   5.041  16.175  0.00  0.00    +0.000 F 
ENDBRANCH  11  21
BRANCH  11  25
ATOM     25  O   UNL     1       4.800   5.426  19.656  0.00  0.00    +0.000 OA
ATOM     26  H   UNL     1       5.582   5.818  19.232  0.00  0.00    +0.000 HD
ENDBRANCH  11  25
TORSDOF 4
ENDMDL
MODEL 5
REMARK VINA RESULT:      -7.4      2.696      5.606
REMARK  Name = 
REMARK  5 active torsions:
REMARK  status: ('A' for Active; 'I' for Inactive)
REMARK    1  A    between atoms: C_1  and  C_2
REMARK    2  A    between atoms: C_6  and  C_7
REMARK    3  A    between atoms: C_17  and  O_18
REMARK    4  A    between atoms: C_17  and  C_19
REMARK    5  A    between atoms: C_23  and  O_24
REMARK                            x       y       z     vdW  Elec       q    Type
REMARK                         _______ _______ _______ _____ _____    ______ ____
ROOT
ATOM      1  C   UNL     1       4.006   3.495  17.626  0.00  0.00    +0.000 C 
ATOM      2  O   UNL     1       4.001   2.270  17.766  0.00  0.00    +0.000 OA
ATOM      3  N   UNL     1       3.038   4.329  18.202  0.00  0.00    +0.000 N 
ATOM      4  N   UNL     1       2.929   5.644  17.826  0.00  0.00    +0.000 NA
ATOM      5  C   UNL     1       2.148   6.227  18.658  0.00  0.00    +0.000 C 
ATOM      6  C   UNL     1       1.861   7.696  18.622  0.00  0.00    +0.000 C 
ATOM      7  C   UNL     1       1.908   8.261  20.039  0.00  0.00    +0.000 C 
ATOM      8  C   UNL     1       1.083   7.422  21.020  0.00  0.00    +0.000 C 
ATOM      9  C   UNL     1       1.577   5.973  21.047  0.00  0.00    +0.000 C 
ATOM     10  C   UNL     1       1.474   5.345  19.655  0.00  0.00    +0.000 C 
ATOM     11  C   UNL     1       2.239   4.019  19.416  0.00  0.00    +0.000 C 
ENDROOT
BRANCH   1  17
ATOM     12  C   UNL     1       7.782   6.888  17.235  0.00  0.00    +0.000 C 
ATOM     13  C   UNL     1       6.999   5.718  16.709  0.00  0.00    +0.000 A 
ATOM     14  C   UNL     1       7.305   5.229  15.431  0.00  0.00    +0.000 A 
ATOM     15  C   UNL     1       6.495   4.275  14.837  0.00  0.00    +0.000 A 
ATOM     16  C   UNL     1       5.395   3.787  15.529  0.00  0.00    +0.000 A 
ATOM     17  C   UNL     1       5.145   4.132  16.874  0.00  0.00    +0.000 A 
ATOM     18  C   UNL     1       5.932   5.150  17.435  0.00  0.00    +0.000 A 
BRANCH  18  19
ATOM     19  O   UNL     1       5.689   5.653  18.689  0.00  0.00    +0.000 OA
ATOM     20  H   UNL     1       6.245   6.452  18.814  0.00  0.00    +0.000 HD
ENDBRANCH  18  19
ENDBRANCH   1  17
BRANCH  11  21
ATOM     21  C   UNL     1       1.233   2.825  19.319  0.00  0.00    +0.000 C 
ATOM     22  F   UNL     1       0.687   2.676  18.093  0.00  0.00    +0.000 F 
ATOM     23  F   UNL     1       1.799   1.643  19.666  0.00  0.00    +0.000 F 
ATOM     24  F   UNL     1       0.188   2.993  20.179  0.00  0.00    +0.000 F 
ENDBRANCH  11  21
BRANCH  11  25
ATOM     25  O   UNL     1       3.197   3.852  20.476  0.00  0.00    +0.000 OA
ATOM     26  H   UNL     1       3.085   2.937  20.785  0.00  0.00    +0.000 HD
ENDBRANCH  11  25
TORSDOF 4
ENDMDL
MODEL 6
REMARK VINA RESULT:      -7.4      2.307      3.540
REMARK  Name = 
REMARK  5 active torsions:
REMARK  status: ('A' for Active; 'I' for Inactive)
REMARK    1  A    between atoms: C_1  and  C_2
REMARK    2  A    between atoms: C_6  and  C_7
REMARK    3  A    between atoms: C_17  and  O_18
REMARK    4  A    between atoms: C_17  and  C_19
REMARK    5  A    between atoms: C_23  and  O_24
REMARK                            x       y       z     vdW  Elec       q    Type
REMARK                         _______ _______ _______ _____ _____    ______ ____
ROOT
ATOM      1  C   UNL     1       2.295   6.000  19.479  0.00  0.00    +0.000 C 
ATOM      2  O   UNL     1       1.541   5.321  20.178  0.00  0.00    +0.000 OA
ATOM      3  N   UNL     1       3.395   5.458  18.800  0.00  0.00    +0.000 N 
ATOM      4  N   UNL     1       4.347   6.273  18.242  0.00  0.00    +0.000 NA
ATOM      5  C   UNL     1       5.093   5.548  17.491  0.00  0.00    +0.000 C 
ATOM      6  C   UNL     1       6.192   6.107  16.642  0.00  0.00    +0.000 C 
ATOM      7  C   UNL     1       6.150   5.461  15.261  0.00  0.00    +0.000 C 
ATOM      8  C   UNL     1       6.051   3.934  15.344  0.00  0.00    +0.000 C 
ATOM      9  C   UNL     1       4.807   3.509  16.129  0.00  0.00    +0.000 C 
ATOM     10  C   UNL     1       4.849   4.077  17.549  0.00  0.00    +0.000 C 
ATOM     11  C   UNL     1       3.534   4.044  18.367  0.00  0.00    +0.000 C 
ENDROOT
BRANCH   1  17
ATOM     12  C   UNL     1       0.749  10.532  21.210  0.00  0.00    +0.000 C 
ATOM     13  C   UNL     1       1.294   9.651  20.122  0.00  0.00    +0.000 A 
ATOM     14  C   UNL     1       1.464  10.197  18.841  0.00  0.00    +0.000 A 
ATOM     15  C   UNL     1       1.792   9.379  17.772  0.00  0.00    +0.000 A 
ATOM     16  C   UNL     1       1.978   8.020  17.984  0.00  0.00    +0.000 A 
ATOM     17  C   UNL     1       1.977   7.459  19.279  0.00  0.00    +0.000 A 
ATOM     18  C   UNL     1       1.574   8.286  20.339  0.00  0.00    +0.000 A 
BRANCH  18  19
ATOM     19  O   UNL     1       1.411   7.808  21.616  0.00  0.00    +0.000 OA
ATOM     20  H   UNL     1       1.812   8.452  22.239  0.00  0.00    +0.000 HD
ENDBRANCH  18  19
ENDBRANCH   1  17
BRANCH  11  21
ATOM     21  C   UNL     1       3.625   2.961  19.492  0.00  0.00    +0.000 C 
ATOM     22  F   UNL     1       4.033   3.452  20.682  0.00  0.00    +0.000 F 
ATOM     23  F   UNL     1       2.446   2.322  19.690  0.00  0.00    +0.000 F 
ATOM     24  F   UNL     1       4.517   1.983  19.162  0.00  0.00    +0.000 F 
ENDBRANCH  11  21
BRANCH  11  25
ATOM     25  O   UNL     1       2.443   3.810  17.459  0.00  0.00    +0.000 OA
ATOM     26  H   UNL     1       2.018   4.674  17.335  0.00  0.00    +0.000 HD
ENDBRANCH  11  25
TORSDOF 4
ENDMDL
MODEL 7
REMARK VINA RESULT:      -7.4      2.267      3.906
REMARK  Name = 
REMARK  5 active torsions:
REMARK  status: ('A' for Active; 'I' for Inactive)
REMARK    1  A    between atoms: C_1  and  C_2
REMARK    2  A    between atoms: C_6  and  C_7
REMARK    3  A    between atoms: C_17  and  O_18
REMARK    4  A    between atoms: C_17  and  C_19
REMARK    5  A    between atoms: C_23  and  O_24
REMARK                            x       y       z     vdW  Elec       q    Type
REMARK                         _______ _______ _______ _____ _____    ______ ____
ROOT
ATOM      1  C   UNL     1       2.046   5.359  19.849  0.00  0.00    +0.000 C 
ATOM      2  O   UNL     1       1.161   4.552  20.142  0.00  0.00    +0.000 OA
ATOM      3  N   UNL     1       3.276   4.971  19.301  0.00  0.00    +0.000 N 
ATOM      4  N   UNL     1       4.320   5.857  19.220  0.00  0.00    +0.000 NA
ATOM      5  C   UNL     1       5.223   5.334  18.476  0.00  0.00    +0.000 C 
ATOM      6  C   UNL     1       6.479   6.049  18.083  0.00  0.00    +0.000 C 
ATOM      7  C   UNL     1       6.755   5.820  16.600  0.00  0.00    +0.000 C 
ATOM      8  C   UNL     1       6.658   4.339  16.220  0.00  0.00    +0.000 C 
ATOM      9  C   UNL     1       5.274   3.778  16.560  0.00  0.00    +0.000 C 
ATOM     10  C   UNL     1       4.989   3.921  18.056  0.00  0.00    +0.000 C 
ATOM     11  C   UNL     1       3.525   3.730  18.522  0.00  0.00    +0.000 C 
ENDROOT
BRANCH   1  17
ATOM     12  C   UNL     1       1.819  10.107  18.026  0.00  0.00    +0.000 C 
ATOM     13  C   UNL     1       1.594   9.101  19.119  0.00  0.00    +0.000 A 
ATOM     14  C   UNL     1       1.154   9.559  20.369  0.00  0.00    +0.000 A 
ATOM     15  C   UNL     1       1.106   8.696  21.451  0.00  0.00    +0.000 A 
ATOM     16  C   UNL     1       1.471   7.367  21.281  0.00  0.00    +0.000 A 
ATOM     17  C   UNL     1       1.764   6.830  20.010  0.00  0.00    +0.000 A 
ATOM     18  C   UNL     1       1.876   7.731  18.939  0.00  0.00    +0.000 A 
BRANCH  18  19
ATOM     19  O   UNL     1       2.284   7.334  17.690  0.00  0.00    +0.000 OA
ATOM     20  H   UNL     1       1.527   6.897  17.243  0.00  0.00    +0.000 HD
ENDBRANCH  18  19
ENDBRANCH   1  17
BRANCH  11  21
ATOM     21  C   UNL     1       3.372   2.371  19.283  0.00  0.00    +0.000 C 
ATOM     22  F   UNL     1       4.191   1.401  18.824  0.00  0.00    +0.000 F 
ATOM     23  F   UNL     1       3.587   2.498  20.615  0.00  0.00    +0.000 F 
ATOM     24  F   UNL     1       2.104   1.883  19.165  0.00  0.00    +0.000 F 
ENDBRANCH  11  21
BRANCH  11  25
ATOM     25  O   UNL     1       2.668   3.819  17.371  0.00  0.00    +0.000 OA
ATOM     26  H   UNL     1       3.021   3.176  16.734  0.00  0.00    +0.000 HD
ENDBRANCH  11  25
TORSDOF 4
ENDMDL
MODEL 8
REMARK VINA RESULT:      -7.3      1.559      2.155
REMARK  Name = 
REMARK  5 active torsions:
REMARK  status: ('A' for Active; 'I' for Inactive)
REMARK    1  A    between atoms: C_1  and  C_2
REMARK    2  A    between atoms: C_6  and  C_7
REMARK    3  A    between atoms: C_17  and  O_18
REMARK    4  A    between atoms: C_17  and  C_19
REMARK    5  A    between atoms: C_23  and  O_24
REMARK                            x       y       z     vdW  Elec       q    Type
REMARK                         _______ _______ _______ _____ _____    ______ ____
ROOT
ATOM      1  C   UNL     1       2.814   7.285  18.399  0.00  0.00    +0.000 C 
ATOM      2  O   UNL     1       3.602   7.754  17.576  0.00  0.00    +0.000 OA
ATOM      3  N   UNL     1       2.763   5.919  18.708  0.00  0.00    +0.000 N 
ATOM      4  N   UNL     1       1.719   5.401  19.433  0.00  0.00    +0.000 NA
ATOM      5  C   UNL     1       2.033   4.206  19.775  0.00  0.00    +0.000 C 
ATOM      6  C   UNL     1       1.175   3.352  20.656  0.00  0.00    +0.000 C 
ATOM      7  C   UNL     1       2.048   2.644  21.689  0.00  0.00    +0.000 C 
ATOM      8  C   UNL     1       3.263   1.969  21.047  0.00  0.00    +0.000 C 
ATOM      9  C   UNL     1       4.118   2.988  20.290  0.00  0.00    +0.000 C 
ATOM     10  C   UNL     1       3.297   3.668  19.192  0.00  0.00    +0.000 C 
ATOM     11  C   UNL     1       3.883   4.955  18.560  0.00  0.00    +0.000 C 
ENDROOT
BRANCH   1  17
ATOM     12  C   UNL     1       0.112  11.583  18.788  0.00  0.00    +0.000 C 
ATOM     13  C   UNL     1       0.574  10.260  19.332  0.00  0.00    +0.000 A 
ATOM     14  C   UNL     1       0.205   9.908  20.639  0.00  0.00    +0.000 A 
ATOM     15  C   UNL     1       0.753   8.789  21.241  0.00  0.00    +0.000 A 
ATOM     16  C   UNL     1       1.650   8.002  20.531  0.00  0.00    +0.000 A 
ATOM     17  C   UNL     1       1.923   8.228  19.165  0.00  0.00    +0.000 A 
ATOM     18  C   UNL     1       1.415   9.404  18.592  0.00  0.00    +0.000 A 
BRANCH  18  19
ATOM     19  O   UNL     1       1.728   9.786  17.311  0.00  0.00    +0.000 OA
ATOM     20  H   UNL     1       2.215  10.638  17.354  0.00  0.00    +0.000 HD
ENDBRANCH  18  19
ENDBRANCH   1  17
BRANCH  11  21
ATOM     21  C   UNL     1       4.383   4.664  17.107  0.00  0.00    +0.000 C 
ATOM     22  F   UNL     1       4.510   5.773  16.347  0.00  0.00    +0.000 F 
ATOM     23  F   UNL     1       5.572   4.013  17.090  0.00  0.00    +0.000 F 
ATOM     24  F   UNL     1       3.514   3.849  16.442  0.00  0.00    +0.000 F 
ENDBRANCH  11  21
BRANCH  11  25
ATOM     25  O   UNL     1       4.929   5.444  19.418  0.00  0.00    +0.000 OA
ATOM     26  H   UNL     1       5.650   5.711  18.823  0.00  0.00    +0.000 HD
ENDBRANCH  11  25
TORSDOF 4
ENDMDL
MODEL 9
REMARK VINA RESULT:      -6.9      2.148      3.442
REMARK  Name = 
REMARK  5 active torsions:
REMARK  status: ('A' for Active; 'I' for Inactive)
REMARK    1  A    between atoms: C_1  and  C_2
REMARK    2  A    between atoms: C_6  and  C_7
REMARK    3  A    between atoms: C_17  and  O_18
REMARK    4  A    between atoms: C_17  and  C_19
REMARK    5  A    between atoms: C_23  and  O_24
REMARK                            x       y       z     vdW  Elec       q    Type
REMARK                         _______ _______ _______ _____ _____    ______ ____
ROOT
ATOM      1  C   UNL     1       2.183   5.498  18.410  0.00  0.00    +0.000 C 
ATOM      2  O   UNL     1       1.262   4.823  17.945  0.00  0.00    +0.000 OA
ATOM      3  N   UNL     1       3.496   5.020  18.515  0.00  0.00    +0.000 N 
ATOM      4  N   UNL     1       4.433   5.694  19.258  0.00  0.00    +0.000 NA
ATOM      5  C   UNL     1       5.581   5.189  18.994  0.00  0.00    +0.000 C 
ATOM      6  C   UNL     1       6.862   5.730  19.551  0.00  0.00    +0.000 C 
ATOM      7  C   UNL     1       7.916   5.784  18.448  0.00  0.00    +0.000 C 
ATOM      8  C   UNL     1       8.003   4.466  17.672  0.00  0.00    +0.000 C 
ATOM      9  C   UNL     1       6.651   4.109  17.049  0.00  0.00    +0.000 C 
ATOM     10  C   UNL     1       5.580   3.971  18.133  0.00  0.00    +0.000 C 
ATOM     11  C   UNL     1       4.101   3.955  17.673  0.00  0.00    +0.000 C 
ENDROOT
BRANCH   1  17
ATOM     12  C   UNL     1       1.177   9.068  21.898  0.00  0.00    +0.000 C 
ATOM     13  C   UNL     1       1.484   8.650  20.487  0.00  0.00    +0.000 A 
ATOM     14  C   UNL     1       1.456   9.625  19.479  0.00  0.00    +0.000 A 
ATOM     15  C   UNL     1       1.556   9.256  18.149  0.00  0.00    +0.000 A 
ATOM     16  C   UNL     1       1.711   7.915  17.822  0.00  0.00    +0.000 A 
ATOM     17  C   UNL     1       1.905   6.924  18.807  0.00  0.00    +0.000 A 
ATOM     18  C   UNL     1       1.731   7.304  20.147  0.00  0.00    +0.000 A 
BRANCH  18  19
ATOM     19  O   UNL     1       1.768   6.394  21.174  0.00  0.00    +0.000 OA
ATOM     20  H   UNL     1       1.167   5.651  20.949  0.00  0.00    +0.000 HD
ENDBRANCH  18  19
ENDBRANCH   1  17
BRANCH  11  21
ATOM     21  C   UNL     1       3.507   2.515  17.813  0.00  0.00    +0.000 C 
ATOM     22  F   UNL     1       4.363   1.539  17.444  0.00  0.00    +0.000 F 
ATOM     23  F   UNL     1       3.093   2.247  19.076  0.00  0.00    +0.000 F 
ATOM     24  F   UNL     1       2.401   2.362  17.029  0.00  0.00    +0.000 F 
ENDBRANCH  11  21
BRANCH  11  25
ATOM     25  O   UNL     1       4.042   4.450  16.324  0.00  0.00    +0.000 OA
ATOM     26  H   UNL     1       4.022   3.661  15.758  0.00  0.00    +0.000 HD
ENDBRANCH  11  25
TORSDOF 4
ENDMDL
