MODEL 1
REMARK VINA RESULT:      -7.6      0.000      0.000
REMARK  Name = 
REMARK  6 active torsions:
REMARK  status: ('A' for Active; 'I' for Inactive)
REMARK    1  A    between atoms: C_1  and  C_2
REMARK    2  A    between atoms: N_4  and  C_5
REMARK    3  A    between atoms: C_5  and  C_6
REMARK    4  A    between atoms: N_8  and  C_9
REMARK    5  A    between atoms: N_8  and  C_10
REMARK    6  A    between atoms: C_10  and  C_11
REMARK                            x       y       z     vdW  Elec       q    Type
REMARK                         _______ _______ _______ _____ _____    ______ ____
ROOT
ATOM      1  C   UNL     1       5.878   5.516  19.162  0.00  0.00    +0.000 C 
ENDROOT
BRANCH   1   5
ATOM      2  C   UNL     1       4.065   1.007  18.741  0.00  0.00    +0.000 C 
ATOM      3  C   UNL     1       3.935   2.466  19.042  0.00  0.00    +0.000 A 
ATOM      4  N   UNL     1       4.943   3.281  18.955  0.00  0.00    +0.000 NA
ATOM      5  N   UNL     1       4.729   4.628  19.239  0.00  0.00    +0.000 N 
ATOM      6  C   UNL     1       3.503   5.173  19.655  0.00  0.00    +0.000 A 
ATOM      7  O   UNL     1       3.360   6.362  19.934  0.00  0.00    +0.000 OA
ATOM      8  C   UNL     1       2.441   4.210  19.759  0.00  0.00    +0.000 A 
ATOM      9  C   UNL     1       1.127   4.350  20.155  0.00  0.00    +0.000 A 
ATOM     10  C   UNL     1       0.526   3.073  20.064  0.00  0.00    +0.000 A 
ATOM     11  C   UNL     1       1.495   2.193  19.627  0.00  0.00    +0.000 A 
ATOM     12  N   UNL     1       2.669   2.895  19.446  0.00  0.00    +0.000 N 
ENDBRANCH   1   5
BRANCH   1  13
ATOM     13  C   UNL     1       6.831   5.156  18.011  0.00  0.00    +0.000 C 
ATOM     14  O   UNL     1       7.816   4.439  18.197  0.00  0.00    +0.000 OA
ATOM     15  N   UNL     1       6.582   5.746  16.768  0.00  0.00    +0.000 N 
ATOM     16  C   UNL     1       5.418   6.564  16.453  0.00  0.00    +0.000 C 
BRANCH  15  17
ATOM     17  C   UNL     1       7.499   5.453  15.663  0.00  0.00    +0.000 C 
BRANCH  17  18
ATOM     18  C   UNL     1       6.924   4.772  14.437  0.00  0.00    +0.000 A 
ATOM     19  C   UNL     1       5.760   3.994  14.438  0.00  0.00    +0.000 A 
ATOM     20  C   UNL     1       5.298   3.405  13.254  0.00  0.00    +0.000 A 
ATOM     21  C   UNL     1       5.994   3.573  12.059  0.00  0.00    +0.000 A 
ATOM     22  C   UNL     1       7.160   4.334  12.042  0.00  0.00    +0.000 A 
ATOM     23  C   UNL     1       7.617   4.927  13.220  0.00  0.00    +0.000 A 
ENDBRANCH  17  18
ENDBRANCH  15  17
ENDBRANCH   1  13
TORSDOF 4
ENDMDL
MODEL 2
REMARK VINA RESULT:      -7.4      0.144      1.011
REMARK  Name = 
REMARK  6 active torsions:
REMARK  status: ('A' for Active; 'I' for Inactive)
REMARK    1  A    between atoms: C_1  and  C_2
REMARK    2  A    between atoms: N_4  and  C_5
REMARK    3  A    between atoms: C_5  and  C_6
REMARK    4  A    between atoms: N_8  and  C_9
REMARK    5  A    between atoms: N_8  and  C_10
REMARK    6  A    between atoms: C_10  and  C_11
REMARK                            x       y       z     vdW  Elec       q    Type
REMARK                         _______ _______ _______ _____ _____    ______ ____
ROOT
ATOM      1  C   UNL     1       5.909   5.465  19.173  0.00  0.00    +0.000 C 
ENDROOT
BRANCH   1   5
ATOM      2  C   UNL     1       4.112   0.952  18.731  0.00  0.00    +0.000 C 
ATOM      3  C   UNL     1       3.970   2.415  19.009  0.00  0.00    +0.000 A 
ATOM      4  N   UNL     1       4.982   3.228  18.954  0.00  0.00    +0.000 NA
ATOM      5  N   UNL     1       4.757   4.579  19.212  0.00  0.00    +0.000 N 
ATOM      6  C   UNL     1       3.515   5.129  19.569  0.00  0.00    +0.000 A 
ATOM      7  O   UNL     1       3.361   6.322  19.827  0.00  0.00    +0.000 OA
ATOM      8  C   UNL     1       2.448   4.168  19.640  0.00  0.00    +0.000 A 
ATOM      9  C   UNL     1       1.119   4.313  19.978  0.00  0.00    +0.000 A 
ATOM     10  C   UNL     1       0.521   3.036  19.878  0.00  0.00    +0.000 A 
ATOM     11  C   UNL     1       1.507   2.150  19.493  0.00  0.00    +0.000 A 
ATOM     12  N   UNL     1       2.689   2.849  19.353  0.00  0.00    +0.000 N 
ENDBRANCH   1   5
BRANCH   1  13
ATOM     13  C   UNL     1       6.863   5.149  18.010  0.00  0.00    +0.000 C 
ATOM     14  O   UNL     1       7.867   4.453  18.178  0.00  0.00    +0.000 OA
ATOM     15  N   UNL     1       6.591   5.753  16.779  0.00  0.00    +0.000 N 
ATOM     16  C   UNL     1       5.406   6.547  16.485  0.00  0.00    +0.000 C 
BRANCH  15  17
ATOM     17  C   UNL     1       7.508   5.501  15.663  0.00  0.00    +0.000 C 
BRANCH  17  18
ATOM     18  C   UNL     1       6.946   4.814  14.435  0.00  0.00    +0.000 A 
ATOM     19  C   UNL     1       7.543   4.846  13.169  0.00  0.00    +0.000 A 
ATOM     20  C   UNL     1       6.954   4.176  12.089  0.00  0.00    +0.000 A 
ATOM     21  C   UNL     1       5.761   3.476  12.253  0.00  0.00    +0.000 A 
ATOM     22  C   UNL     1       5.147   3.444  13.503  0.00  0.00    +0.000 A 
ATOM     23  C   UNL     1       5.737   4.106  14.581  0.00  0.00    +0.000 A 
ENDBRANCH  17  18
ENDBRANCH  15  17
ENDBRANCH   1  13
TORSDOF 4
ENDMDL
MODEL 3
REMARK VINA RESULT:      -7.4      0.931      1.130
REMARK  Name = 
REMARK  6 active torsions:
REMARK  status: ('A' for Active; 'I' for Inactive)
REMARK    1  A    between atoms: C_1  and  C_2
REMARK    2  A    between atoms: N_4  and  C_5
REMARK    3  A    between atoms: C_5  and  C_6
REMARK    4  A    between atoms: N_8  and  C_9
REMARK    5  A    between atoms: N_8  and  C_10
REMARK    6  A    between atoms: C_10  and  C_11
REMARK                            x       y       z     vdW  Elec       q    Type
REMARK                         _______ _______ _______ _____ _____    ______ ____
ROOT
ATOM      1  C   UNL     1       5.628   5.613  19.063  0.00  0.00    +0.000 C 
ENDROOT
BRANCH   1   5
ATOM      2  C   UNL     1       3.897   1.107  18.360  0.00  0.00    +0.000 C 
ATOM      3  C   UNL     1       3.747   2.536  18.777  0.00  0.00    +0.000 A 
ATOM      4  N   UNL     1       4.734   3.379  18.717  0.00  0.00    +0.000 NA
ATOM      5  N   UNL     1       4.501   4.695  19.111  0.00  0.00    +0.000 N 
ATOM      6  C   UNL     1       3.280   5.178  19.609  0.00  0.00    +0.000 A 
ATOM      7  O   UNL     1       3.121   6.338  19.983  0.00  0.00    +0.000 OA
ATOM      8  C   UNL     1       2.242   4.185  19.675  0.00  0.00    +0.000 A 
ATOM      9  C   UNL     1       0.941   4.263  20.126  0.00  0.00    +0.000 A 
ATOM     10  C   UNL     1       0.364   2.983  19.958  0.00  0.00    +0.000 A 
ATOM     11  C   UNL     1       1.336   2.162  19.422  0.00  0.00    +0.000 A 
ATOM     12  N   UNL     1       2.487   2.903  19.255  0.00  0.00    +0.000 N 
ENDBRANCH   1   5
BRANCH   1  13
ATOM     13  C   UNL     1       5.920   6.123  17.643  0.00  0.00    +0.000 C 
ATOM     14  O   UNL     1       5.261   7.037  17.143  0.00  0.00    +0.000 OA
ATOM     15  N   UNL     1       6.904   5.449  16.913  0.00  0.00    +0.000 N 
ATOM     16  C   UNL     1       7.758   4.394  17.443  0.00  0.00    +0.000 C 
BRANCH  15  17
ATOM     17  C   UNL     1       7.174   5.887  15.540  0.00  0.00    +0.000 C 
BRANCH  17  18
ATOM     18  C   UNL     1       6.695   4.995  14.412  0.00  0.00    +0.000 A 
ATOM     19  C   UNL     1       5.501   4.264  14.436  0.00  0.00    +0.000 A 
ATOM     20  C   UNL     1       5.134   3.467  13.344  0.00  0.00    +0.000 A 
ATOM     21  C   UNL     1       5.955   3.379  12.222  0.00  0.00    +0.000 A 
ATOM     22  C   UNL     1       7.152   4.091  12.187  0.00  0.00    +0.000 A 
ATOM     23  C   UNL     1       7.515   4.890  13.272  0.00  0.00    +0.000 A 
ENDBRANCH  17  18
ENDBRANCH  15  17
ENDBRANCH   1  13
TORSDOF 4
ENDMDL
MODEL 4
REMARK VINA RESULT:      -7.2      0.955      1.519
REMARK  Name = 
REMARK  6 active torsions:
REMARK  status: ('A' for Active; 'I' for Inactive)
REMARK    1  A    between atoms: C_1  and  C_2
REMARK    2  A    between atoms: N_4  and  C_5
REMARK    3  A    between atoms: C_5  and  C_6
REMARK    4  A    between atoms: N_8  and  C_9
REMARK    5  A    between atoms: N_8  and  C_10
REMARK    6  A    between atoms: C_10  and  C_11
REMARK                            x       y       z     vdW  Elec       q    Type
REMARK                         _______ _______ _______ _____ _____    ______ ____
ROOT
ATOM      1  C   UNL     1       5.626   5.619  19.069  0.00  0.00    +0.000 C 
ENDROOT
BRANCH   1   5
ATOM      2  C   UNL     1       3.876   1.155  18.171  0.00  0.00    +0.000 C 
ATOM      3  C   UNL     1       3.734   2.563  18.655  0.00  0.00    +0.000 A 
ATOM      4  N   UNL     1       4.722   3.405  18.627  0.00  0.00    +0.000 NA
ATOM      5  N   UNL     1       4.497   4.702  19.084  0.00  0.00    +0.000 N 
ATOM      6  C   UNL     1       3.281   5.164  19.613  0.00  0.00    +0.000 A 
ATOM      7  O   UNL     1       3.129   6.306  20.043  0.00  0.00    +0.000 OA
ATOM      8  C   UNL     1       2.241   4.172  19.642  0.00  0.00    +0.000 A 
ATOM      9  C   UNL     1       0.944   4.231  20.107  0.00  0.00    +0.000 A 
ATOM     10  C   UNL     1       0.363   2.962  19.884  0.00  0.00    +0.000 A 
ATOM     11  C   UNL     1       1.327   2.164  19.303  0.00  0.00    +0.000 A 
ATOM     12  N   UNL     1       2.479   2.910  19.161  0.00  0.00    +0.000 N 
ENDBRANCH   1   5
BRANCH   1  13
ATOM     13  C   UNL     1       5.928   6.168  17.665  0.00  0.00    +0.000 C 
ATOM     14  O   UNL     1       5.271   7.094  17.185  0.00  0.00    +0.000 OA
ATOM     15  N   UNL     1       6.920   5.516  16.925  0.00  0.00    +0.000 N 
ATOM     16  C   UNL     1       7.772   4.449  17.433  0.00  0.00    +0.000 C 
BRANCH  15  17
ATOM     17  C   UNL     1       7.200   5.993  15.568  0.00  0.00    +0.000 C 
BRANCH  17  18
ATOM     18  C   UNL     1       6.789   5.100  14.413  0.00  0.00    +0.000 A 
ATOM     19  C   UNL     1       7.551   4.907  13.255  0.00  0.00    +0.000 A 
ATOM     20  C   UNL     1       7.095   4.058  12.238  0.00  0.00    +0.000 A 
ATOM     21  C   UNL     1       5.872   3.402  12.357  0.00  0.00    +0.000 A 
ATOM     22  C   UNL     1       5.096   3.592  13.498  0.00  0.00    +0.000 A 
ATOM     23  C   UNL     1       5.553   4.433  14.514  0.00  0.00    +0.000 A 
ENDBRANCH  17  18
ENDBRANCH  15  17
ENDBRANCH   1  13
TORSDOF 4
ENDMDL
MODEL 5
REMARK VINA RESULT:      -7.2      4.844      7.470
REMARK  Name = 
REMARK  6 active torsions:
REMARK  status: ('A' for Active; 'I' for Inactive)
REMARK    1  A    between atoms: C_1  and  C_2
REMARK    2  A    between atoms: N_4  and  C_5
REMARK    3  A    between atoms: C_5  and  C_6
REMARK    4  A    between atoms: N_8  and  C_9
REMARK    5  A    between atoms: N_8  and  C_10
REMARK    6  A    between atoms: C_10  and  C_11
REMARK                            x       y       z     vdW  Elec       q    Type
REMARK                         _______ _______ _______ _____ _____    ______ ____
ROOT
ATOM      1  C   UNL     1       2.181   7.492  19.957  0.00  0.00    +0.000 C 
ENDROOT
BRANCH   1   5
ATOM      2  C   UNL     1       4.977   5.367  16.571  0.00  0.00    +0.000 C 
ATOM      3  C   UNL     1       3.960   5.328  17.668  0.00  0.00    +0.000 A 
ATOM      4  N   UNL     1       3.557   6.404  18.273  0.00  0.00    +0.000 NA
ATOM      5  N   UNL     1       2.596   6.277  19.274  0.00  0.00    +0.000 N 
ATOM      6  C   UNL     1       2.051   5.059  19.710  0.00  0.00    +0.000 A 
ATOM      7  O   UNL     1       1.231   4.981  20.624  0.00  0.00    +0.000 OA
ATOM      8  C   UNL     1       2.564   3.908  19.019  0.00  0.00    +0.000 A 
ATOM      9  C   UNL     1       2.302   2.562  19.178  0.00  0.00    +0.000 A 
ATOM     10  C   UNL     1       3.085   1.870  18.225  0.00  0.00    +0.000 A 
ATOM     11  C   UNL     1       3.808   2.812  17.524  0.00  0.00    +0.000 A 
ATOM     12  N   UNL     1       3.489   4.061  18.018  0.00  0.00    +0.000 N 
ENDBRANCH   1   5
BRANCH   1  13
ATOM     13  C   UNL     1       1.691   8.580  18.989  0.00  0.00    +0.000 C 
ATOM     14  O   UNL     1       2.081   8.620  17.820  0.00  0.00    +0.000 OA
ATOM     15  N   UNL     1       0.853   9.571  19.513  0.00  0.00    +0.000 N 
ATOM     16  C   UNL     1       0.309   9.571  20.864  0.00  0.00    +0.000 C 
BRANCH  15  17
ATOM     17  C   UNL     1       0.404  10.644  18.621  0.00  0.00    +0.000 C 
BRANCH  17  18
ATOM     18  C   UNL     1      -1.079  10.727  18.316  0.00  0.00    +0.000 A 
ATOM     19  C   UNL     1      -1.960  11.630  18.922  0.00  0.00    +0.000 A 
ATOM     20  C   UNL     1      -3.317  11.640  18.574  0.00  0.00    +0.000 A 
ATOM     21  C   UNL     1      -3.815  10.744  17.630  0.00  0.00    +0.000 A 
ATOM     22  C   UNL     1      -2.953   9.831  17.026  0.00  0.00    +0.000 A 
ATOM     23  C   UNL     1      -1.600   9.825  17.367  0.00  0.00    +0.000 A 
ENDBRANCH  17  18
ENDBRANCH  15  17
ENDBRANCH   1  13
TORSDOF 4
ENDMDL
MODEL 6
REMARK VINA RESULT:      -7.1      1.405      2.333
REMARK  Name = 
REMARK  6 active torsions:
REMARK  status: ('A' for Active; 'I' for Inactive)
REMARK    1  A    between atoms: C_1  and  C_2
REMARK    2  A    between atoms: N_4  and  C_5
REMARK    3  A    between atoms: C_5  and  C_6
REMARK    4  A    between atoms: N_8  and  C_9
REMARK    5  A    between atoms: N_8  and  C_10
REMARK    6  A    between atoms: C_10  and  C_11
REMARK                            x       y       z     vdW  Elec       q    Type
REMARK                         _______ _______ _______ _____ _____    ______ ____
ROOT
ATOM      1  C   UNL     1       5.725   5.466  19.088  0.00  0.00    +0.000 C 
ENDROOT
BRANCH   1   5
ATOM      2  C   UNL     1       1.228   6.155  20.850  0.00  0.00    +0.000 C 
ATOM      3  C   UNL     1       2.261   5.348  20.129  0.00  0.00    +0.000 A 
ATOM      4  N   UNL     1       3.476   5.777  19.960  0.00  0.00    +0.000 NA
ATOM      5  N   UNL     1       4.379   4.954  19.290  0.00  0.00    +0.000 N 
ATOM      6  C   UNL     1       4.063   3.699  18.743  0.00  0.00    +0.000 A 
ATOM      7  O   UNL     1       4.877   3.015  18.124  0.00  0.00    +0.000 OA
ATOM      8  C   UNL     1       2.696   3.302  18.940  0.00  0.00    +0.000 A 
ATOM      9  C   UNL     1       2.011   2.175  18.534  0.00  0.00    +0.000 A 
ATOM     10  C   UNL     1       0.685   2.301  19.006  0.00  0.00    +0.000 A 
ATOM     11  C   UNL     1       0.599   3.504  19.676  0.00  0.00    +0.000 A 
ATOM     12  N   UNL     1       1.834   4.117  19.628  0.00  0.00    +0.000 N 
ENDBRANCH   1   5
BRANCH   1  13
ATOM     13  C   UNL     1       5.940   6.028  17.674  0.00  0.00    +0.000 C 
ATOM     14  O   UNL     1       5.217   6.917  17.221  0.00  0.00    +0.000 OA
ATOM     15  N   UNL     1       6.935   5.429  16.894  0.00  0.00    +0.000 N 
ATOM     16  C   UNL     1       7.863   4.410  17.366  0.00  0.00    +0.000 C 
BRANCH  15  17
ATOM     17  C   UNL     1       7.135   5.918  15.527  0.00  0.00    +0.000 C 
BRANCH  17  18
ATOM     18  C   UNL     1       6.690   5.021  14.389  0.00  0.00    +0.000 A 
ATOM     19  C   UNL     1       5.503   4.278  14.387  0.00  0.00    +0.000 A 
ATOM     20  C   UNL     1       5.169   3.477  13.288  0.00  0.00    +0.000 A 
ATOM     21  C   UNL     1       6.015   3.396  12.184  0.00  0.00    +0.000 A 
ATOM     22  C   UNL     1       7.206   4.120  12.175  0.00  0.00    +0.000 A 
ATOM     23  C   UNL     1       7.536   4.923  13.267  0.00  0.00    +0.000 A 
ENDBRANCH  17  18
ENDBRANCH  15  17
ENDBRANCH   1  13
TORSDOF 4
ENDMDL
MODEL 7
REMARK VINA RESULT:      -7.1      5.785      8.063
REMARK  Name = 
REMARK  6 active torsions:
REMARK  status: ('A' for Active; 'I' for Inactive)
REMARK    1  A    between atoms: C_1  and  C_2
REMARK    2  A    between atoms: N_4  and  C_5
REMARK    3  A    between atoms: C_5  and  C_6
REMARK    4  A    between atoms: N_8  and  C_9
REMARK    5  A    between atoms: N_8  and  C_10
REMARK    6  A    between atoms: C_10  and  C_11
REMARK                            x       y       z     vdW  Elec       q    Type
REMARK                         _______ _______ _______ _____ _____    ______ ____
ROOT
ATOM      1  C   UNL     1       1.634   9.610  18.188  0.00  0.00    +0.000 C 
ENDROOT
BRANCH   1   5
ATOM      2  C   UNL     1      -3.143   9.825  17.224  0.00  0.00    +0.000 C 
ATOM      3  C   UNL     1      -1.911  10.288  17.935  0.00  0.00    +0.000 A 
ATOM      4  N   UNL     1      -0.749   9.747  17.724  0.00  0.00    +0.000 NA
ATOM      5  N   UNL     1       0.349  10.250  18.419  0.00  0.00    +0.000 N 
ATOM      6  C   UNL     1       0.290  11.284  19.368  0.00  0.00    +0.000 A 
ATOM      7  O   UNL     1       1.275  11.679  19.990  0.00  0.00    +0.000 OA
ATOM      8  C   UNL     1      -1.030  11.816  19.572  0.00  0.00    +0.000 A 
ATOM      9  C   UNL     1      -1.490  12.798  20.425  0.00  0.00    +0.000 A 
ATOM     10  C   UNL     1      -2.881  12.920  20.208  0.00  0.00    +0.000 A 
ATOM     11  C   UNL     1      -3.229  12.001  19.239  0.00  0.00    +0.000 A 
ATOM     12  N   UNL     1      -2.090  11.322  18.856  0.00  0.00    +0.000 N 
ENDBRANCH   1   5
BRANCH   1  13
ATOM     13  C   UNL     1       1.881   8.418  19.127  0.00  0.00    +0.000 C 
ATOM     14  O   UNL     1       1.334   8.347  20.229  0.00  0.00    +0.000 OA
ATOM     15  N   UNL     1       2.816   7.463  18.713  0.00  0.00    +0.000 N 
ATOM     16  C   UNL     1       3.469   7.446  17.411  0.00  0.00    +0.000 C 
BRANCH  15  17
ATOM     17  C   UNL     1       3.101   6.337  19.607  0.00  0.00    +0.000 C 
BRANCH  17  18
ATOM     18  C   UNL     1       2.289   5.071  19.420  0.00  0.00    +0.000 A 
ATOM     19  C   UNL     1       2.072   4.446  18.186  0.00  0.00    +0.000 A 
ATOM     20  C   UNL     1       1.311   3.273  18.108  0.00  0.00    +0.000 A 
ATOM     21  C   UNL     1       0.747   2.714  19.253  0.00  0.00    +0.000 A 
ATOM     22  C   UNL     1       0.943   3.329  20.488  0.00  0.00    +0.000 A 
ATOM     23  C   UNL     1       1.708   4.495  20.567  0.00  0.00    +0.000 A 
ENDBRANCH  17  18
ENDBRANCH  15  17
ENDBRANCH   1  13
TORSDOF 4
ENDMDL
MODEL 8
REMARK VINA RESULT:      -7.1      1.408      2.537
REMARK  Name = 
REMARK  6 active torsions:
REMARK  status: ('A' for Active; 'I' for Inactive)
REMARK    1  A    between atoms: C_1  and  C_2
REMARK    2  A    between atoms: N_4  and  C_5
REMARK    3  A    between atoms: C_5  and  C_6
REMARK    4  A    between atoms: N_8  and  C_9
REMARK    5  A    between atoms: N_8  and  C_10
REMARK    6  A    between atoms: C_10  and  C_11
REMARK                            x       y       z     vdW  Elec       q    Type
REMARK                         _______ _______ _______ _____ _____    ______ ____
ROOT
ATOM      1  C   UNL     1       5.719   5.397  19.072  0.00  0.00    +0.000 C 
ENDROOT
BRANCH   1   5
ATOM      2  C   UNL     1       1.244   6.133  20.872  0.00  0.00    +0.000 C 
ATOM      3  C   UNL     1       2.262   5.318  20.137  0.00  0.00    +0.000 A 
ATOM      4  N   UNL     1       3.481   5.731  19.963  0.00  0.00    +0.000 NA
ATOM      5  N   UNL     1       4.367   4.901  19.280  0.00  0.00    +0.000 N 
ATOM      6  C   UNL     1       4.031   3.656  18.724  0.00  0.00    +0.000 A 
ATOM      7  O   UNL     1       4.830   2.967  18.094  0.00  0.00    +0.000 OA
ATOM      8  C   UNL     1       2.659   3.277  18.927  0.00  0.00    +0.000 A 
ATOM      9  C   UNL     1       1.956   2.164  18.516  0.00  0.00    +0.000 A 
ATOM     10  C   UNL     1       0.634   2.303  18.999  0.00  0.00    +0.000 A 
ATOM     11  C   UNL     1       0.570   3.502  19.679  0.00  0.00    +0.000 A 
ATOM     12  N   UNL     1       1.813   4.098  19.628  0.00  0.00    +0.000 N 
ENDBRANCH   1   5
BRANCH   1  13
ATOM     13  C   UNL     1       5.917   6.018  17.681  0.00  0.00    +0.000 C 
ATOM     14  O   UNL     1       5.198   6.936  17.281  0.00  0.00    +0.000 OA
ATOM     15  N   UNL     1       6.890   5.442  16.857  0.00  0.00    +0.000 N 
ATOM     16  C   UNL     1       7.812   4.391  17.267  0.00  0.00    +0.000 C 
BRANCH  15  17
ATOM     17  C   UNL     1       7.072   5.989  15.510  0.00  0.00    +0.000 C 
BRANCH  17  18
ATOM     18  C   UNL     1       6.745   5.086  14.337  0.00  0.00    +0.000 A 
ATOM     19  C   UNL     1       7.550   4.944  13.201  0.00  0.00    +0.000 A 
ATOM     20  C   UNL     1       7.171   4.081  12.165  0.00  0.00    +0.000 A 
ATOM     21  C   UNL     1       5.982   3.359  12.242  0.00  0.00    +0.000 A 
ATOM     22  C   UNL     1       5.163   3.497  13.360  0.00  0.00    +0.000 A 
ATOM     23  C   UNL     1       5.544   4.352  14.396  0.00  0.00    +0.000 A 
ENDBRANCH  17  18
ENDBRANCH  15  17
ENDBRANCH   1  13
TORSDOF 4
ENDMDL
MODEL 9
REMARK VINA RESULT:      -7.1      1.882      2.835
REMARK  Name = 
REMARK  6 active torsions:
REMARK  status: ('A' for Active; 'I' for Inactive)
REMARK    1  A    between atoms: C_1  and  C_2
REMARK    2  A    between atoms: N_4  and  C_5
REMARK    3  A    between atoms: C_5  and  C_6
REMARK    4  A    between atoms: N_8  and  C_9
REMARK    5  A    between atoms: N_8  and  C_10
REMARK    6  A    between atoms: C_10  and  C_11
REMARK                            x       y       z     vdW  Elec       q    Type
REMARK                         _______ _______ _______ _____ _____    ______ ____
ROOT
ATOM      1  C   UNL     1       6.784   4.909  17.832  0.00  0.00    +0.000 C 
ENDROOT
BRANCH   1   5
ATOM      2  C   UNL     1       2.907   7.870  17.872  0.00  0.00    +0.000 C 
ATOM      3  C   UNL     1       3.645   6.644  18.309  0.00  0.00    +0.000 A 
ATOM      4  N   UNL     1       4.839   6.368  17.879  0.00  0.00    +0.000 NA
ATOM      5  N   UNL     1       5.459   5.213  18.349  0.00  0.00    +0.000 N 
ATOM      6  C   UNL     1       4.871   4.293  19.234  0.00  0.00    +0.000 A 
ATOM      7  O   UNL     1       5.435   3.263  19.599  0.00  0.00    +0.000 OA
ATOM      8  C   UNL     1       3.540   4.646  19.644  0.00  0.00    +0.000 A 
ATOM      9  C   UNL     1       2.642   3.995  20.465  0.00  0.00    +0.000 A 
ATOM     10  C   UNL     1       1.478   4.795  20.527  0.00  0.00    +0.000 A 
ATOM     11  C   UNL     1       1.697   5.902  19.732  0.00  0.00    +0.000 A 
ATOM     12  N   UNL     1       2.962   5.803  19.189  0.00  0.00    +0.000 N 
ENDBRANCH   1   5
BRANCH   1  13
ATOM     13  C   UNL     1       6.963   5.340  16.368  0.00  0.00    +0.000 C 
ATOM     14  O   UNL     1       7.568   6.373  16.074  0.00  0.00    +0.000 OA
ATOM     15  N   UNL     1       6.338   4.557  15.391  0.00  0.00    +0.000 N 
ATOM     16  C   UNL     1       5.646   3.301  15.648  0.00  0.00    +0.000 C 
BRANCH  15  17
ATOM     17  C   UNL     1       6.458   4.968  13.990  0.00  0.00    +0.000 C 
BRANCH  17  18
ATOM     18  C   UNL     1       6.146   3.933  12.927  0.00  0.00    +0.000 A 
ATOM     19  C   UNL     1       4.860   3.652  12.452  0.00  0.00    +0.000 A 
ATOM     20  C   UNL     1       4.665   2.680  11.461  0.00  0.00    +0.000 A 
ATOM     21  C   UNL     1       5.745   1.971  10.941  0.00  0.00    +0.000 A 
ATOM     22  C   UNL     1       7.030   2.230  11.411  0.00  0.00    +0.000 A 
ATOM     23  C   UNL     1       7.226   3.203  12.393  0.00  0.00    +0.000 A 
ENDBRANCH  17  18
ENDBRANCH  15  17
ENDBRANCH   1  13
TORSDOF 4
ENDMDL
