MODEL 1
REMARK VINA RESULT:      -6.6      0.000      0.000
REMARK  Name = 
REMARK  9 active torsions:
REMARK  status: ('A' for Active; 'I' for Inactive)
REMARK    1  A    between atoms: C_1  and  C_2
REMARK    2  A    between atoms: C_2  and  C_3
REMARK    3  A    between atoms: C_6  and  S_7
REMARK    4  A    between atoms: S_7  and  C_8
REMARK    5  A    between atoms: C_8  and  C_9
REMARK    6  A    between atoms: C_12  and  C_13
REMARK    7  A    between atoms: C_13  and  O_15
REMARK    8  A    between atoms: O_15  and  C_16
REMARK    9  A    between atoms: N_18  and  N_19
REMARK                            x       y       z     vdW  Elec       q    Type
REMARK                         _______ _______ _______ _____ _____    ______ ____
ROOT
ATOM      1  S   UNL     1       7.506   4.620  17.786  0.00  0.00    +0.000 S 
ENDROOT
BRANCH   1   5
ATOM      2  C   UNL     1       6.301   4.256  14.112  0.00  0.00    +0.000 A 
ATOM      3  N   UNL     1       7.091   5.308  14.000  0.00  0.00    +0.000 NA
ATOM      4  N   UNL     1       7.617   5.589  15.240  0.00  0.00    +0.000 NA
ATOM      5  C   UNL     1       7.139   4.708  16.089  0.00  0.00    +0.000 A 
ATOM      6  N   UNL     1       6.285   3.850  15.431  0.00  0.00    +0.000 N 
BRANCH   6   7
ATOM      7  N   UNL     1       5.522   2.758  15.968  0.00  0.00    +0.000 N 
ATOM      8  H   UNL     1       6.125   2.122  16.491  0.00  0.00    +0.000 HD
ATOM      9  H   UNL     1       4.825   3.081  16.637  0.00  0.00    +0.000 HD
ENDBRANCH   6   7
BRANCH   2  11
ATOM     10  C   UNL     1       6.482   3.145  11.884  0.00  0.00    +0.000 C 
ATOM     11  C   UNL     1       5.557   3.596  13.004  0.00  0.00    +0.000 C 
ENDBRANCH   2  11
ENDBRANCH   1   5
BRANCH   1  12
ATOM     12  C   UNL     1       6.358   5.886  18.430  0.00  0.00    +0.000 C 
BRANCH  12  13
ATOM     13  C   UNL     1       4.924   5.483  18.305  0.00  0.00    +0.000 A 
ATOM     14  C   UNL     1       3.782   6.162  17.925  0.00  0.00    +0.000 A 
ATOM     15  C   UNL     1       2.730   5.214  17.917  0.00  0.00    +0.000 A 
ATOM     16  C   UNL     1       3.279   4.000  18.285  0.00  0.00    +0.000 A 
ATOM     17  O   UNL     1       4.623   4.167  18.519  0.00  0.00    +0.000 OA
BRANCH  16  18
ATOM     18  C   UNL     1       2.656   2.696  18.428  0.00  0.00    +0.000 C 
ATOM     19  O   UNL     1       3.089   1.652  17.960  0.00  0.00    +0.000 OA
BRANCH  18  20
ATOM     20  O   UNL     1       1.512   2.799  19.164  0.00  0.00    +0.000 OA
ATOM     21  C   UNL     1       1.703   2.678  20.573  0.00  0.00    +0.000 C 
ENDBRANCH  18  20
ENDBRANCH  16  18
ENDBRANCH  12  13
ENDBRANCH   1  12
TORSDOF 7
ENDMDL
MODEL 2
REMARK VINA RESULT:      -6.5      1.203      1.456
REMARK  Name = 
REMARK  9 active torsions:
REMARK  status: ('A' for Active; 'I' for Inactive)
REMARK    1  A    between atoms: C_1  and  C_2
REMARK    2  A    between atoms: C_2  and  C_3
REMARK    3  A    between atoms: C_6  and  S_7
REMARK    4  A    between atoms: S_7  and  C_8
REMARK    5  A    between atoms: C_8  and  C_9
REMARK    6  A    between atoms: C_12  and  C_13
REMARK    7  A    between atoms: C_13  and  O_15
REMARK    8  A    between atoms: O_15  and  C_16
REMARK    9  A    between atoms: N_18  and  N_19
REMARK                            x       y       z     vdW  Elec       q    Type
REMARK                         _______ _______ _______ _____ _____    ______ ____
ROOT
ATOM      1  S   UNL     1       7.081   5.447  17.054  0.00  0.00    +0.000 S 
ENDROOT
BRANCH   1   5
ATOM      2  C   UNL     1       6.684   4.055  13.450  0.00  0.00    +0.000 A 
ATOM      3  N   UNL     1       7.470   5.090  13.219  0.00  0.00    +0.000 NA
ATOM      4  N   UNL     1       7.719   5.720  14.417  0.00  0.00    +0.000 NA
ATOM      5  C   UNL     1       7.081   5.062  15.358  0.00  0.00    +0.000 A 
ATOM      6  N   UNL     1       6.393   4.008  14.798  0.00  0.00    +0.000 N 
BRANCH   6   7
ATOM      7  N   UNL     1       5.545   3.046  15.445  0.00  0.00    +0.000 N 
ATOM      8  H   UNL     1       6.094   2.258  15.789  0.00  0.00    +0.000 HD
ATOM      9  H   UNL     1       5.092   3.441  16.268  0.00  0.00    +0.000 HD
ENDBRANCH   6   7
BRANCH   2  11
ATOM     10  C   UNL     1       4.808   3.430  11.926  0.00  0.00    +0.000 C 
ATOM     11  C   UNL     1       6.198   3.079  12.435  0.00  0.00    +0.000 C 
ENDBRANCH   2  11
ENDBRANCH   1   5
BRANCH   1  12
ATOM     12  C   UNL     1       5.847   6.793  17.079  0.00  0.00    +0.000 C 
BRANCH  12  13
ATOM     13  C   UNL     1       4.500   6.334  17.535  0.00  0.00    +0.000 A 
ATOM     14  C   UNL     1       3.395   6.997  18.031  0.00  0.00    +0.000 A 
ATOM     15  C   UNL     1       2.379   6.024  18.200  0.00  0.00    +0.000 A 
ATOM     16  C   UNL     1       2.909   4.815  17.791  0.00  0.00    +0.000 A 
ATOM     17  O   UNL     1       4.207   5.007  17.382  0.00  0.00    +0.000 OA
BRANCH  16  18
ATOM     18  C   UNL     1       2.303   3.495  17.742  0.00  0.00    +0.000 C 
ATOM     19  O   UNL     1       1.115   3.258  17.912  0.00  0.00    +0.000 OA
BRANCH  18  20
ATOM     20  O   UNL     1       3.253   2.552  17.477  0.00  0.00    +0.000 OA
ATOM     21  C   UNL     1       3.469   1.619  18.535  0.00  0.00    +0.000 C 
ENDBRANCH  18  20
ENDBRANCH  16  18
ENDBRANCH  12  13
ENDBRANCH   1  12
TORSDOF 7
ENDMDL
MODEL 3
REMARK VINA RESULT:      -6.4      0.907      1.278
REMARK  Name = 
REMARK  9 active torsions:
REMARK  status: ('A' for Active; 'I' for Inactive)
REMARK    1  A    between atoms: C_1  and  C_2
REMARK    2  A    between atoms: C_2  and  C_3
REMARK    3  A    between atoms: C_6  and  S_7
REMARK    4  A    between atoms: S_7  and  C_8
REMARK    5  A    between atoms: C_8  and  C_9
REMARK    6  A    between atoms: C_12  and  C_13
REMARK    7  A    between atoms: C_13  and  O_15
REMARK    8  A    between atoms: O_15  and  C_16
REMARK    9  A    between atoms: N_18  and  N_19
REMARK                            x       y       z     vdW  Elec       q    Type
REMARK                         _______ _______ _______ _____ _____    ______ ____
ROOT
ATOM      1  S   UNL     1       6.887   4.902  18.135  0.00  0.00    +0.000 S 
ENDROOT
BRANCH   1   5
ATOM      2  C   UNL     1       6.551   4.339  14.307  0.00  0.00    +0.000 A 
ATOM      3  N   UNL     1       7.349   5.390  14.323  0.00  0.00    +0.000 NA
ATOM      4  N   UNL     1       7.580   5.739  15.634  0.00  0.00    +0.000 NA
ATOM      5  C   UNL     1       6.917   4.899  16.396  0.00  0.00    +0.000 A 
ATOM      6  N   UNL     1       6.232   4.002  15.606  0.00  0.00    +0.000 N 
BRANCH   6   7
ATOM      7  N   UNL     1       5.363   2.932  16.012  0.00  0.00    +0.000 N 
ATOM      8  H   UNL     1       4.820   2.591  15.218  0.00  0.00    +0.000 HD
ATOM      9  H   UNL     1       5.890   2.127  16.346  0.00  0.00    +0.000 HD
ENDBRANCH   6   7
BRANCH   2  11
ATOM     10  C   UNL     1       7.037   3.771  11.925  0.00  0.00    +0.000 C 
ATOM     11  C   UNL     1       6.076   3.616  13.094  0.00  0.00    +0.000 C 
ENDBRANCH   2  11
ENDBRANCH   1   5
BRANCH   1  12
ATOM     12  C   UNL     1       5.615   6.178  18.432  0.00  0.00    +0.000 C 
BRANCH  12  13
ATOM     13  C   UNL     1       4.281   5.596  18.775  0.00  0.00    +0.000 A 
ATOM     14  C   UNL     1       3.204   6.067  19.499  0.00  0.00    +0.000 A 
ATOM     15  C   UNL     1       2.185   5.088  19.394  0.00  0.00    +0.000 A 
ATOM     16  C   UNL     1       2.685   4.070  18.605  0.00  0.00    +0.000 A 
ATOM     17  O   UNL     1       3.968   4.384  18.225  0.00  0.00    +0.000 OA
BRANCH  16  18
ATOM     18  C   UNL     1       2.063   2.832  18.168  0.00  0.00    +0.000 C 
ATOM     19  O   UNL     1       0.867   2.585  18.225  0.00  0.00    +0.000 OA
BRANCH  18  20
ATOM     20  O   UNL     1       3.010   1.977  17.680  0.00  0.00    +0.000 OA
ATOM     21  C   UNL     1       3.656   1.183  18.674  0.00  0.00    +0.000 C 
ENDBRANCH  18  20
ENDBRANCH  16  18
ENDBRANCH  12  13
ENDBRANCH   1  12
TORSDOF 7
ENDMDL
MODEL 4
REMARK VINA RESULT:      -6.2      0.956      1.312
REMARK  Name = 
REMARK  9 active torsions:
REMARK  status: ('A' for Active; 'I' for Inactive)
REMARK    1  A    between atoms: C_1  and  C_2
REMARK    2  A    between atoms: C_2  and  C_3
REMARK    3  A    between atoms: C_6  and  S_7
REMARK    4  A    between atoms: S_7  and  C_8
REMARK    5  A    between atoms: C_8  and  C_9
REMARK    6  A    between atoms: C_12  and  C_13
REMARK    7  A    between atoms: C_13  and  O_15
REMARK    8  A    between atoms: O_15  and  C_16
REMARK    9  A    between atoms: N_18  and  N_19
REMARK                            x       y       z     vdW  Elec       q    Type
REMARK                         _______ _______ _______ _____ _____    ______ ____
ROOT
ATOM      1  S   UNL     1       7.555   4.747  17.801  0.00  0.00    +0.000 S 
ENDROOT
BRANCH   1   5
ATOM      2  C   UNL     1       6.258   4.245  14.174  0.00  0.00    +0.000 A 
ATOM      3  N   UNL     1       7.108   5.238  13.987  0.00  0.00    +0.000 NA
ATOM      4  N   UNL     1       7.675   5.557  15.200  0.00  0.00    +0.000 NA
ATOM      5  C   UNL     1       7.161   4.758  16.107  0.00  0.00    +0.000 A 
ATOM      6  N   UNL     1       6.243   3.918  15.514  0.00  0.00    +0.000 N 
BRANCH   6   7
ATOM      7  N   UNL     1       5.426   2.908  16.128  0.00  0.00    +0.000 N 
ATOM      8  H   UNL     1       4.718   2.573  15.473  0.00  0.00    +0.000 HD
ATOM      9  H   UNL     1       5.973   2.086  16.380  0.00  0.00    +0.000 HD
ENDBRANCH   6   7
BRANCH   2  11
ATOM     10  C   UNL     1       6.307   3.149  11.932  0.00  0.00    +0.000 C 
ATOM     11  C   UNL     1       5.454   3.569  13.119  0.00  0.00    +0.000 C 
ENDBRANCH   2  11
ENDBRANCH   1   5
BRANCH   1  12
ATOM     12  C   UNL     1       6.554   6.163  18.374  0.00  0.00    +0.000 C 
BRANCH  12  13
ATOM     13  C   UNL     1       5.091   5.859  18.412  0.00  0.00    +0.000 A 
ATOM     14  C   UNL     1       4.045   6.144  17.556  0.00  0.00    +0.000 A 
ATOM     15  C   UNL     1       2.898   5.509  18.092  0.00  0.00    +0.000 A 
ATOM     16  C   UNL     1       3.298   4.860  19.244  0.00  0.00    +0.000 A 
ATOM     17  O   UNL     1       4.642   5.074  19.437  0.00  0.00    +0.000 OA
BRANCH  16  18
ATOM     18  C   UNL     1       2.533   4.050  20.176  0.00  0.00    +0.000 C 
ATOM     19  O   UNL     1       1.781   4.485  21.036  0.00  0.00    +0.000 OA
BRANCH  18  20
ATOM     20  O   UNL     1       2.773   2.724  19.954  0.00  0.00    +0.000 OA
ATOM     21  C   UNL     1       1.749   2.053  19.222  0.00  0.00    +0.000 C 
ENDBRANCH  18  20
ENDBRANCH  16  18
ENDBRANCH  12  13
ENDBRANCH   1  12
TORSDOF 7
ENDMDL
MODEL 5
REMARK VINA RESULT:      -6.1      1.224      1.320
REMARK  Name = 
REMARK  9 active torsions:
REMARK  status: ('A' for Active; 'I' for Inactive)
REMARK    1  A    between atoms: C_1  and  C_2
REMARK    2  A    between atoms: C_2  and  C_3
REMARK    3  A    between atoms: C_6  and  S_7
REMARK    4  A    between atoms: S_7  and  C_8
REMARK    5  A    between atoms: C_8  and  C_9
REMARK    6  A    between atoms: C_12  and  C_13
REMARK    7  A    between atoms: C_13  and  O_15
REMARK    8  A    between atoms: O_15  and  C_16
REMARK    9  A    between atoms: N_18  and  N_19
REMARK                            x       y       z     vdW  Elec       q    Type
REMARK                         _______ _______ _______ _____ _____    ______ ____
ROOT
ATOM      1  S   UNL     1       7.308   5.207  17.275  0.00  0.00    +0.000 S 
ENDROOT
BRANCH   1   5
ATOM      2  C   UNL     1       6.666   4.079  13.614  0.00  0.00    +0.000 A 
ATOM      3  N   UNL     1       7.420   5.142  13.406  0.00  0.00    +0.000 NA
ATOM      4  N   UNL     1       7.748   5.686  14.626  0.00  0.00    +0.000 NA
ATOM      5  C   UNL     1       7.189   4.949  15.559  0.00  0.00    +0.000 A 
ATOM      6  N   UNL     1       6.475   3.928  14.972  0.00  0.00    +0.000 N 
BRANCH   6   7
ATOM      7  N   UNL     1       5.688   2.905  15.605  0.00  0.00    +0.000 N 
ATOM      8  H   UNL     1       6.013   2.741  16.558  0.00  0.00    +0.000 HD
ATOM      9  H   UNL     1       4.713   3.186  15.696  0.00  0.00    +0.000 HD
ENDBRANCH   6   7
BRANCH   2  11
ATOM     10  C   UNL     1       4.723   3.588  12.125  0.00  0.00    +0.000 C 
ATOM     11  C   UNL     1       6.119   3.173  12.567  0.00  0.00    +0.000 C 
ENDBRANCH   2  11
ENDBRANCH   1   5
BRANCH   1  12
ATOM     12  C   UNL     1       5.749   6.110  17.574  0.00  0.00    +0.000 C 
BRANCH  12  13
ATOM     13  C   UNL     1       4.639   5.214  18.020  0.00  0.00    +0.000 A 
ATOM     14  C   UNL     1       3.346   5.020  17.576  0.00  0.00    +0.000 A 
ATOM     15  C   UNL     1       2.805   3.963  18.348  0.00  0.00    +0.000 A 
ATOM     16  C   UNL     1       3.795   3.555  19.221  0.00  0.00    +0.000 A 
ATOM     17  O   UNL     1       4.918   4.321  19.018  0.00  0.00    +0.000 OA
BRANCH  16  18
ATOM     18  C   UNL     1       3.785   2.505  20.225  0.00  0.00    +0.000 C 
ATOM     19  O   UNL     1       4.741   1.804  20.523  0.00  0.00    +0.000 OA
BRANCH  18  20
ATOM     20  O   UNL     1       2.547   2.411  20.794  0.00  0.00    +0.000 OA
ATOM     21  C   UNL     1       2.218   3.486  21.673  0.00  0.00    +0.000 C 
ENDBRANCH  18  20
ENDBRANCH  16  18
ENDBRANCH  12  13
ENDBRANCH   1  12
TORSDOF 7
ENDMDL
MODEL 6
REMARK VINA RESULT:      -6.0      1.495      1.756
REMARK  Name = 
REMARK  9 active torsions:
REMARK  status: ('A' for Active; 'I' for Inactive)
REMARK    1  A    between atoms: C_1  and  C_2
REMARK    2  A    between atoms: C_2  and  C_3
REMARK    3  A    between atoms: C_6  and  S_7
REMARK    4  A    between atoms: S_7  and  C_8
REMARK    5  A    between atoms: C_8  and  C_9
REMARK    6  A    between atoms: C_12  and  C_13
REMARK    7  A    between atoms: C_13  and  O_15
REMARK    8  A    between atoms: O_15  and  C_16
REMARK    9  A    between atoms: N_18  and  N_19
REMARK                            x       y       z     vdW  Elec       q    Type
REMARK                         _______ _______ _______ _____ _____    ______ ____
ROOT
ATOM      1  S   UNL     1       5.875   5.597  18.383  0.00  0.00    +0.000 S 
ENDROOT
BRANCH   1   5
ATOM      2  C   UNL     1       6.273   4.485  14.683  0.00  0.00    +0.000 A 
ATOM      3  N   UNL     1       7.295   5.314  14.793  0.00  0.00    +0.000 NA
ATOM      4  N   UNL     1       7.307   5.818  16.073  0.00  0.00    +0.000 NA
ATOM      5  C   UNL     1       6.294   5.292  16.723  0.00  0.00    +0.000 A 
ATOM      6  N   UNL     1       5.594   4.454  15.883  0.00  0.00    +0.000 N 
BRANCH   6   7
ATOM      7  N   UNL     1       4.406   3.694  16.161  0.00  0.00    +0.000 N 
ATOM      8  H   UNL     1       4.624   2.893  16.755  0.00  0.00    +0.000 HD
ATOM      9  H   UNL     1       3.725   4.242  16.684  0.00  0.00    +0.000 HD
ENDBRANCH   6   7
BRANCH   2  11
ATOM     10  C   UNL     1       6.904   3.899  12.339  0.00  0.00    +0.000 C 
ATOM     11  C   UNL     1       5.912   3.694  13.474  0.00  0.00    +0.000 C 
ENDBRANCH   2  11
ENDBRANCH   1   5
BRANCH   1  12
ATOM     12  C   UNL     1       4.316   6.520  18.157  0.00  0.00    +0.000 C 
BRANCH  12  13
ATOM     13  C   UNL     1       3.209   6.006  19.020  0.00  0.00    +0.000 A 
ATOM     14  C   UNL     1       2.388   6.602  19.957  0.00  0.00    +0.000 A 
ATOM     15  C   UNL     1       1.465   5.613  20.376  0.00  0.00    +0.000 A 
ATOM     16  C   UNL     1       1.760   4.462  19.670  0.00  0.00    +0.000 A 
ATOM     17  O   UNL     1       2.827   4.706  18.839  0.00  0.00    +0.000 OA
BRANCH  16  18
ATOM     18  C   UNL     1       1.125   3.156  19.700  0.00  0.00    +0.000 C 
ATOM     19  O   UNL     1       0.724   2.544  18.721  0.00  0.00    +0.000 OA
BRANCH  18  20
ATOM     20  O   UNL     1       1.040   2.704  20.986  0.00  0.00    +0.000 OA
ATOM     21  C   UNL     1       2.294   2.592  21.657  0.00  0.00    +0.000 C 
ENDBRANCH  18  20
ENDBRANCH  16  18
ENDBRANCH  12  13
ENDBRANCH   1  12
TORSDOF 7
ENDMDL
MODEL 7
REMARK VINA RESULT:      -5.8      1.522      1.934
REMARK  Name = 
REMARK  9 active torsions:
REMARK  status: ('A' for Active; 'I' for Inactive)
REMARK    1  A    between atoms: C_1  and  C_2
REMARK    2  A    between atoms: C_2  and  C_3
REMARK    3  A    between atoms: C_6  and  S_7
REMARK    4  A    between atoms: S_7  and  C_8
REMARK    5  A    between atoms: C_8  and  C_9
REMARK    6  A    between atoms: C_12  and  C_13
REMARK    7  A    between atoms: C_13  and  O_15
REMARK    8  A    between atoms: O_15  and  C_16
REMARK    9  A    between atoms: N_18  and  N_19
REMARK                            x       y       z     vdW  Elec       q    Type
REMARK                         _______ _______ _______ _____ _____    ______ ____
ROOT
ATOM      1  S   UNL     1       5.893   5.792  18.196  0.00  0.00    +0.000 S 
ENDROOT
BRANCH   1   5
ATOM      2  C   UNL     1       6.455   4.536  14.564  0.00  0.00    +0.000 A 
ATOM      3  N   UNL     1       7.448   5.399  14.673  0.00  0.00    +0.000 NA
ATOM      4  N   UNL     1       7.400   5.957  15.929  0.00  0.00    +0.000 NA
ATOM      5  C   UNL     1       6.380   5.430  16.566  0.00  0.00    +0.000 A 
ATOM      6  N   UNL     1       5.734   4.535  15.740  0.00  0.00    +0.000 N 
BRANCH   6   7
ATOM      7  N   UNL     1       4.559   3.753  16.011  0.00  0.00    +0.000 N 
ATOM      8  H   UNL     1       3.843   3.927  15.304  0.00  0.00    +0.000 HD
ATOM      9  H   UNL     1       4.754   2.755  15.960  0.00  0.00    +0.000 HD
ENDBRANCH   6   7
BRANCH   2  11
ATOM     10  C   UNL     1       7.022   4.051  12.181  0.00  0.00    +0.000 C 
ATOM     11  C   UNL     1       6.159   3.683  13.379  0.00  0.00    +0.000 C 
ENDBRANCH   2  11
ENDBRANCH   1   5
BRANCH   1  12
ATOM     12  C   UNL     1       4.252   6.530  17.886  0.00  0.00    +0.000 C 
BRANCH  12  13
ATOM     13  C   UNL     1       3.247   6.165  18.929  0.00  0.00    +0.000 A 
ATOM     14  C   UNL     1       2.478   6.910  19.802  0.00  0.00    +0.000 A 
ATOM     15  C   UNL     1       1.642   5.995  20.489  0.00  0.00    +0.000 A 
ATOM     16  C   UNL     1       1.933   4.737  19.999  0.00  0.00    +0.000 A 
ATOM     17  O   UNL     1       2.915   4.843  19.042  0.00  0.00    +0.000 OA
BRANCH  16  18
ATOM     18  C   UNL     1       1.367   3.444  20.342  0.00  0.00    +0.000 C 
ATOM     19  O   UNL     1       1.336   2.963  21.465  0.00  0.00    +0.000 OA
BRANCH  18  20
ATOM     20  O   UNL     1       0.871   2.837  19.224  0.00  0.00    +0.000 OA
ATOM     21  C   UNL     1       1.652   1.741  18.751  0.00  0.00    +0.000 C 
ENDBRANCH  18  20
ENDBRANCH  16  18
ENDBRANCH  12  13
ENDBRANCH   1  12
TORSDOF 7
ENDMDL
MODEL 8
REMARK VINA RESULT:      -5.8      3.178      6.192
REMARK  Name = 
REMARK  9 active torsions:
REMARK  status: ('A' for Active; 'I' for Inactive)
REMARK    1  A    between atoms: C_1  and  C_2
REMARK    2  A    between atoms: C_2  and  C_3
REMARK    3  A    between atoms: C_6  and  S_7
REMARK    4  A    between atoms: S_7  and  C_8
REMARK    5  A    between atoms: C_8  and  C_9
REMARK    6  A    between atoms: C_12  and  C_13
REMARK    7  A    between atoms: C_13  and  O_15
REMARK    8  A    between atoms: O_15  and  C_16
REMARK    9  A    between atoms: N_18  and  N_19
REMARK                            x       y       z     vdW  Elec       q    Type
REMARK                         _______ _______ _______ _____ _____    ______ ____
ROOT
ATOM      1  S   UNL     1       5.685   5.897  16.379  0.00  0.00    +0.000 S 
ENDROOT
BRANCH   1   5
ATOM      2  C   UNL     1       4.221   3.254  18.819  0.00  0.00    +0.000 A 
ATOM      3  N   UNL     1       3.389   3.124  17.802  0.00  0.00    +0.000 NA
ATOM      4  N   UNL     1       3.766   4.010  16.819  0.00  0.00    +0.000 NA
ATOM      5  C   UNL     1       4.818   4.668  17.252  0.00  0.00    +0.000 A 
ATOM      6  N   UNL     1       5.137   4.241  18.522  0.00  0.00    +0.000 N 
BRANCH   6   7
ATOM      7  N   UNL     1       6.191   4.702  19.383  0.00  0.00    +0.000 N 
ATOM      8  H   UNL     1       7.100   4.397  19.033  0.00  0.00    +0.000 HD
ATOM      9  H   UNL     1       6.237   5.719  19.407  0.00  0.00    +0.000 HD
ENDBRANCH   6   7
BRANCH   2  11
ATOM     10  C   UNL     1       2.913   2.679  20.866  0.00  0.00    +0.000 C 
ATOM     11  C   UNL     1       4.196   2.461  20.079  0.00  0.00    +0.000 C 
ENDBRANCH   2  11
ENDBRANCH   1   5
BRANCH   1  12
ATOM     12  C   UNL     1       7.086   4.913  15.743  0.00  0.00    +0.000 C 
BRANCH  12  13
ATOM     13  C   UNL     1       6.986   4.645  14.277  0.00  0.00    +0.000 A 
ATOM     14  C   UNL     1       7.719   5.072  13.187  0.00  0.00    +0.000 A 
ATOM     15  C   UNL     1       7.195   4.399  12.056  0.00  0.00    +0.000 A 
ATOM     16  C   UNL     1       6.172   3.588  12.508  0.00  0.00    +0.000 A 
ATOM     17  O   UNL     1       6.047   3.738  13.869  0.00  0.00    +0.000 OA
BRANCH  16  18
ATOM     18  C   UNL     1       5.306   2.677  11.779  0.00  0.00    +0.000 C 
ATOM     19  O   UNL     1       5.658   1.619  11.277  0.00  0.00    +0.000 OA
BRANCH  18  20
ATOM     20  O   UNL     1       4.035   3.172  11.735  0.00  0.00    +0.000 OA
ATOM     21  C   UNL     1       3.540   3.411  10.418  0.00  0.00    +0.000 C 
ENDBRANCH  18  20
ENDBRANCH  16  18
ENDBRANCH  12  13
ENDBRANCH   1  12
TORSDOF 7
ENDMDL
MODEL 9
REMARK VINA RESULT:      -5.8      2.912      4.625
REMARK  Name = 
REMARK  9 active torsions:
REMARK  status: ('A' for Active; 'I' for Inactive)
REMARK    1  A    between atoms: C_1  and  C_2
REMARK    2  A    between atoms: C_2  and  C_3
REMARK    3  A    between atoms: C_6  and  S_7
REMARK    4  A    between atoms: S_7  and  C_8
REMARK    5  A    between atoms: C_8  and  C_9
REMARK    6  A    between atoms: C_12  and  C_13
REMARK    7  A    between atoms: C_13  and  O_15
REMARK    8  A    between atoms: O_15  and  C_16
REMARK    9  A    between atoms: N_18  and  N_19
REMARK                            x       y       z     vdW  Elec       q    Type
REMARK                         _______ _______ _______ _____ _____    ______ ____
ROOT
ATOM      1  S   UNL     1       4.472   3.696  17.166  0.00  0.00    +0.000 S 
ENDROOT
BRANCH   1   5
ATOM      2  C   UNL     1       7.037   6.603  17.395  0.00  0.00    +0.000 A 
ATOM      3  N   UNL     1       7.843   5.566  17.524  0.00  0.00    +0.000 NA
ATOM      4  N   UNL     1       7.084   4.419  17.467  0.00  0.00    +0.000 NA
ATOM      5  C   UNL     1       5.829   4.774  17.308  0.00  0.00    +0.000 A 
ATOM      6  N   UNL     1       5.741   6.148  17.274  0.00  0.00    +0.000 N 
BRANCH   6   7
ATOM      7  N   UNL     1       4.567   6.968  17.143  0.00  0.00    +0.000 N 
ATOM      8  H   UNL     1       3.905   6.767  17.893  0.00  0.00    +0.000 HD
ATOM      9  H   UNL     1       4.790   7.957  17.235  0.00  0.00    +0.000 HD
ENDBRANCH   6   7
BRANCH   2  11
ATOM     10  C   UNL     1       8.448   8.364  18.464  0.00  0.00    +0.000 C 
ATOM     11  C   UNL     1       7.448   8.034  17.366  0.00  0.00    +0.000 C 
ENDBRANCH   2  11
ENDBRANCH   1   5
BRANCH   1  12
ATOM     12  C   UNL     1       4.192   3.298  18.926  0.00  0.00    +0.000 C 
BRANCH  12  13
ATOM     13  C   UNL     1       3.140   4.156  19.552  0.00  0.00    +0.000 A 
ATOM     14  C   UNL     1       2.123   3.897  20.450  0.00  0.00    +0.000 A 
ATOM     15  C   UNL     1       1.510   5.142  20.738  0.00  0.00    +0.000 A 
ATOM     16  C   UNL     1       2.185   6.102  20.009  0.00  0.00    +0.000 A 
ATOM     17  O   UNL     1       3.185   5.496  19.285  0.00  0.00    +0.000 OA
BRANCH  16  18
ATOM     18  C   UNL     1       1.982   7.538  19.937  0.00  0.00    +0.000 C 
ATOM     19  O   UNL     1       1.600   8.244  20.859  0.00  0.00    +0.000 OA
BRANCH  18  20
ATOM     20  O   UNL     1       2.282   7.993  18.685  0.00  0.00    +0.000 OA
ATOM     21  C   UNL     1       1.634   9.213  18.329  0.00  0.00    +0.000 C 
ENDBRANCH  18  20
ENDBRANCH  16  18
ENDBRANCH  12  13
ENDBRANCH   1  12
TORSDOF 7
ENDMDL
