MODEL 1
REMARK VINA RESULT:      -8.4      0.000      0.000
REMARK  Name = 
REMARK  3 active torsions:
REMARK  status: ('A' for Active; 'I' for Inactive)
REMARK    1  A    between atoms: C_1  and  C_2
REMARK    2  A    between atoms: C_5  and  C_6
REMARK    3  A    between atoms: C_6  and  N_7
REMARK                            x       y       z     vdW  Elec       q    Type
REMARK                         _______ _______ _______ _____ _____    ______ ____
ROOT
ATOM      1  N   UNL     1       5.425   4.897  17.134  0.00  0.00    +0.000 N 
ATOM      2  N   UNL     1       4.071   5.220  16.998  0.00  0.00    +0.000 NA
ATOM      3  C   UNL     1       3.333   4.713  17.936  0.00  0.00    +0.000 A 
ATOM      4  C   UNL     1       3.723   3.521  18.723  0.00  0.00    +0.000 A 
ATOM      5  C   UNL     1       5.003   3.567  19.098  0.00  0.00    +0.000 A 
ATOM      6  C   UNL     1       5.878   4.563  18.422  0.00  0.00    +0.000 A 
ATOM      7  O   UNL     1       6.892   4.973  18.974  0.00  0.00    +0.000 OA
ATOM      8  C   UNL     1       2.601   2.676  19.201  0.00  0.00    +0.000 C 
ATOM      9  C   UNL     1       1.690   3.510  20.105  0.00  0.00    +0.000 C 
ATOM     10  C   UNL     1       1.734   4.999  19.821  0.00  0.00    +0.000 A 
ATOM     11  C   UNL     1       1.380   5.881  20.848  0.00  0.00    +0.000 A 
ATOM     12  C   UNL     1       1.639   7.242  20.735  0.00  0.00    +0.000 A 
ATOM     13  C   UNL     1       2.173   7.767  19.552  0.00  0.00    +0.000 A 
ATOM     14  C   UNL     1       2.466   6.915  18.492  0.00  0.00    +0.000 A 
ATOM     15  C   UNL     1       2.319   5.530  18.646  0.00  0.00    +0.000 A 
ENDROOT
BRANCH   1  16
ATOM     16  C   UNL     1       6.324   5.633  16.260  0.00  0.00    +0.000 C 
BRANCH  16  21
ATOM     17  C   UNL     1       6.943   2.808  11.231  0.00  0.00    +0.000 C 
ATOM     18  C   UNL     1       6.697   3.677  12.428  0.00  0.00    +0.000 A 
ATOM     19  C   UNL     1       7.624   4.654  12.810  0.00  0.00    +0.000 A 
ATOM     20  C   UNL     1       7.469   5.343  14.016  0.00  0.00    +0.000 A 
ATOM     21  C   UNL     1       6.388   5.060  14.864  0.00  0.00    +0.000 A 
ATOM     22  C   UNL     1       5.420   4.141  14.439  0.00  0.00    +0.000 A 
ATOM     23  C   UNL     1       5.577   3.451  13.235  0.00  0.00    +0.000 A 
ENDBRANCH  16  21
ENDBRANCH   1  16
TORSDOF 2
ENDMDL
MODEL 2
REMARK VINA RESULT:      -8.3      1.503      3.092
REMARK  Name = 
REMARK  3 active torsions:
REMARK  status: ('A' for Active; 'I' for Inactive)
REMARK    1  A    between atoms: C_1  and  C_2
REMARK    2  A    between atoms: C_5  and  C_6
REMARK    3  A    between atoms: C_6  and  N_7
REMARK                            x       y       z     vdW  Elec       q    Type
REMARK                         _______ _______ _______ _____ _____    ______ ____
ROOT
ATOM      1  N   UNL     1       5.578   6.069  18.078  0.00  0.00    +0.000 N 
ATOM      2  N   UNL     1       5.315   5.061  19.012  0.00  0.00    +0.000 NA
ATOM      3  C   UNL     1       4.094   5.079  19.447  0.00  0.00    +0.000 A 
ATOM      4  C   UNL     1       3.238   6.287  19.418  0.00  0.00    +0.000 A 
ATOM      5  C   UNL     1       3.341   6.943  18.260  0.00  0.00    +0.000 A 
ATOM      6  C   UNL     1       4.480   6.588  17.371  0.00  0.00    +0.000 A 
ATOM      7  O   UNL     1       4.412   6.794  16.165  0.00  0.00    +0.000 OA
ATOM      8  C   UNL     1       2.230   6.382  20.502  0.00  0.00    +0.000 C 
ATOM      9  C   UNL     1       1.284   5.181  20.418  0.00  0.00    +0.000 C 
ATOM     10  C   UNL     1       1.895   3.958  19.763  0.00  0.00    +0.000 A 
ATOM     11  C   UNL     1       1.036   3.020  19.179  0.00  0.00    +0.000 A 
ATOM     12  C   UNL     1       1.535   2.020  18.352  0.00  0.00    +0.000 A 
ATOM     13  C   UNL     1       2.916   1.877  18.164  0.00  0.00    +0.000 A 
ATOM     14  C   UNL     1       3.790   2.757  18.795  0.00  0.00    +0.000 A 
ATOM     15  C   UNL     1       3.286   3.838  19.530  0.00  0.00    +0.000 A 
ENDROOT
BRANCH   1  16
ATOM     16  C   UNL     1       6.848   5.945  17.381  0.00  0.00    +0.000 C 
BRANCH  16  21
ATOM     17  C   UNL     1       5.865   3.274  12.326  0.00  0.00    +0.000 C 
ATOM     18  C   UNL     1       6.259   3.835  13.660  0.00  0.00    +0.000 A 
ATOM     19  C   UNL     1       5.695   3.342  14.842  0.00  0.00    +0.000 A 
ATOM     20  C   UNL     1       5.941   3.978  16.062  0.00  0.00    +0.000 A 
ATOM     21  C   UNL     1       6.748   5.124  16.117  0.00  0.00    +0.000 A 
ATOM     22  C   UNL     1       7.376   5.564  14.945  0.00  0.00    +0.000 A 
ATOM     23  C   UNL     1       7.128   4.929  13.726  0.00  0.00    +0.000 A 
ENDBRANCH  16  21
ENDBRANCH   1  16
TORSDOF 2
ENDMDL
MODEL 3
REMARK VINA RESULT:      -8.2      2.121      7.472
REMARK  Name = 
REMARK  3 active torsions:
REMARK  status: ('A' for Active; 'I' for Inactive)
REMARK    1  A    between atoms: C_1  and  C_2
REMARK    2  A    between atoms: C_5  and  C_6
REMARK    3  A    between atoms: C_6  and  N_7
REMARK                            x       y       z     vdW  Elec       q    Type
REMARK                         _______ _______ _______ _____ _____    ______ ____
ROOT
ATOM      1  N   UNL     1       3.260   6.921  18.426  0.00  0.00    +0.000 N 
ATOM      2  N   UNL     1       4.294   7.278  17.554  0.00  0.00    +0.000 NA
ATOM      3  C   UNL     1       5.332   6.508  17.658  0.00  0.00    +0.000 A 
ATOM      4  C   UNL     1       5.642   5.719  18.873  0.00  0.00    +0.000 A 
ATOM      5  C   UNL     1       4.556   5.124  19.371  0.00  0.00    +0.000 A 
ATOM      6  C   UNL     1       3.232   5.590  18.876  0.00  0.00    +0.000 A 
ATOM      7  O   UNL     1       2.257   4.849  18.925  0.00  0.00    +0.000 OA
ATOM      8  C   UNL     1       7.083   5.485  19.133  0.00  0.00    +0.000 C 
ATOM      9  C   UNL     1       7.690   4.718  17.955  0.00  0.00    +0.000 C 
ATOM     10  C   UNL     1       6.959   4.922  16.642  0.00  0.00    +0.000 A 
ATOM     11  C   UNL     1       7.074   3.935  15.658  0.00  0.00    +0.000 A 
ATOM     12  C   UNL     1       6.238   3.938  14.547  0.00  0.00    +0.000 A 
ATOM     13  C   UNL     1       5.328   4.985  14.347  0.00  0.00    +0.000 A 
ATOM     14  C   UNL     1       5.248   6.014  15.280  0.00  0.00    +0.000 A 
ATOM     15  C   UNL     1       6.003   5.951  16.459  0.00  0.00    +0.000 A 
ENDROOT
BRANCH   1  16
ATOM     16  C   UNL     1       1.992   7.589  18.182  0.00  0.00    +0.000 C 
BRANCH  16  21
ATOM     17  C   UNL     1      -0.402  10.568  22.547  0.00  0.00    +0.000 C 
ATOM     18  C   UNL     1       0.377   9.899  21.453  0.00  0.00    +0.000 A 
ATOM     19  C   UNL     1       0.423  10.445  20.166  0.00  0.00    +0.000 A 
ATOM     20  C   UNL     1       1.010   9.733  19.116  0.00  0.00    +0.000 A 
ATOM     21  C   UNL     1       1.552   8.458  19.337  0.00  0.00    +0.000 A 
ATOM     22  C   UNL     1       1.578   7.952  20.643  0.00  0.00    +0.000 A 
ATOM     23  C   UNL     1       0.988   8.663  21.690  0.00  0.00    +0.000 A 
ENDBRANCH  16  21
ENDBRANCH   1  16
TORSDOF 2
ENDMDL
MODEL 4
REMARK VINA RESULT:      -7.9      2.939      6.162
REMARK  Name = 
REMARK  3 active torsions:
REMARK  status: ('A' for Active; 'I' for Inactive)
REMARK    1  A    between atoms: C_1  and  C_2
REMARK    2  A    between atoms: C_5  and  C_6
REMARK    3  A    between atoms: C_6  and  N_7
REMARK                            x       y       z     vdW  Elec       q    Type
REMARK                         _______ _______ _______ _____ _____    ______ ____
ROOT
ATOM      1  N   UNL     1       3.356   6.514  17.483  0.00  0.00    +0.000 N 
ATOM      2  N   UNL     1       2.188   5.857  17.887  0.00  0.00    +0.000 NA
ATOM      3  C   UNL     1       2.336   4.571  17.975  0.00  0.00    +0.000 A 
ATOM      4  C   UNL     1       3.379   3.820  17.241  0.00  0.00    +0.000 A 
ATOM      5  C   UNL     1       4.561   4.438  17.282  0.00  0.00    +0.000 A 
ATOM      6  C   UNL     1       4.575   5.859  17.724  0.00  0.00    +0.000 A 
ATOM      7  O   UNL     1       5.591   6.348  18.202  0.00  0.00    +0.000 OA
ATOM      8  C   UNL     1       3.024   2.427  16.872  0.00  0.00    +0.000 C 
ATOM      9  C   UNL     1       2.730   1.628  18.144  0.00  0.00    +0.000 C 
ATOM     10  C   UNL     1       2.263   2.474  19.312  0.00  0.00    +0.000 A 
ATOM     11  C   UNL     1       2.453   1.980  20.608  0.00  0.00    +0.000 A 
ATOM     12  C   UNL     1       2.281   2.805  21.714  0.00  0.00    +0.000 A 
ATOM     13  C   UNL     1       1.824   4.119  21.555  0.00  0.00    +0.000 A 
ATOM     14  C   UNL     1       1.560   4.606  20.279  0.00  0.00    +0.000 A 
ATOM     15  C   UNL     1       1.847   3.818  19.156  0.00  0.00    +0.000 A 
ENDROOT
BRANCH   1  16
ATOM     16  C   UNL     1       3.318   7.962  17.603  0.00  0.00    +0.000 C 
BRANCH  16  21
ATOM     17  C   UNL     1      -0.530  10.450  21.162  0.00  0.00    +0.000 C 
ATOM     18  C   UNL     1       0.333   9.669  20.214  0.00  0.00    +0.000 A 
ATOM     19  C   UNL     1       1.166   8.646  20.677  0.00  0.00    +0.000 A 
ATOM     20  C   UNL     1       2.085   8.037  19.818  0.00  0.00    +0.000 A 
ATOM     21  C   UNL     1       2.191   8.452  18.482  0.00  0.00    +0.000 A 
ATOM     22  C   UNL     1       1.299   9.419  18.002  0.00  0.00    +0.000 A 
ATOM     23  C   UNL     1       0.383  10.027  18.863  0.00  0.00    +0.000 A 
ENDBRANCH  16  21
ENDBRANCH   1  16
TORSDOF 2
ENDMDL
MODEL 5
REMARK VINA RESULT:      -7.9      0.290      1.037
REMARK  Name = 
REMARK  3 active torsions:
REMARK  status: ('A' for Active; 'I' for Inactive)
REMARK    1  A    between atoms: C_1  and  C_2
REMARK    2  A    between atoms: C_5  and  C_6
REMARK    3  A    between atoms: C_6  and  N_7
REMARK                            x       y       z     vdW  Elec       q    Type
REMARK                         _______ _______ _______ _____ _____    ______ ____
ROOT
ATOM      1  N   UNL     1       5.427   4.926  17.320  0.00  0.00    +0.000 N 
ATOM      2  N   UNL     1       4.081   5.261  17.132  0.00  0.00    +0.000 NA
ATOM      3  C   UNL     1       3.306   4.771  18.049  0.00  0.00    +0.000 A 
ATOM      4  C   UNL     1       3.656   3.585  18.863  0.00  0.00    +0.000 A 
ATOM      5  C   UNL     1       4.922   3.624  19.282  0.00  0.00    +0.000 A 
ATOM      6  C   UNL     1       5.830   4.604  18.627  0.00  0.00    +0.000 A 
ATOM      7  O   UNL     1       6.827   5.010  19.211  0.00  0.00    +0.000 OA
ATOM      8  C   UNL     1       2.509   2.756  19.310  0.00  0.00    +0.000 C 
ATOM      9  C   UNL     1       1.575   3.609  20.171  0.00  0.00    +0.000 C 
ATOM     10  C   UNL     1       1.643   5.094  19.872  0.00  0.00    +0.000 A 
ATOM     11  C   UNL     1       1.261   5.991  20.876  0.00  0.00    +0.000 A 
ATOM     12  C   UNL     1       1.537   7.349  20.756  0.00  0.00    +0.000 A 
ATOM     13  C   UNL     1       2.118   7.855  19.587  0.00  0.00    +0.000 A 
ATOM     14  C   UNL     1       2.440   6.987  18.548  0.00  0.00    +0.000 A 
ATOM     15  C   UNL     1       2.275   5.606  18.713  0.00  0.00    +0.000 A 
ENDROOT
BRANCH   1  16
ATOM     16  C   UNL     1       6.363   5.644  16.470  0.00  0.00    +0.000 C 
BRANCH  16  21
ATOM     17  C   UNL     1       6.805   3.527  11.087  0.00  0.00    +0.000 C 
ATOM     18  C   UNL     1       6.813   3.934  12.531  0.00  0.00    +0.000 A 
ATOM     19  C   UNL     1       5.914   3.369  13.442  0.00  0.00    +0.000 A 
ATOM     20  C   UNL     1       5.816   3.870  14.743  0.00  0.00    +0.000 A 
ATOM     21  C   UNL     1       6.608   4.953  15.149  0.00  0.00    +0.000 A 
ATOM     22  C   UNL     1       7.564   5.462  14.260  0.00  0.00    +0.000 A 
ATOM     23  C   UNL     1       7.659   4.962  12.960  0.00  0.00    +0.000 A 
ENDBRANCH  16  21
ENDBRANCH   1  16
TORSDOF 2
ENDMDL
MODEL 6
REMARK VINA RESULT:      -7.8      4.625      7.397
REMARK  Name = 
REMARK  3 active torsions:
REMARK  status: ('A' for Active; 'I' for Inactive)
REMARK    1  A    between atoms: C_1  and  C_2
REMARK    2  A    between atoms: C_5  and  C_6
REMARK    3  A    between atoms: C_6  and  N_7
REMARK                            x       y       z     vdW  Elec       q    Type
REMARK                         _______ _______ _______ _____ _____    ______ ____
ROOT
ATOM      1  N   UNL     1       1.521   8.477  19.597  0.00  0.00    +0.000 N 
ATOM      2  N   UNL     1       1.508   9.347  18.502  0.00  0.00    +0.000 NA
ATOM      3  C   UNL     1       0.589  10.258  18.590  0.00  0.00    +0.000 A 
ATOM      4  C   UNL     1      -0.632  10.105  19.414  0.00  0.00    +0.000 A 
ATOM      5  C   UNL     1      -0.362   9.584  20.613  0.00  0.00    +0.000 A 
ATOM      6  C   UNL     1       0.973   8.953  20.800  0.00  0.00    +0.000 A 
ATOM      7  O   UNL     1       1.461   8.857  21.920  0.00  0.00    +0.000 OA
ATOM      8  C   UNL     1      -1.835  10.810  18.910  0.00  0.00    +0.000 C 
ATOM      9  C   UNL     1      -1.548  12.312  18.839  0.00  0.00    +0.000 C 
ATOM     10  C   UNL     1      -0.080  12.653  18.673  0.00  0.00    +0.000 A 
ATOM     11  C   UNL     1       0.361  13.911  19.097  0.00  0.00    +0.000 A 
ATOM     12  C   UNL     1       1.720  14.188  19.205  0.00  0.00    +0.000 A 
ATOM     13  C   UNL     1       2.671  13.242  18.802  0.00  0.00    +0.000 A 
ATOM     14  C   UNL     1       2.250  12.010  18.310  0.00  0.00    +0.000 A 
ATOM     15  C   UNL     1       0.888  11.684  18.313  0.00  0.00    +0.000 A 
ENDROOT
BRANCH   1  16
ATOM     16  C   UNL     1       2.676   7.597  19.670  0.00  0.00    +0.000 C 
BRANCH  16  21
ATOM     17  C   UNL     1       0.579   2.262  18.773  0.00  0.00    +0.000 C 
ATOM     18  C   UNL     1       1.288   3.555  19.050  0.00  0.00    +0.000 A 
ATOM     19  C   UNL     1       1.324   4.094  20.340  0.00  0.00    +0.000 A 
ATOM     20  C   UNL     1       1.840   5.374  20.559  0.00  0.00    +0.000 A 
ATOM     21  C   UNL     1       2.320   6.140  19.487  0.00  0.00    +0.000 A 
ATOM     22  C   UNL     1       2.357   5.565  18.210  0.00  0.00    +0.000 A 
ATOM     23  C   UNL     1       1.839   4.287  17.992  0.00  0.00    +0.000 A 
ENDBRANCH  16  21
ENDBRANCH   1  16
TORSDOF 2
ENDMDL
MODEL 7
REMARK VINA RESULT:      -7.6      4.634      7.427
REMARK  Name = 
REMARK  3 active torsions:
REMARK  status: ('A' for Active; 'I' for Inactive)
REMARK    1  A    between atoms: C_1  and  C_2
REMARK    2  A    between atoms: C_5  and  C_6
REMARK    3  A    between atoms: C_6  and  N_7
REMARK                            x       y       z     vdW  Elec       q    Type
REMARK                         _______ _______ _______ _____ _____    ______ ____
ROOT
ATOM      1  N   UNL     1       1.427   8.568  19.577  0.00  0.00    +0.000 N 
ATOM      2  N   UNL     1       1.410   9.461  18.500  0.00  0.00    +0.000 NA
ATOM      3  C   UNL     1       0.551  10.420  18.652  0.00  0.00    +0.000 A 
ATOM      4  C   UNL     1      -0.634  10.319  19.535  0.00  0.00    +0.000 A 
ATOM      5  C   UNL     1      -0.335   9.759  20.708  0.00  0.00    +0.000 A 
ATOM      6  C   UNL     1       0.969   9.049  20.815  0.00  0.00    +0.000 A 
ATOM      7  O   UNL     1       1.507   8.903  21.906  0.00  0.00    +0.000 OA
ATOM      8  C   UNL     1      -1.819  11.102  19.106  0.00  0.00    +0.000 C 
ATOM      9  C   UNL     1      -1.449  12.587  19.048  0.00  0.00    +0.000 C 
ATOM     10  C   UNL     1       0.026  12.847  18.812  0.00  0.00    +0.000 A 
ATOM     11  C   UNL     1       0.560  14.069  19.236  0.00  0.00    +0.000 A 
ATOM     12  C   UNL     1       1.936  14.266  19.279  0.00  0.00    +0.000 A 
ATOM     13  C   UNL     1       2.809  13.276  18.810  0.00  0.00    +0.000 A 
ATOM     14  C   UNL     1       2.294  12.081  18.318  0.00  0.00    +0.000 A 
ATOM     15  C   UNL     1       0.916  11.832  18.385  0.00  0.00    +0.000 A 
ENDROOT
BRANCH   1  16
ATOM     16  C   UNL     1       2.532   7.623  19.574  0.00  0.00    +0.000 C 
BRANCH  16  21
ATOM     17  C   UNL     1       1.552   1.930  19.034  0.00  0.00    +0.000 C 
ATOM     18  C   UNL     1       1.621   3.426  19.122  0.00  0.00    +0.000 A 
ATOM     19  C   UNL     1       1.945   4.198  18.000  0.00  0.00    +0.000 A 
ATOM     20  C   UNL     1       2.169   5.572  18.128  0.00  0.00    +0.000 A 
ATOM     21  C   UNL     1       2.083   6.193  19.382  0.00  0.00    +0.000 A 
ATOM     22  C   UNL     1       1.678   5.432  20.486  0.00  0.00    +0.000 A 
ATOM     23  C   UNL     1       1.457   4.059  20.358  0.00  0.00    +0.000 A 
ENDBRANCH  16  21
ENDBRANCH   1  16
TORSDOF 2
ENDMDL
MODEL 8
REMARK VINA RESULT:      -7.5      2.207      7.456
REMARK  Name = 
REMARK  3 active torsions:
REMARK  status: ('A' for Active; 'I' for Inactive)
REMARK    1  A    between atoms: C_1  and  C_2
REMARK    2  A    between atoms: C_5  and  C_6
REMARK    3  A    between atoms: C_6  and  N_7
REMARK                            x       y       z     vdW  Elec       q    Type
REMARK                         _______ _______ _______ _____ _____    ______ ____
ROOT
ATOM      1  N   UNL     1       3.233   7.176  18.201  0.00  0.00    +0.000 N 
ATOM      2  N   UNL     1       4.358   7.454  17.417  0.00  0.00    +0.000 NA
ATOM      3  C   UNL     1       5.329   6.617  17.611  0.00  0.00    +0.000 A 
ATOM      4  C   UNL     1       5.484   5.822  18.851  0.00  0.00    +0.000 A 
ATOM      5  C   UNL     1       4.323   5.306  19.259  0.00  0.00    +0.000 A 
ATOM      6  C   UNL     1       3.079   5.855  18.654  0.00  0.00    +0.000 A 
ATOM      7  O   UNL     1       2.055   5.182  18.625  0.00  0.00    +0.000 OA
ATOM      8  C   UNL     1       6.880   5.494  19.230  0.00  0.00    +0.000 C 
ATOM      9  C   UNL     1       7.529   4.677  18.110  0.00  0.00    +0.000 C 
ATOM     10  C   UNL     1       6.924   4.916  16.741  0.00  0.00    +0.000 A 
ATOM     11  C   UNL     1       7.053   3.913  15.774  0.00  0.00    +0.000 A 
ATOM     12  C   UNL     1       6.314   3.961  14.597  0.00  0.00    +0.000 A 
ATOM     13  C   UNL     1       5.496   5.064  14.318  0.00  0.00    +0.000 A 
ATOM     14  C   UNL     1       5.410   6.106  15.236  0.00  0.00    +0.000 A 
ATOM     15  C   UNL     1       6.058   6.004  16.474  0.00  0.00    +0.000 A 
ENDROOT
BRANCH   1  16
ATOM     16  C   UNL     1       2.038   7.926  17.850  0.00  0.00    +0.000 C 
BRANCH  16  21
ATOM     17  C   UNL     1      -0.098  10.704  22.473  0.00  0.00    +0.000 C 
ATOM     18  C   UNL     1       0.306   9.863  21.298  0.00  0.00    +0.000 A 
ATOM     19  C   UNL     1       1.132   8.746  21.463  0.00  0.00    +0.000 A 
ATOM     20  C   UNL     1       1.638   8.069  20.349  0.00  0.00    +0.000 A 
ATOM     21  C   UNL     1       1.332   8.506  19.053  0.00  0.00    +0.000 A 
ATOM     22  C   UNL     1       0.439   9.573  18.892  0.00  0.00    +0.000 A 
ATOM     23  C   UNL     1      -0.063  10.251  20.005  0.00  0.00    +0.000 A 
ENDBRANCH  16  21
ENDBRANCH   1  16
TORSDOF 2
ENDMDL
MODEL 9
REMARK VINA RESULT:      -7.5      3.044      6.377
REMARK  Name = 
REMARK  3 active torsions:
REMARK  status: ('A' for Active; 'I' for Inactive)
REMARK    1  A    between atoms: C_1  and  C_2
REMARK    2  A    between atoms: C_5  and  C_6
REMARK    3  A    between atoms: C_6  and  N_7
REMARK                            x       y       z     vdW  Elec       q    Type
REMARK                         _______ _______ _______ _____ _____    ______ ____
ROOT
ATOM      1  N   UNL     1       2.877   6.733  17.481  0.00  0.00    +0.000 N 
ATOM      2  N   UNL     1       1.807   5.955  17.935  0.00  0.00    +0.000 NA
ATOM      3  C   UNL     1       2.085   4.689  17.979  0.00  0.00    +0.000 A 
ATOM      4  C   UNL     1       3.150   4.060  17.164  0.00  0.00    +0.000 A 
ATOM      5  C   UNL     1       4.266   4.792  17.152  0.00  0.00    +0.000 A 
ATOM      6  C   UNL     1       4.168   6.198  17.631  0.00  0.00    +0.000 A 
ATOM      7  O   UNL     1       5.159   6.776  18.061  0.00  0.00    +0.000 OA
ATOM      8  C   UNL     1       2.910   2.648  16.780  0.00  0.00    +0.000 C 
ATOM      9  C   UNL     1       2.776   1.796  18.045  0.00  0.00    +0.000 C 
ATOM     10  C   UNL     1       2.301   2.566  19.261  0.00  0.00    +0.000 A 
ATOM     11  C   UNL     1       2.618   2.067  20.529  0.00  0.00    +0.000 A 
ATOM     12  C   UNL     1       2.435   2.847  21.665  0.00  0.00    +0.000 A 
ATOM     13  C   UNL     1       1.842   4.112  21.570  0.00  0.00    +0.000 A 
ATOM     14  C   UNL     1       1.454   4.598  20.325  0.00  0.00    +0.000 A 
ATOM     15  C   UNL     1       1.747   3.866  19.166  0.00  0.00    +0.000 A 
ENDROOT
BRANCH   1  16
ATOM     16  C   UNL     1       2.706   8.168  17.642  0.00  0.00    +0.000 C 
BRANCH  16  21
ATOM     17  C   UNL     1      -0.605   9.002  22.333  0.00  0.00    +0.000 C 
ATOM     18  C   UNL     1       0.361   8.930  21.187  0.00  0.00    +0.000 A 
ATOM     19  C   UNL     1       0.183   9.719  20.046  0.00  0.00    +0.000 A 
ATOM     20  C   UNL     1       0.988   9.527  18.919  0.00  0.00    +0.000 A 
ATOM     21  C   UNL     1       1.978   8.534  18.915  0.00  0.00    +0.000 A 
ATOM     22  C   UNL     1       2.208   7.803  20.087  0.00  0.00    +0.000 A 
ATOM     23  C   UNL     1       1.401   7.994  21.211  0.00  0.00    +0.000 A 
ENDBRANCH  16  21
ENDBRANCH   1  16
TORSDOF 2
ENDMDL
