MODEL 1
REMARK VINA RESULT:      -8.0      0.000      0.000
REMARK  Name = 
REMARK  8 active torsions:
REMARK  status: ('A' for Active; 'I' for Inactive)
REMARK    1  A    between atoms: C_2  and  C_3
REMARK    2  A    between atoms: C_3  and  N_4
REMARK    3  A    between atoms: N_7  and  C_8
REMARK    4  A    between atoms: N_14  and  CA_15
REMARK    5  A    between atoms: CA_15  and  CB_16
REMARK    6  A    between atoms: CA_15  and  C_23
REMARK    7  A    between atoms: CB_16  and  CG_17
REMARK    8  A    between atoms: C_23  and  OXT_25
REMARK                            x       y       z     vdW  Elec       q    Type
REMARK                         _______ _______ _______ _____ _____    ______ ____
ROOT
ATOM      1  O   UNK A   0       7.392   5.551  19.590  0.00  0.00    +0.000 OA
ATOM      2  C   UNK A   0       7.005   6.151  18.614  0.00  0.00    +0.000 C 
ATOM      3  N   PHE A   1       5.771   5.980  18.037  0.00  0.00    +0.000 N 
ATOM      4  H   PHE A   1       5.658   6.500  17.184  0.00  0.00    +0.000 HD
ENDROOT
BRANCH   2   5
ATOM      5  C   UNK A   0       7.884   7.203  17.859  0.00  0.00    +0.000 C 
BRANCH   5   6
ATOM      6  N   UNK A   0       8.630   8.149  18.696  0.00  0.00    +0.000 N 
ATOM      7  C   UNK A   0       8.541   9.473  18.420  0.00  0.00    +0.000 C 
ATOM      8  O   UNK A   0       7.895   9.882  17.441  0.00  0.00    +0.000 OA
ATOM      9  N   UNK A   0       9.208  10.293  19.256  0.00  0.00    +0.000 N 
ATOM     10  H   UNK A   0       9.433   7.803  19.212  0.00  0.00    +0.000 HD
ATOM     11  H   UNK A   0       9.576   9.893  20.110  0.00  0.00    +0.000 HD
BRANCH   9  12
ATOM     12  C   UNK A   0       9.317  11.750  19.053  0.00  0.00    +0.000 C 
ATOM     13  C   UNK A   0       9.757  12.534  20.303  0.00  0.00    +0.000 C 
ATOM     14  C   UNK A   0      11.160  12.123  20.745  0.00  0.00    +0.000 C 
ATOM     15  C   UNK A   0      12.175  12.355  19.627  0.00  0.00    +0.000 C 
ATOM     16  C   UNK A   0      11.749  11.722  18.302  0.00  0.00    +0.000 C 
ATOM     17  C   UNK A   0      10.305  12.067  17.923  0.00  0.00    +0.000 C 
ENDBRANCH   9  12
ENDBRANCH   5   6
ENDBRANCH   2   5
BRANCH   3  18
ATOM     18  CA  PHE A   1       4.648   5.097  18.451  0.00  0.00    +0.000 C 
BRANCH  18  19
ATOM     19  C   PHE A   1       4.839   3.696  17.814  0.00  0.00    +0.000 C 
ATOM     20  O   PHE A   1       4.900   3.473  16.613  0.00  0.00    +0.000 OA
BRANCH  19  21
ATOM     21  OXT PHE A   1       4.840   2.658  18.693  0.00  0.00    +0.000 OA
ATOM     22  HXT PHE A   1       5.140   1.792  18.353  0.00  0.00    +0.000 HD
ENDBRANCH  19  21
ENDBRANCH  18  19
BRANCH  18  23
ATOM     23  CB  PHE A   1       3.208   5.605  18.133  0.00  0.00    +0.000 C 
BRANCH  23  24
ATOM     24  CG  PHE A   1       2.145   4.754  18.798  0.00  0.00    +0.000 A 
ATOM     25  CD1 PHE A   1       1.948   4.805  20.189  0.00  0.00    +0.000 A 
ATOM     26  CE1 PHE A   1       1.187   3.831  20.830  0.00  0.00    +0.000 A 
ATOM     27  CZ  PHE A   1       0.571   2.836  20.080  0.00  0.00    +0.000 A 
ATOM     28  CE2 PHE A   1       0.694   2.828  18.690  0.00  0.00    +0.000 A 
ATOM     29  CD2 PHE A   1       1.471   3.788  18.051  0.00  0.00    +0.000 A 
ENDBRANCH  23  24
ENDBRANCH  18  23
ENDBRANCH   3  18
TORSDOF 8
ENDMDL
MODEL 2
REMARK VINA RESULT:      -8.0      5.021      7.256
REMARK  Name = 
REMARK  8 active torsions:
REMARK  status: ('A' for Active; 'I' for Inactive)
REMARK    1  A    between atoms: C_2  and  C_3
REMARK    2  A    between atoms: C_3  and  N_4
REMARK    3  A    between atoms: N_7  and  C_8
REMARK    4  A    between atoms: N_14  and  CA_15
REMARK    5  A    between atoms: CA_15  and  CB_16
REMARK    6  A    between atoms: CA_15  and  C_23
REMARK    7  A    between atoms: CB_16  and  CG_17
REMARK    8  A    between atoms: C_23  and  OXT_25
REMARK                            x       y       z     vdW  Elec       q    Type
REMARK                         _______ _______ _______ _____ _____    ______ ____
ROOT
ATOM      1  O   UNK A   0       6.907   5.245  19.666  0.00  0.00    +0.000 OA
ATOM      2  C   UNK A   0       6.523   4.702  18.656  0.00  0.00    +0.000 C 
ATOM      3  N   PHE A   1       5.292   4.111  18.513  0.00  0.00    +0.000 N 
ATOM      4  H   PHE A   1       5.181   3.635  17.635  0.00  0.00    +0.000 HD
ENDROOT
BRANCH   2   5
ATOM      5  C   UNK A   0       7.401   4.585  17.366  0.00  0.00    +0.000 C 
BRANCH   5   6
ATOM      6  N   UNK A   0       6.818   3.835  16.248  0.00  0.00    +0.000 N 
ATOM      7  C   UNK A   0       6.811   4.403  15.017  0.00  0.00    +0.000 C 
ATOM      8  O   UNK A   0       7.228   5.560  14.843  0.00  0.00    +0.000 OA
ATOM      9  N   UNK A   0       6.309   3.645  14.023  0.00  0.00    +0.000 N 
ATOM     10  H   UNK A   0       6.150   3.101  16.459  0.00  0.00    +0.000 HD
ATOM     11  H   UNK A   0       6.138   2.667  14.221  0.00  0.00    +0.000 HD
BRANCH   9  12
ATOM     12  C   UNK A   0       6.120   4.130  12.644  0.00  0.00    +0.000 C 
ATOM     13  C   UNK A   0       7.368   4.005  11.749  0.00  0.00    +0.000 C 
ATOM     14  C   UNK A   0       7.770   2.542  11.568  0.00  0.00    +0.000 C 
ATOM     15  C   UNK A   0       6.630   1.734  10.951  0.00  0.00    +0.000 C 
ATOM     16  C   UNK A   0       5.309   1.910  11.700  0.00  0.00    +0.000 C 
ATOM     17  C   UNK A   0       4.969   3.382  11.958  0.00  0.00    +0.000 C 
ENDBRANCH   9  12
ENDBRANCH   5   6
ENDBRANCH   2   5
BRANCH   3  18
ATOM     18  CA  PHE A   1       4.170   4.017  19.486  0.00  0.00    +0.000 C 
BRANCH  18  19
ATOM     19  C   PHE A   1       4.226   2.641  20.198  0.00  0.00    +0.000 C 
ATOM     20  O   PHE A   1       3.684   2.380  21.264  0.00  0.00    +0.000 OA
BRANCH  19  21
ATOM     21  OXT PHE A   1       5.025   1.716  19.604  0.00  0.00    +0.000 OA
ATOM     22  HXT PHE A   1       5.207   0.899  20.110  0.00  0.00    +0.000 HD
ENDBRANCH  19  21
ENDBRANCH  18  19
BRANCH  18  23
ATOM     23  CB  PHE A   1       2.734   4.235  18.916  0.00  0.00    +0.000 C 
BRANCH  23  24
ATOM     24  CG  PHE A   1       2.248   5.655  19.129  0.00  0.00    +0.000 A 
ATOM     25  CD1 PHE A   1       2.373   6.618  18.113  0.00  0.00    +0.000 A 
ATOM     26  CE1 PHE A   1       2.198   7.971  18.398  0.00  0.00    +0.000 A 
ATOM     27  CZ  PHE A   1       1.839   8.361  19.683  0.00  0.00    +0.000 A 
ATOM     28  CE2 PHE A   1       1.631   7.403  20.675  0.00  0.00    +0.000 A 
ATOM     29  CD2 PHE A   1       1.827   6.054  20.397  0.00  0.00    +0.000 A 
ENDBRANCH  23  24
ENDBRANCH  18  23
ENDBRANCH   3  18
TORSDOF 8
ENDMDL
MODEL 3
REMARK VINA RESULT:      -7.7      1.624      2.472
REMARK  Name = 
REMARK  8 active torsions:
REMARK  status: ('A' for Active; 'I' for Inactive)
REMARK    1  A    between atoms: C_2  and  C_3
REMARK    2  A    between atoms: C_3  and  N_4
REMARK    3  A    between atoms: N_7  and  C_8
REMARK    4  A    between atoms: N_14  and  CA_15
REMARK    5  A    between atoms: CA_15  and  CB_16
REMARK    6  A    between atoms: CA_15  and  C_23
REMARK    7  A    between atoms: CB_16  and  CG_17
REMARK    8  A    between atoms: C_23  and  OXT_25
REMARK                            x       y       z     vdW  Elec       q    Type
REMARK                         _______ _______ _______ _____ _____    ______ ____
ROOT
ATOM      1  O   UNK A   0       6.959   5.392  20.159  0.00  0.00    +0.000 OA
ATOM      2  C   UNK A   0       6.733   5.800  19.044  0.00  0.00    +0.000 C 
ATOM      3  N   PHE A   1       5.525   5.681  18.403  0.00  0.00    +0.000 N 
ATOM      4  H   PHE A   1       5.549   6.001  17.451  0.00  0.00    +0.000 HD
ENDROOT
BRANCH   2   5
ATOM      5  C   UNK A   0       7.815   6.511  18.164  0.00  0.00    +0.000 C 
BRANCH   5   6
ATOM      6  N   UNK A   0       8.586   7.577  18.815  0.00  0.00    +0.000 N 
ATOM      7  C   UNK A   0       8.447   8.848  18.365  0.00  0.00    +0.000 C 
ATOM      8  O   UNK A   0       7.734   9.106  17.381  0.00  0.00    +0.000 OA
ATOM      9  N   UNK A   0       9.141   9.788  19.037  0.00  0.00    +0.000 N 
ATOM     10  H   UNK A   0       9.426   7.319  19.322  0.00  0.00    +0.000 HD
ATOM     11  H   UNK A   0       9.569   9.516  19.913  0.00  0.00    +0.000 HD
BRANCH   9  12
ATOM     12  C   UNK A   0       9.201  11.203  18.629  0.00  0.00    +0.000 C 
ATOM     13  C   UNK A   0       9.164  12.204  19.799  0.00  0.00    +0.000 C 
ATOM     14  C   UNK A   0      10.381  12.035  20.706  0.00  0.00    +0.000 C 
ATOM     15  C   UNK A   0      11.678  12.231  19.923  0.00  0.00    +0.000 C 
ATOM     16  C   UNK A   0      11.740  11.371  18.660  0.00  0.00    +0.000 C 
ATOM     17  C   UNK A   0      10.469  11.479  17.811  0.00  0.00    +0.000 C 
ENDBRANCH   9  12
ENDBRANCH   5   6
ENDBRANCH   2   5
BRANCH   3  18
ATOM     18  CA  PHE A   1       4.251   5.089  18.892  0.00  0.00    +0.000 C 
BRANCH  18  19
ATOM     19  C   PHE A   1       4.387   3.545  18.928  0.00  0.00    +0.000 C 
ATOM     20  O   PHE A   1       5.274   2.932  19.505  0.00  0.00    +0.000 OA
BRANCH  19  21
ATOM     21  OXT PHE A   1       3.483   2.868  18.170  0.00  0.00    +0.000 OA
ATOM     22  HXT PHE A   1       3.836   2.186  17.566  0.00  0.00    +0.000 HD
ENDBRANCH  19  21
ENDBRANCH  18  19
BRANCH  18  23
ATOM     23  CB  PHE A   1       2.959   5.466  18.102  0.00  0.00    +0.000 C 
BRANCH  23  24
ATOM     24  CG  PHE A   1       2.263   6.675  18.694  0.00  0.00    +0.000 A 
ATOM     25  CD1 PHE A   1       2.026   7.821  17.916  0.00  0.00    +0.000 A 
ATOM     26  CE1 PHE A   1       1.656   9.020  18.522  0.00  0.00    +0.000 A 
ATOM     27  CZ  PHE A   1       1.463   9.065  19.897  0.00  0.00    +0.000 A 
ATOM     28  CE2 PHE A   1       1.616   7.910  20.665  0.00  0.00    +0.000 A 
ATOM     29  CD2 PHE A   1       2.007   6.717  20.064  0.00  0.00    +0.000 A 
ENDBRANCH  23  24
ENDBRANCH  18  23
ENDBRANCH   3  18
TORSDOF 8
ENDMDL
MODEL 4
REMARK VINA RESULT:      -7.6      1.396      1.849
REMARK  Name = 
REMARK  8 active torsions:
REMARK  status: ('A' for Active; 'I' for Inactive)
REMARK    1  A    between atoms: C_2  and  C_3
REMARK    2  A    between atoms: C_3  and  N_4
REMARK    3  A    between atoms: N_7  and  C_8
REMARK    4  A    between atoms: N_14  and  CA_15
REMARK    5  A    between atoms: CA_15  and  CB_16
REMARK    6  A    between atoms: CA_15  and  C_23
REMARK    7  A    between atoms: CB_16  and  CG_17
REMARK    8  A    between atoms: C_23  and  OXT_25
REMARK                            x       y       z     vdW  Elec       q    Type
REMARK                         _______ _______ _______ _____ _____    ______ ____
ROOT
ATOM      1  O   UNK A   0       6.767   5.460  19.849  0.00  0.00    +0.000 OA
ATOM      2  C   UNK A   0       6.721   5.798  18.689  0.00  0.00    +0.000 C 
ATOM      3  N   PHE A   1       5.680   5.519  17.839  0.00  0.00    +0.000 N 
ATOM      4  H   PHE A   1       5.854   5.804  16.892  0.00  0.00    +0.000 HD
ENDROOT
BRANCH   2   5
ATOM      5  C   UNK A   0       7.871   6.597  17.989  0.00  0.00    +0.000 C 
BRANCH   5   6
ATOM      6  N   UNK A   0       8.512   7.648  18.787  0.00  0.00    +0.000 N 
ATOM      7  C   UNK A   0       8.460   8.927  18.340  0.00  0.00    +0.000 C 
ATOM      8  O   UNK A   0       7.939   9.203  17.246  0.00  0.00    +0.000 OA
ATOM      9  N   UNK A   0       9.022   9.853  19.141  0.00  0.00    +0.000 N 
ATOM     10  H   UNK A   0       9.245   7.379  19.436  0.00  0.00    +0.000 HD
ATOM     11  H   UNK A   0       9.282   9.566  20.077  0.00  0.00    +0.000 HD
BRANCH   9  12
ATOM     12  C   UNK A   0       9.157  11.274  18.773  0.00  0.00    +0.000 C 
ATOM     13  C   UNK A   0       9.238  12.237  19.974  0.00  0.00    +0.000 C 
ATOM     14  C   UNK A   0      10.479  11.959  20.819  0.00  0.00    +0.000 C 
ATOM     15  C   UNK A   0      11.751  12.096  19.984  0.00  0.00    +0.000 C 
ATOM     16  C   UNK A   0      11.701  11.276  18.694  0.00  0.00    +0.000 C 
ATOM     17  C   UNK A   0      10.405  11.493  17.907  0.00  0.00    +0.000 C 
ENDBRANCH   9  12
ENDBRANCH   5   6
ENDBRANCH   2   5
BRANCH   3  18
ATOM     18  CA  PHE A   1       4.404   4.802  18.112  0.00  0.00    +0.000 C 
BRANCH  18  19
ATOM     19  C   PHE A   1       3.375   5.800  18.703  0.00  0.00    +0.000 C 
ATOM     20  O   PHE A   1       2.416   6.261  18.099  0.00  0.00    +0.000 OA
BRANCH  19  21
ATOM     21  OXT PHE A   1       3.654   6.240  19.959  0.00  0.00    +0.000 OA
ATOM     22  HXT PHE A   1       3.605   5.580  20.679  0.00  0.00    +0.000 HD
ENDBRANCH  19  21
ENDBRANCH  18  19
BRANCH  18  23
ATOM     23  CB  PHE A   1       4.491   3.553  19.043  0.00  0.00    +0.000 C 
BRANCH  23  24
ATOM     24  CG  PHE A   1       3.120   3.014  19.400  0.00  0.00    +0.000 A 
ATOM     25  CD1 PHE A   1       2.208   2.648  18.395  0.00  0.00    +0.000 A 
ATOM     26  CE1 PHE A   1       0.867   2.431  18.706  0.00  0.00    +0.000 A 
ATOM     27  CZ  PHE A   1       0.445   2.520  20.027  0.00  0.00    +0.000 A 
ATOM     28  CE2 PHE A   1       1.362   2.801  21.040  0.00  0.00    +0.000 A 
ATOM     29  CD2 PHE A   1       2.697   3.039  20.728  0.00  0.00    +0.000 A 
ENDBRANCH  23  24
ENDBRANCH  18  23
ENDBRANCH   3  18
TORSDOF 8
ENDMDL
MODEL 5
REMARK VINA RESULT:      -7.6      1.335      1.654
REMARK  Name = 
REMARK  8 active torsions:
REMARK  status: ('A' for Active; 'I' for Inactive)
REMARK    1  A    between atoms: C_2  and  C_3
REMARK    2  A    between atoms: C_3  and  N_4
REMARK    3  A    between atoms: N_7  and  C_8
REMARK    4  A    between atoms: N_14  and  CA_15
REMARK    5  A    between atoms: CA_15  and  CB_16
REMARK    6  A    between atoms: CA_15  and  C_23
REMARK    7  A    between atoms: CB_16  and  CG_17
REMARK    8  A    between atoms: C_23  and  OXT_25
REMARK                            x       y       z     vdW  Elec       q    Type
REMARK                         _______ _______ _______ _____ _____    ______ ____
ROOT
ATOM      1  O   UNK A   0       5.681   7.257  16.327  0.00  0.00    +0.000 OA
ATOM      2  C   UNK A   0       6.351   6.809  17.228  0.00  0.00    +0.000 C 
ATOM      3  N   PHE A   1       5.998   5.728  17.996  0.00  0.00    +0.000 N 
ATOM      4  H   PHE A   1       6.636   5.553  18.752  0.00  0.00    +0.000 HD
ENDROOT
BRANCH   2   5
ATOM      5  C   UNK A   0       7.724   7.429  17.656  0.00  0.00    +0.000 C 
BRANCH   5   6
ATOM      6  N   UNK A   0       7.880   8.873  17.447  0.00  0.00    +0.000 N 
ATOM      7  C   UNK A   0       8.583   9.590  18.357  0.00  0.00    +0.000 C 
ATOM      8  O   UNK A   0       9.034   9.056  19.384  0.00  0.00    +0.000 OA
ATOM      9  N   UNK A   0       8.734  10.900  18.082  0.00  0.00    +0.000 N 
ATOM     10  H   UNK A   0       7.205   9.347  16.855  0.00  0.00    +0.000 HD
ATOM     11  H   UNK A   0       8.472  11.218  17.157  0.00  0.00    +0.000 HD
BRANCH   9  12
ATOM     12  C   UNK A   0       9.372  11.858  19.005  0.00  0.00    +0.000 C 
ATOM     13  C   UNK A   0      10.894  11.673  19.159  0.00  0.00    +0.000 C 
ATOM     14  C   UNK A   0      11.614  11.909  17.833  0.00  0.00    +0.000 C 
ATOM     15  C   UNK A   0      11.333  13.314  17.302  0.00  0.00    +0.000 C 
ATOM     16  C   UNK A   0       9.840  13.635  17.244  0.00  0.00    +0.000 C 
ATOM     17  C   UNK A   0       9.114  13.301  18.551  0.00  0.00    +0.000 C 
ENDBRANCH   9  12
ENDBRANCH   5   6
ENDBRANCH   2   5
BRANCH   3  18
ATOM     18  CA  PHE A   1       4.794   4.858  17.905  0.00  0.00    +0.000 C 
BRANCH  18  19
ATOM     19  C   PHE A   1       4.939   3.911  16.686  0.00  0.00    +0.000 C 
ATOM     20  O   PHE A   1       5.056   4.275  15.524  0.00  0.00    +0.000 OA
BRANCH  19  21
ATOM     21  OXT PHE A   1       4.828   2.586  16.969  0.00  0.00    +0.000 OA
ATOM     22  HXT PHE A   1       5.397   2.237  17.683  0.00  0.00    +0.000 HD
ENDBRANCH  19  21
ENDBRANCH  18  19
BRANCH  18  23
ATOM     23  CB  PHE A   1       3.415   5.584  17.821  0.00  0.00    +0.000 C 
BRANCH  23  24
ATOM     24  CG  PHE A   1       2.353   4.883  18.645  0.00  0.00    +0.000 A 
ATOM     25  CD1 PHE A   1       2.213   5.152  20.017  0.00  0.00    +0.000 A 
ATOM     26  CE1 PHE A   1       1.448   4.315  20.825  0.00  0.00    +0.000 A 
ATOM     27  CZ  PHE A   1       0.772   3.241  20.258  0.00  0.00    +0.000 A 
ATOM     28  CE2 PHE A   1       0.839   3.018  18.882  0.00  0.00    +0.000 A 
ATOM     29  CD2 PHE A   1       1.621   3.840  18.078  0.00  0.00    +0.000 A 
ENDBRANCH  23  24
ENDBRANCH  18  23
ENDBRANCH   3  18
TORSDOF 8
ENDMDL
MODEL 6
REMARK VINA RESULT:      -7.5      1.452      1.931
REMARK  Name = 
REMARK  8 active torsions:
REMARK  status: ('A' for Active; 'I' for Inactive)
REMARK    1  A    between atoms: C_2  and  C_3
REMARK    2  A    between atoms: C_3  and  N_4
REMARK    3  A    between atoms: N_7  and  C_8
REMARK    4  A    between atoms: N_14  and  CA_15
REMARK    5  A    between atoms: CA_15  and  CB_16
REMARK    6  A    between atoms: CA_15  and  C_23
REMARK    7  A    between atoms: CB_16  and  CG_17
REMARK    8  A    between atoms: C_23  and  OXT_25
REMARK                            x       y       z     vdW  Elec       q    Type
REMARK                         _______ _______ _______ _____ _____    ______ ____
ROOT
ATOM      1  O   UNK A   0       5.844   7.576  16.522  0.00  0.00    +0.000 OA
ATOM      2  C   UNK A   0       6.540   7.014  17.335  0.00  0.00    +0.000 C 
ATOM      3  N   PHE A   1       6.282   5.767  17.849  0.00  0.00    +0.000 N 
ATOM      4  H   PHE A   1       6.921   5.499  18.576  0.00  0.00    +0.000 HD
ENDROOT
BRANCH   2   5
ATOM      5  C   UNK A   0       7.837   7.655  17.933  0.00  0.00    +0.000 C 
BRANCH   5   6
ATOM      6  N   UNK A   0       8.100   9.052  17.567  0.00  0.00    +0.000 N 
ATOM      7  C   UNK A   0       8.702   9.860  18.474  0.00  0.00    +0.000 C 
ATOM      8  O   UNK A   0       8.969   9.453  19.617  0.00  0.00    +0.000 OA
ATOM      9  N   UNK A   0       8.963  11.115  18.060  0.00  0.00    +0.000 N 
ATOM     10  H   UNK A   0       7.546   9.466  16.824  0.00  0.00    +0.000 HD
ATOM     11  H   UNK A   0       8.856  11.314  17.073  0.00  0.00    +0.000 HD
BRANCH   9  12
ATOM     12  C   UNK A   0       9.511  12.165  18.938  0.00  0.00    +0.000 C 
ATOM     13  C   UNK A   0      10.882  11.825  19.555  0.00  0.00    +0.000 C 
ATOM     14  C   UNK A   0      11.947  11.662  18.473  0.00  0.00    +0.000 C 
ATOM     15  C   UNK A   0      12.077  12.935  17.638  0.00  0.00    +0.000 C 
ATOM     16  C   UNK A   0      10.734  13.426  17.096  0.00  0.00    +0.000 C 
ATOM     17  C   UNK A   0       9.651  13.490  18.178  0.00  0.00    +0.000 C 
ENDBRANCH   9  12
ENDBRANCH   5   6
ENDBRANCH   2   5
BRANCH   3  18
ATOM     18  CA  PHE A   1       5.172   4.828  17.535  0.00  0.00    +0.000 C 
BRANCH  18  19
ATOM     19  C   PHE A   1       5.384   4.242  16.115  0.00  0.00    +0.000 C 
ATOM     20  O   PHE A   1       5.055   4.791  15.073  0.00  0.00    +0.000 OA
BRANCH  19  21
ATOM     21  OXT PHE A   1       5.892   2.981  16.081  0.00  0.00    +0.000 OA
ATOM     22  HXT PHE A   1       6.465   2.756  15.321  0.00  0.00    +0.000 HD
ENDBRANCH  19  21
ENDBRANCH  18  19
BRANCH  18  23
ATOM     23  CB  PHE A   1       3.724   5.401  17.636  0.00  0.00    +0.000 C 
BRANCH  23  24
ATOM     24  CG  PHE A   1       2.830   4.538  18.504  0.00  0.00    +0.000 A 
ATOM     25  CD1 PHE A   1       2.150   3.434  17.961  0.00  0.00    +0.000 A 
ATOM     26  CE1 PHE A   1       1.119   2.823  18.671  0.00  0.00    +0.000 A 
ATOM     27  CZ  PHE A   1       0.804   3.272  19.948  0.00  0.00    +0.000 A 
ATOM     28  CE2 PHE A   1       1.531   4.313  20.525  0.00  0.00    +0.000 A 
ATOM     29  CD2 PHE A   1       2.546   4.938  19.809  0.00  0.00    +0.000 A 
ENDBRANCH  23  24
ENDBRANCH  18  23
ENDBRANCH   3  18
TORSDOF 8
ENDMDL
MODEL 7
REMARK VINA RESULT:      -7.5      2.108      3.046
REMARK  Name = 
REMARK  8 active torsions:
REMARK  status: ('A' for Active; 'I' for Inactive)
REMARK    1  A    between atoms: C_2  and  C_3
REMARK    2  A    between atoms: C_3  and  N_4
REMARK    3  A    between atoms: N_7  and  C_8
REMARK    4  A    between atoms: N_14  and  CA_15
REMARK    5  A    between atoms: CA_15  and  CB_16
REMARK    6  A    between atoms: CA_15  and  C_23
REMARK    7  A    between atoms: CB_16  and  CG_17
REMARK    8  A    between atoms: C_23  and  OXT_25
REMARK                            x       y       z     vdW  Elec       q    Type
REMARK                         _______ _______ _______ _____ _____    ______ ____
ROOT
ATOM      1  O   UNK A   0       5.259   6.263  16.378  0.00  0.00    +0.000 OA
ATOM      2  C   UNK A   0       5.973   6.334  17.351  0.00  0.00    +0.000 C 
ATOM      3  N   PHE A   1       5.585   6.001  18.625  0.00  0.00    +0.000 N 
ATOM      4  H   PHE A   1       6.283   6.206  19.318  0.00  0.00    +0.000 HD
ENDROOT
BRANCH   2   5
ATOM      5  C   UNK A   0       7.452   6.843  17.286  0.00  0.00    +0.000 C 
BRANCH   5   6
ATOM      6  N   UNK A   0       7.637   8.297  17.218  0.00  0.00    +0.000 N 
ATOM      7  C   UNK A   0       8.381   8.903  18.175  0.00  0.00    +0.000 C 
ATOM      8  O   UNK A   0       8.845   8.259  19.131  0.00  0.00    +0.000 OA
ATOM      9  N   UNK A   0       8.557  10.231  18.029  0.00  0.00    +0.000 N 
ATOM     10  H   UNK A   0       6.960   8.843  16.696  0.00  0.00    +0.000 HD
ATOM     11  H   UNK A   0       8.279  10.646  17.148  0.00  0.00    +0.000 HD
BRANCH   9  12
ATOM     12  C   UNK A   0       9.241  11.077  19.024  0.00  0.00    +0.000 C 
ATOM     13  C   UNK A   0      10.774  11.115  18.879  0.00  0.00    +0.000 C 
ATOM     14  C   UNK A   0      11.185  11.724  17.540  0.00  0.00    +0.000 C 
ATOM     15  C   UNK A   0      10.634  13.141  17.393  0.00  0.00    +0.000 C 
ATOM     16  C   UNK A   0       9.130  13.221  17.657  0.00  0.00    +0.000 C 
ATOM     17  C   UNK A   0       8.724  12.519  18.957  0.00  0.00    +0.000 C 
ENDBRANCH   9  12
ENDBRANCH   5   6
ENDBRANCH   2   5
BRANCH   3  18
ATOM     18  CA  PHE A   1       4.282   5.469  19.107  0.00  0.00    +0.000 C 
BRANCH  18  19
ATOM     19  C   PHE A   1       4.355   3.921  19.171  0.00  0.00    +0.000 C 
ATOM     20  O   PHE A   1       3.408   3.182  19.400  0.00  0.00    +0.000 OA
BRANCH  19  21
ATOM     21  OXT PHE A   1       5.604   3.397  19.052  0.00  0.00    +0.000 OA
ATOM     22  HXT PHE A   1       5.716   2.661  18.418  0.00  0.00    +0.000 HD
ENDBRANCH  19  21
ENDBRANCH  18  19
BRANCH  18  23
ATOM     23  CB  PHE A   1       3.016   5.882  18.293  0.00  0.00    +0.000 C 
BRANCH  23  24
ATOM     24  CG  PHE A   1       2.506   7.252  18.693  0.00  0.00    +0.000 A 
ATOM     25  CD1 PHE A   1       1.999   7.483  19.984  0.00  0.00    +0.000 A 
ATOM     26  CE1 PHE A   1       1.275   8.640  20.260  0.00  0.00    +0.000 A 
ATOM     27  CZ  PHE A   1       1.104   9.598  19.268  0.00  0.00    +0.000 A 
ATOM     28  CE2 PHE A   1       1.675   9.413  18.009  0.00  0.00    +0.000 A 
ATOM     29  CD2 PHE A   1       2.381   8.248  17.725  0.00  0.00    +0.000 A 
ENDBRANCH  23  24
ENDBRANCH  18  23
ENDBRANCH   3  18
TORSDOF 8
ENDMDL
MODEL 8
REMARK VINA RESULT:      -7.4      2.136      2.688
REMARK  Name = 
REMARK  8 active torsions:
REMARK  status: ('A' for Active; 'I' for Inactive)
REMARK    1  A    between atoms: C_2  and  C_3
REMARK    2  A    between atoms: C_3  and  N_4
REMARK    3  A    between atoms: N_7  and  C_8
REMARK    4  A    between atoms: N_14  and  CA_15
REMARK    5  A    between atoms: CA_15  and  CB_16
REMARK    6  A    between atoms: CA_15  and  C_23
REMARK    7  A    between atoms: CB_16  and  CG_17
REMARK    8  A    between atoms: C_23  and  OXT_25
REMARK                            x       y       z     vdW  Elec       q    Type
REMARK                         _______ _______ _______ _____ _____    ______ ____
ROOT
ATOM      1  O   UNK A   0       5.544   6.550  15.850  0.00  0.00    +0.000 OA
ATOM      2  C   UNK A   0       5.892   6.874  16.962  0.00  0.00    +0.000 C 
ATOM      3  N   PHE A   1       5.059   6.924  18.052  0.00  0.00    +0.000 N 
ATOM      4  H   PHE A   1       5.502   7.298  18.872  0.00  0.00    +0.000 HD
ENDROOT
BRANCH   2   5
ATOM      5  C   UNK A   0       7.357   7.306  17.303  0.00  0.00    +0.000 C 
BRANCH   5   6
ATOM      6  N   UNK A   0       7.636   8.746  17.270  0.00  0.00    +0.000 N 
ATOM      7  C   UNK A   0       8.466   9.270  18.205  0.00  0.00    +0.000 C 
ATOM      8  O   UNK A   0       8.933   8.564  19.114  0.00  0.00    +0.000 OA
ATOM      9  N   UNK A   0       8.722  10.588  18.091  0.00  0.00    +0.000 N 
ATOM     10  H   UNK A   0       6.970   9.353  16.802  0.00  0.00    +0.000 HD
ATOM     11  H   UNK A   0       8.428  11.049  17.239  0.00  0.00    +0.000 HD
BRANCH   9  12
ATOM     12  C   UNK A   0       9.511  11.352  19.074  0.00  0.00    +0.000 C 
ATOM     13  C   UNK A   0      11.010  11.463  18.737  0.00  0.00    +0.000 C 
ATOM     14  C   UNK A   0      11.225  12.221  17.428  0.00  0.00    +0.000 C 
ATOM     15  C   UNK A   0      10.626  13.624  17.505  0.00  0.00    +0.000 C 
ATOM     16  C   UNK A   0       9.169  13.619  17.968  0.00  0.00    +0.000 C 
ATOM     17  C   UNK A   0       8.955  12.773  19.228  0.00  0.00    +0.000 C 
ENDBRANCH   9  12
ENDBRANCH   5   6
ENDBRANCH   2   5
BRANCH   3  18
ATOM     18  CA  PHE A   1       3.615   6.582  18.154  0.00  0.00    +0.000 C 
BRANCH  18  19
ATOM     19  C   PHE A   1       2.772   7.874  17.999  0.00  0.00    +0.000 C 
ATOM     20  O   PHE A   1       2.796   8.615  17.025  0.00  0.00    +0.000 OA
BRANCH  19  21
ATOM     21  OXT PHE A   1       2.038   8.220  19.090  0.00  0.00    +0.000 OA
ATOM     22  HXT PHE A   1       1.833   9.169  19.202  0.00  0.00    +0.000 HD
ENDBRANCH  19  21
ENDBRANCH  18  19
BRANCH  18  23
ATOM     23  CB  PHE A   1       3.164   5.836  19.449  0.00  0.00    +0.000 C 
BRANCH  23  24
ATOM     24  CG  PHE A   1       2.302   4.629  19.139  0.00  0.00    +0.000 A 
ATOM     25  CD1 PHE A   1       1.331   4.185  20.053  0.00  0.00    +0.000 A 
ATOM     26  CE1 PHE A   1       0.747   2.929  19.906  0.00  0.00    +0.000 A 
ATOM     27  CZ  PHE A   1       1.084   2.137  18.815  0.00  0.00    +0.000 A 
ATOM     28  CE2 PHE A   1       1.985   2.607  17.859  0.00  0.00    +0.000 A 
ATOM     29  CD2 PHE A   1       2.585   3.852  18.016  0.00  0.00    +0.000 A 
ENDBRANCH  23  24
ENDBRANCH  18  23
ENDBRANCH   3  18
TORSDOF 8
ENDMDL
MODEL 9
REMARK VINA RESULT:      -7.3      1.901      2.928
REMARK  Name = 
REMARK  8 active torsions:
REMARK  status: ('A' for Active; 'I' for Inactive)
REMARK    1  A    between atoms: C_2  and  C_3
REMARK    2  A    between atoms: C_3  and  N_4
REMARK    3  A    between atoms: N_7  and  C_8
REMARK    4  A    between atoms: N_14  and  CA_15
REMARK    5  A    between atoms: CA_15  and  CB_16
REMARK    6  A    between atoms: CA_15  and  C_23
REMARK    7  A    between atoms: CB_16  and  CG_17
REMARK    8  A    between atoms: C_23  and  OXT_25
REMARK                            x       y       z     vdW  Elec       q    Type
REMARK                         _______ _______ _______ _____ _____    ______ ____
ROOT
ATOM      1  O   UNK A   0       8.432   7.230  18.882  0.00  0.00    +0.000 OA
ATOM      2  C   UNK A   0       7.924   7.812  17.953  0.00  0.00    +0.000 C 
ATOM      3  N   PHE A   1       6.957   7.278  17.138  0.00  0.00    +0.000 N 
ATOM      4  H   PHE A   1       6.716   7.875  16.366  0.00  0.00    +0.000 HD
ENDROOT
BRANCH   2   5
ATOM      5  C   UNK A   0       8.324   9.268  17.539  0.00  0.00    +0.000 C 
BRANCH   5   6
ATOM      6  N   UNK A   0       8.452  10.242  18.629  0.00  0.00    +0.000 N 
ATOM      7  C   UNK A   0       9.412  11.195  18.540  0.00  0.00    +0.000 C 
ATOM      8  O   UNK A   0      10.213  11.211  17.591  0.00  0.00    +0.000 OA
ATOM      9  N   UNK A   0       9.446  12.090  19.547  0.00  0.00    +0.000 N 
ATOM     10  H   UNK A   0       8.084   9.992  19.541  0.00  0.00    +0.000 HD
ATOM     11  H   UNK A   0       8.666  12.097  20.193  0.00  0.00    +0.000 HD
BRANCH   9  12
ATOM     12  C   UNK A   0      10.484  13.129  19.678  0.00  0.00    +0.000 C 
ATOM     13  C   UNK A   0      10.364  14.279  18.660  0.00  0.00    +0.000 C 
ATOM     14  C   UNK A   0       9.055  15.045  18.848  0.00  0.00    +0.000 C 
ATOM     15  C   UNK A   0       8.955  15.617  20.261  0.00  0.00    +0.000 C 
ATOM     16  C   UNK A   0       9.199  14.564  21.342  0.00  0.00    +0.000 C 
ATOM     17  C   UNK A   0      10.464  13.739  21.086  0.00  0.00    +0.000 C 
ENDBRANCH   9  12
ENDBRANCH   5   6
ENDBRANCH   2   5
BRANCH   3  18
ATOM     18  CA  PHE A   1       6.300   5.945  17.200  0.00  0.00    +0.000 C 
BRANCH  18  19
ATOM     19  C   PHE A   1       7.306   4.858  16.739  0.00  0.00    +0.000 C 
ATOM     20  O   PHE A   1       7.619   4.639  15.577  0.00  0.00    +0.000 OA
BRANCH  19  21
ATOM     21  OXT PHE A   1       7.777   4.052  17.727  0.00  0.00    +0.000 OA
ATOM     22  HXT PHE A   1       8.738   4.087  17.905  0.00  0.00    +0.000 HD
ENDBRANCH  19  21
ENDBRANCH  18  19
BRANCH  18  23
ATOM     23  CB  PHE A   1       4.974   5.783  16.392  0.00  0.00    +0.000 C 
BRANCH  23  24
ATOM     24  CG  PHE A   1       3.933   4.996  17.162  0.00  0.00    +0.000 A 
ATOM     25  CD1 PHE A   1       3.787   3.611  16.966  0.00  0.00    +0.000 A 
ATOM     26  CE1 PHE A   1       2.660   2.947  17.445  0.00  0.00    +0.000 A 
ATOM     27  CZ  PHE A   1       1.705   3.648  18.172  0.00  0.00    +0.000 A 
ATOM     28  CE2 PHE A   1       1.886   5.005  18.442  0.00  0.00    +0.000 A 
ATOM     29  CD2 PHE A   1       3.000   5.674  17.946  0.00  0.00    +0.000 A 
ENDBRANCH  23  24
ENDBRANCH  18  23
ENDBRANCH   3  18
TORSDOF 8
ENDMDL
