MODEL 1
REMARK VINA RESULT:      -8.8      0.000      0.000
REMARK  Name = 
REMARK  4 active torsions:
REMARK  status: ('A' for Active; 'I' for Inactive)
REMARK    1  A    between atoms: C_2  and  C_10
REMARK    2  A    between atoms: N_3  and  C_4
REMARK    3  A    between atoms: N_13  and  S_14
REMARK    4  A    between atoms: S_14  and  C_17
REMARK                            x       y       z     vdW  Elec       q    Type
REMARK                         _______ _______ _______ _____ _____    ______ ____
ROOT
ATOM      1  C   UNL     1       7.401   6.215  17.679  0.00  0.00    +0.000 C 
ATOM      2  C   UNL     1       7.047   5.491  18.991  0.00  0.00    +0.000 C 
ATOM      3  C   UNL     1       5.578   5.060  19.026  0.00  0.00    +0.000 C 
ATOM      4  N   UNL     1       4.678   6.238  18.843  0.00  0.00    +0.000 NA
ATOM      5  C   UNL     1       4.975   7.003  17.598  0.00  0.00    +0.000 C 
ATOM      6  C   UNL     1       6.451   7.403  17.522  0.00  0.00    +0.000 C 
ENDROOT
BRANCH   1   8
ATOM      7  O   UNL     1       7.886   4.103  16.652  0.00  0.00    +0.000 OA
ATOM      8  C   UNL     1       7.390   5.222  16.510  0.00  0.00    +0.000 C 
ATOM      9  N   UNL     1       6.877   5.698  15.317  0.00  0.00    +0.000 N 
ATOM     10  H   UNL     1       6.775   6.700  15.216  0.00  0.00    +0.000 HD
BRANCH   9  11
ATOM     11  C   UNL     1       6.718   4.918  14.142  0.00  0.00    +0.000 A 
ATOM     12  C   UNL     1       7.625   4.960  13.077  0.00  0.00    +0.000 A 
ATOM     13  C   UNL     1       7.422   4.197  11.924  0.00  0.00    +0.000 A 
ATOM     14  C   UNL     1       6.309   3.370  11.824  0.00  0.00    +0.000 A 
ATOM     15  C   UNL     1       5.405   3.302  12.882  0.00  0.00    +0.000 A 
ATOM     16  C   UNL     1       5.615   4.060  14.043  0.00  0.00    +0.000 A 
ENDBRANCH   9  11
ENDBRANCH   1   8
BRANCH   4  17
ATOM     17  S   UNL     1       2.986   5.835  18.983  0.00  0.00    +0.000 S 
ATOM     18  O   UNL     1       2.508   5.436  17.676  0.00  0.00    +0.000 OA
ATOM     19  O   UNL     1       2.827   4.980  20.139  0.00  0.00    +0.000 OA
BRANCH  17  20
ATOM     20  C   UNL     1       2.265   7.414  19.341  0.00  0.00    +0.000 A 
ATOM     21  C   UNL     1       1.889   8.301  18.326  0.00  0.00    +0.000 A 
ATOM     22  C   UNL     1       1.127   9.428  18.655  0.00  0.00    +0.000 A 
ATOM     23  C   UNL     1       0.732   9.634  19.979  0.00  0.00    +0.000 A 
ATOM     24  C   UNL     1       1.205   8.786  20.984  0.00  0.00    +0.000 A 
ATOM     25  C   UNL     1       1.996   7.691  20.679  0.00  0.00    +0.000 A 
ATOM     26  O   UNL     1       0.834   8.927  22.294  0.00  0.00    +0.000 OA
ATOM     27  C   UNL     1      -0.534   9.325  22.303  0.00  0.00    +0.000 C 
ATOM     28  C   UNL     1      -0.706  10.638  21.551  0.00  0.00    +0.000 C 
ATOM     29  O   UNL     1      -0.180  10.626  20.212  0.00  0.00    +0.000 OA
ENDBRANCH  17  20
ENDBRANCH   4  17
TORSDOF 4
ENDMDL
MODEL 2
REMARK VINA RESULT:      -8.7      0.947      2.014
REMARK  Name = 
REMARK  4 active torsions:
REMARK  status: ('A' for Active; 'I' for Inactive)
REMARK    1  A    between atoms: C_2  and  C_10
REMARK    2  A    between atoms: N_3  and  C_4
REMARK    3  A    between atoms: N_13  and  S_14
REMARK    4  A    between atoms: S_14  and  C_17
REMARK                            x       y       z     vdW  Elec       q    Type
REMARK                         _______ _______ _______ _____ _____    ______ ____
ROOT
ATOM      1  C   UNL     1       7.311   6.239  17.636  0.00  0.00    +0.000 C 
ATOM      2  C   UNL     1       7.094   5.486  18.962  0.00  0.00    +0.000 C 
ATOM      3  C   UNL     1       5.680   4.905  19.062  0.00  0.00    +0.000 C 
ATOM      4  N   UNL     1       4.656   5.984  18.923  0.00  0.00    +0.000 NA
ATOM      5  C   UNL     1       4.816   6.772  17.668  0.00  0.00    +0.000 C 
ATOM      6  C   UNL     1       6.237   7.322  17.525  0.00  0.00    +0.000 C 
ENDROOT
BRANCH   1   8
ATOM      7  O   UNL     1       7.938   4.172  16.594  0.00  0.00    +0.000 OA
ATOM      8  C   UNL     1       7.350   5.247  16.466  0.00  0.00    +0.000 C 
ATOM      9  N   UNL     1       6.769   5.679  15.288  0.00  0.00    +0.000 N 
ATOM     10  H   UNL     1       6.583   6.669  15.191  0.00  0.00    +0.000 HD
BRANCH   9  11
ATOM     11  C   UNL     1       6.643   4.887  14.117  0.00  0.00    +0.000 A 
ATOM     12  C   UNL     1       5.603   3.969  13.933  0.00  0.00    +0.000 A 
ATOM     13  C   UNL     1       5.524   3.187  12.777  0.00  0.00    +0.000 A 
ATOM     14  C   UNL     1       6.486   3.320  11.781  0.00  0.00    +0.000 A 
ATOM     15  C   UNL     1       7.518   4.242  11.940  0.00  0.00    +0.000 A 
ATOM     16  C   UNL     1       7.590   5.033  13.095  0.00  0.00    +0.000 A 
ENDBRANCH   9  11
ENDBRANCH   1   8
BRANCH   4  17
ATOM     17  S   UNL     1       3.023   5.408  19.139  0.00  0.00    +0.000 S 
ATOM     18  O   UNL     1       2.564   4.871  17.876  0.00  0.00    +0.000 OA
ATOM     19  O   UNL     1       2.986   4.622  20.352  0.00  0.00    +0.000 OA
BRANCH  17  20
ATOM     20  C   UNL     1       2.139   6.919  19.414  0.00  0.00    +0.000 A 
ATOM     21  C   UNL     1       1.612   7.248  20.669  0.00  0.00    +0.000 A 
ATOM     22  C   UNL     1       1.123   8.541  20.884  0.00  0.00    +0.000 A 
ATOM     23  C   UNL     1       1.194   9.487  19.859  0.00  0.00    +0.000 A 
ATOM     24  C   UNL     1       1.634   9.103  18.589  0.00  0.00    +0.000 A 
ATOM     25  C   UNL     1       2.080   7.815  18.349  0.00  0.00    +0.000 A 
ATOM     26  O   UNL     1       1.745   9.992  17.554  0.00  0.00    +0.000 OA
ATOM     27  C   UNL     1       2.197  11.226  18.105  0.00  0.00    +0.000 C 
ATOM     28  C   UNL     1       1.205  11.732  19.145  0.00  0.00    +0.000 C 
ATOM     29  O   UNL     1       0.900  10.784  20.182  0.00  0.00    +0.000 OA
ENDBRANCH  17  20
ENDBRANCH   4  17
TORSDOF 4
ENDMDL
MODEL 3
REMARK VINA RESULT:      -7.6      0.968      1.105
REMARK  Name = 
REMARK  4 active torsions:
REMARK  status: ('A' for Active; 'I' for Inactive)
REMARK    1  A    between atoms: C_2  and  C_10
REMARK    2  A    between atoms: N_3  and  C_4
REMARK    3  A    between atoms: N_13  and  S_14
REMARK    4  A    between atoms: S_14  and  C_17
REMARK                            x       y       z     vdW  Elec       q    Type
REMARK                         _______ _______ _______ _____ _____    ______ ____
ROOT
ATOM      1  C   UNL     1       6.777   5.442  16.771  0.00  0.00    +0.000 C 
ATOM      2  C   UNL     1       6.616   4.840  18.178  0.00  0.00    +0.000 C 
ATOM      3  C   UNL     1       5.144   4.608  18.533  0.00  0.00    +0.000 C 
ATOM      4  N   UNL     1       4.371   5.883  18.439  0.00  0.00    +0.000 NA
ATOM      5  C   UNL     1       4.496   6.536  17.105  0.00  0.00    +0.000 C 
ATOM      6  C   UNL     1       5.962   6.734  16.711  0.00  0.00    +0.000 C 
ENDROOT
BRANCH   1   8
ATOM      7  O   UNL     1       6.041   3.276  16.051  0.00  0.00    +0.000 OA
ATOM      8  C   UNL     1       6.412   4.399  15.706  0.00  0.00    +0.000 C 
ATOM      9  N   UNL     1       6.608   4.783  14.392  0.00  0.00    +0.000 N 
ATOM     10  H   UNL     1       7.187   5.594  14.220  0.00  0.00    +0.000 HD
BRANCH   9  11
ATOM     11  C   UNL     1       6.268   3.991  13.264  0.00  0.00    +0.000 A 
ATOM     12  C   UNL     1       7.225   3.321  12.493  0.00  0.00    +0.000 A 
ATOM     13  C   UNL     1       6.856   2.571  11.375  0.00  0.00    +0.000 A 
ATOM     14  C   UNL     1       5.517   2.472  11.014  0.00  0.00    +0.000 A 
ATOM     15  C   UNL     1       4.549   3.117  11.780  0.00  0.00    +0.000 A 
ATOM     16  C   UNL     1       4.919   3.861  12.909  0.00  0.00    +0.000 A 
ENDBRANCH   9  11
ENDBRANCH   1   8
BRANCH   4  17
ATOM     17  S   UNL     1       2.707   5.712  18.937  0.00  0.00    +0.000 S 
ATOM     18  O   UNL     1       1.964   5.136  17.837  0.00  0.00    +0.000 OA
ATOM     19  O   UNL     1       2.697   5.110  20.253  0.00  0.00    +0.000 OA
BRANCH  17  20
ATOM     20  C   UNL     1       2.197   7.403  19.082  0.00  0.00    +0.000 A 
ATOM     21  C   UNL     1       1.999   8.213  17.958  0.00  0.00    +0.000 A 
ATOM     22  C   UNL     1       1.387   9.461  18.119  0.00  0.00    +0.000 A 
ATOM     23  C   UNL     1       0.959   9.865  19.385  0.00  0.00    +0.000 A 
ATOM     24  C   UNL     1       1.258   9.079  20.502  0.00  0.00    +0.000 A 
ATOM     25  C   UNL     1       1.902   7.862  20.364  0.00  0.00    +0.000 A 
ATOM     26  O   UNL     1       0.845   9.414  21.763  0.00  0.00    +0.000 OA
ATOM     27  C   UNL     1      -0.453   9.989  21.643  0.00  0.00    +0.000 C 
ATOM     28  C   UNL     1      -0.401  11.221  20.748  0.00  0.00    +0.000 C 
ATOM     29  O   UNL     1       0.184  10.990  19.455  0.00  0.00    +0.000 OA
ENDBRANCH  17  20
ENDBRANCH   4  17
TORSDOF 4
ENDMDL
MODEL 4
REMARK VINA RESULT:      -7.6      2.940      8.758
REMARK  Name = 
REMARK  4 active torsions:
REMARK  status: ('A' for Active; 'I' for Inactive)
REMARK    1  A    between atoms: C_2  and  C_10
REMARK    2  A    between atoms: N_3  and  C_4
REMARK    3  A    between atoms: N_13  and  S_14
REMARK    4  A    between atoms: S_14  and  C_17
REMARK                            x       y       z     vdW  Elec       q    Type
REMARK                         _______ _______ _______ _____ _____    ______ ____
ROOT
ATOM      1  C   UNL     1       1.114  10.392  19.659  0.00  0.00    +0.000 C 
ATOM      2  C   UNL     1       2.051  10.022  18.494  0.00  0.00    +0.000 C 
ATOM      3  C   UNL     1       2.012   8.523  18.186  0.00  0.00    +0.000 C 
ATOM      4  N   UNL     1       2.375   7.726  19.396  0.00  0.00    +0.000 NA
ATOM      5  C   UNL     1       1.519   8.045  20.574  0.00  0.00    +0.000 C 
ATOM      6  C   UNL     1       1.507   9.547  20.871  0.00  0.00    +0.000 C 
ENDROOT
BRANCH   1   8
ATOM      7  O   UNL     1      -1.134   9.594  19.909  0.00  0.00    +0.000 OA
ATOM      8  C   UNL     1      -0.351  10.250  19.222  0.00  0.00    +0.000 C 
ATOM      9  N   UNL     1      -0.677  10.825  18.007  0.00  0.00    +0.000 N 
ATOM     10  H   UNL     1       0.082  11.075  17.387  0.00  0.00    +0.000 HD
BRANCH   9  11
ATOM     11  C   UNL     1      -1.987  10.862  17.462  0.00  0.00    +0.000 A 
ATOM     12  C   UNL     1      -2.330  10.213  16.271  0.00  0.00    +0.000 A 
ATOM     13  C   UNL     1      -3.624  10.293  15.750  0.00  0.00    +0.000 A 
ATOM     14  C   UNL     1      -4.600  11.020  16.422  0.00  0.00    +0.000 A 
ATOM     15  C   UNL     1      -4.281  11.659  17.619  0.00  0.00    +0.000 A 
ATOM     16  C   UNL     1      -2.985  11.569  18.146  0.00  0.00    +0.000 A 
ENDBRANCH   9  11
ENDBRANCH   1   8
BRANCH   4  17
ATOM     17  S   UNL     1       2.458   6.010  19.086  0.00  0.00    +0.000 S 
ATOM     18  O   UNL     1       2.450   5.321  20.359  0.00  0.00    +0.000 OA
ATOM     19  O   UNL     1       1.496   5.698  18.052  0.00  0.00    +0.000 OA
BRANCH  17  20
ATOM     20  C   UNL     1       4.089   5.842  18.413  0.00  0.00    +0.000 A 
ATOM     21  C   UNL     1       5.139   5.284  19.152  0.00  0.00    +0.000 A 
ATOM     22  C   UNL     1       6.338   4.974  18.502  0.00  0.00    +0.000 A 
ATOM     23  C   UNL     1       6.459   5.196  17.128  0.00  0.00    +0.000 A 
ATOM     24  C   UNL     1       5.431   5.844  16.437  0.00  0.00    +0.000 A 
ATOM     25  C   UNL     1       4.256   6.197  17.076  0.00  0.00    +0.000 A 
ATOM     26  O   UNL     1       5.486   6.069  15.088  0.00  0.00    +0.000 OA
ATOM     27  C   UNL     1       6.118   4.936  14.498  0.00  0.00    +0.000 C 
ATOM     28  C   UNL     1       7.518   4.756  15.071  0.00  0.00    +0.000 C 
ATOM     29  O   UNL     1       7.565   4.684  16.506  0.00  0.00    +0.000 OA
ENDBRANCH  17  20
ENDBRANCH   4  17
TORSDOF 4
ENDMDL
MODEL 5
REMARK VINA RESULT:      -7.2      3.826     10.749
REMARK  Name = 
REMARK  4 active torsions:
REMARK  status: ('A' for Active; 'I' for Inactive)
REMARK    1  A    between atoms: C_2  and  C_10
REMARK    2  A    between atoms: N_3  and  C_4
REMARK    3  A    between atoms: N_13  and  S_14
REMARK    4  A    between atoms: S_14  and  C_17
REMARK                            x       y       z     vdW  Elec       q    Type
REMARK                         _______ _______ _______ _____ _____    ______ ____
ROOT
ATOM      1  C   UNL     1      -0.908  13.325  19.735  0.00  0.00    +0.000 C 
ATOM      2  C   UNL     1      -1.332  12.044  18.995  0.00  0.00    +0.000 C 
ATOM      3  C   UNL     1      -1.069  10.789  19.832  0.00  0.00    +0.000 C 
ATOM      4  N   UNL     1       0.374  10.699  20.209  0.00  0.00    +0.000 NA
ATOM      5  C   UNL     1       0.862  11.917  20.916  0.00  0.00    +0.000 C 
ATOM      6  C   UNL     1       0.566  13.188  20.116  0.00  0.00    +0.000 C 
ENDROOT
BRANCH   1   8
ATOM      7  O   UNL     1      -1.778  14.652  21.534  0.00  0.00    +0.000 OA
ATOM      8  C   UNL     1      -1.856  13.591  20.912  0.00  0.00    +0.000 C 
ATOM      9  N   UNL     1      -2.705  12.554  21.250  0.00  0.00    +0.000 N 
ATOM     10  H   UNL     1      -2.493  11.634  20.886  0.00  0.00    +0.000 HD
BRANCH   9  11
ATOM     11  C   UNL     1      -3.700  12.626  22.261  0.00  0.00    +0.000 A 
ATOM     12  C   UNL     1      -3.415  12.434  23.618  0.00  0.00    +0.000 A 
ATOM     13  C   UNL     1      -4.424  12.487  24.583  0.00  0.00    +0.000 A 
ATOM     14  C   UNL     1      -5.737  12.743  24.203  0.00  0.00    +0.000 A 
ATOM     15  C   UNL     1      -6.036  12.954  22.859  0.00  0.00    +0.000 A 
ATOM     16  C   UNL     1      -5.021  12.911  21.892  0.00  0.00    +0.000 A 
ENDBRANCH   9  11
ENDBRANCH   1   8
BRANCH   4  17
ATOM     17  S   UNL     1       0.766   9.233  21.073  0.00  0.00    +0.000 S 
ATOM     18  O   UNL     1       1.764   9.551  22.071  0.00  0.00    +0.000 OA
ATOM     19  O   UNL     1      -0.476   8.582  21.428  0.00  0.00    +0.000 OA
BRANCH  17  20
ATOM     20  C   UNL     1       1.569   8.277  19.817  0.00  0.00    +0.000 A 
ATOM     21  C   UNL     1       1.789   8.783  18.530  0.00  0.00    +0.000 A 
ATOM     22  C   UNL     1       2.619   8.075  17.654  0.00  0.00    +0.000 A 
ATOM     23  C   UNL     1       3.235   6.897  18.082  0.00  0.00    +0.000 A 
ATOM     24  C   UNL     1       2.919   6.365  19.335  0.00  0.00    +0.000 A 
ATOM     25  C   UNL     1       2.065   7.032  20.197  0.00  0.00    +0.000 A 
ATOM     26  O   UNL     1       3.507   5.227  19.816  0.00  0.00    +0.000 OA
ATOM     27  C   UNL     1       4.866   5.241  19.387  0.00  0.00    +0.000 C 
ATOM     28  C   UNL     1       4.937   5.283  17.865  0.00  0.00    +0.000 C 
ATOM     29  O   UNL     1       4.194   6.360  17.268  0.00  0.00    +0.000 OA
ENDBRANCH  17  20
ENDBRANCH   4  17
TORSDOF 4
ENDMDL
MODEL 6
REMARK VINA RESULT:      -7.2      2.514      4.642
REMARK  Name = 
REMARK  4 active torsions:
REMARK  status: ('A' for Active; 'I' for Inactive)
REMARK    1  A    between atoms: C_2  and  C_10
REMARK    2  A    between atoms: N_3  and  C_4
REMARK    3  A    between atoms: N_13  and  S_14
REMARK    4  A    between atoms: S_14  and  C_17
REMARK                            x       y       z     vdW  Elec       q    Type
REMARK                         _______ _______ _______ _____ _____    ______ ____
ROOT
ATOM      1  C   UNL     1       7.793   5.609  18.276  0.00  0.00    +0.000 C 
ATOM      2  C   UNL     1       7.206   4.788  17.114  0.00  0.00    +0.000 C 
ATOM      3  C   UNL     1       5.684   4.936  17.024  0.00  0.00    +0.000 C 
ATOM      4  N   UNL     1       5.038   4.527  18.307  0.00  0.00    +0.000 NA
ATOM      5  C   UNL     1       5.572   5.269  19.484  0.00  0.00    +0.000 C 
ATOM      6  C   UNL     1       7.098   5.172  19.565  0.00  0.00    +0.000 C 
ENDROOT
BRANCH   1   8
ATOM      7  O   UNL     1       6.896   7.506  17.115  0.00  0.00    +0.000 OA
ATOM      8  C   UNL     1       7.693   7.109  17.966  0.00  0.00    +0.000 C 
ATOM      9  N   UNL     1       8.590   7.925  18.630  0.00  0.00    +0.000 N 
ATOM     10  H   UNL     1       9.388   7.486  19.071  0.00  0.00    +0.000 HD
BRANCH   9  11
ATOM     11  C   UNL     1       8.613   9.341  18.532  0.00  0.00    +0.000 A 
ATOM     12  C   UNL     1       7.901  10.043  17.553  0.00  0.00    +0.000 A 
ATOM     13  C   UNL     1       7.968  11.436  17.471  0.00  0.00    +0.000 A 
ATOM     14  C   UNL     1       8.746  12.150  18.377  0.00  0.00    +0.000 A 
ATOM     15  C   UNL     1       9.447  11.468  19.368  0.00  0.00    +0.000 A 
ATOM     16  C   UNL     1       9.371  10.071  19.457  0.00  0.00    +0.000 A 
ENDBRANCH   9  11
ENDBRANCH   1   8
BRANCH   4  17
ATOM     17  S   UNL     1       3.294   4.566  18.238  0.00  0.00    +0.000 S 
ATOM     18  O   UNL     1       2.891   4.303  16.873  0.00  0.00    +0.000 OA
ATOM     19  O   UNL     1       2.788   3.776  19.339  0.00  0.00    +0.000 OA
BRANCH  17  20
ATOM     20  C   UNL     1       2.956   6.274  18.561  0.00  0.00    +0.000 A 
ATOM     21  C   UNL     1       3.088   7.254  17.569  0.00  0.00    +0.000 A 
ATOM     22  C   UNL     1       2.598   8.541  17.816  0.00  0.00    +0.000 A 
ATOM     23  C   UNL     1       1.964   8.821  19.029  0.00  0.00    +0.000 A 
ATOM     24  C   UNL     1       1.936   7.852  20.036  0.00  0.00    +0.000 A 
ATOM     25  C   UNL     1       2.455   6.587  19.823  0.00  0.00    +0.000 A 
ATOM     26  O   UNL     1       1.310   8.063  21.235  0.00  0.00    +0.000 OA
ATOM     27  C   UNL     1       0.137   8.828  20.970  0.00  0.00    +0.000 C 
ATOM     28  C   UNL     1       0.510  10.153  20.317  0.00  0.00    +0.000 C 
ATOM     29  O   UNL     1       1.321  10.024  19.136  0.00  0.00    +0.000 OA
ENDBRANCH  17  20
ENDBRANCH   4  17
TORSDOF 4
ENDMDL
MODEL 7
REMARK VINA RESULT:      -7.1      2.930      8.396
REMARK  Name = 
REMARK  4 active torsions:
REMARK  status: ('A' for Active; 'I' for Inactive)
REMARK    1  A    between atoms: C_2  and  C_10
REMARK    2  A    between atoms: N_3  and  C_4
REMARK    3  A    between atoms: N_13  and  S_14
REMARK    4  A    between atoms: S_14  and  C_17
REMARK                            x       y       z     vdW  Elec       q    Type
REMARK                         _______ _______ _______ _____ _____    ______ ____
ROOT
ATOM      1  C   UNL     1       1.431   9.730  19.727  0.00  0.00    +0.000 C 
ATOM      2  C   UNL     1       2.236   8.938  18.681  0.00  0.00    +0.000 C 
ATOM      3  C   UNL     1       1.913   7.441  18.727  0.00  0.00    +0.000 C 
ATOM      4  N   UNL     1       2.175   6.887  20.089  0.00  0.00    +0.000 NA
ATOM      5  C   UNL     1       1.442   7.619  21.160  0.00  0.00    +0.000 C 
ATOM      6  C   UNL     1       1.715   9.124  21.102  0.00  0.00    +0.000 C 
ENDROOT
BRANCH   1   8
ATOM      7  O   UNL     1      -0.894   9.253  20.068  0.00  0.00    +0.000 OA
ATOM      8  C   UNL     1      -0.051   9.769  19.333  0.00  0.00    +0.000 C 
ATOM      9  N   UNL     1      -0.334  10.330  18.101  0.00  0.00    +0.000 N 
ATOM     10  H   UNL     1       0.432  10.450  17.451  0.00  0.00    +0.000 HD
BRANCH   9  11
ATOM     11  C   UNL     1      -1.644  10.520  17.587  0.00  0.00    +0.000 A 
ATOM     12  C   UNL     1      -2.551  11.429  18.143  0.00  0.00    +0.000 A 
ATOM     13  C   UNL     1      -3.841  11.571  17.626  0.00  0.00    +0.000 A 
ATOM     14  C   UNL     1      -4.240  10.809  16.534  0.00  0.00    +0.000 A 
ATOM     15  C   UNL     1      -3.345   9.912  15.956  0.00  0.00    +0.000 A 
ATOM     16  C   UNL     1      -2.047   9.777  16.469  0.00  0.00    +0.000 A 
ENDBRANCH   9  11
ENDBRANCH   1   8
BRANCH   4  17
ATOM     17  S   UNL     1       1.933   5.161  20.183  0.00  0.00    +0.000 S 
ATOM     18  O   UNL     1       2.332   4.721  21.503  0.00  0.00    +0.000 OA
ATOM     19  O   UNL     1       0.618   4.868  19.655  0.00  0.00    +0.000 OA
BRANCH  17  20
ATOM     20  C   UNL     1       3.149   4.561  19.043  0.00  0.00    +0.000 A 
ATOM     21  C   UNL     1       2.801   4.097  17.769  0.00  0.00    +0.000 A 
ATOM     22  C   UNL     1       3.814   3.846  16.836  0.00  0.00    +0.000 A 
ATOM     23  C   UNL     1       5.146   4.089  17.179  0.00  0.00    +0.000 A 
ATOM     24  C   UNL     1       5.470   4.457  18.487  0.00  0.00    +0.000 A 
ATOM     25  C   UNL     1       4.482   4.667  19.434  0.00  0.00    +0.000 A 
ATOM     26  O   UNL     1       6.755   4.728  18.873  0.00  0.00    +0.000 OA
ATOM     27  C   UNL     1       7.391   5.392  17.784  0.00  0.00    +0.000 C 
ATOM     28  C   UNL     1       7.377   4.503  16.547  0.00  0.00    +0.000 C 
ATOM     29  O   UNL     1       6.071   4.030  16.173  0.00  0.00    +0.000 OA
ENDBRANCH  17  20
ENDBRANCH   4  17
TORSDOF 4
ENDMDL
MODEL 8
REMARK VINA RESULT:      -7.1      2.336      4.542
REMARK  Name = 
REMARK  4 active torsions:
REMARK  status: ('A' for Active; 'I' for Inactive)
REMARK    1  A    between atoms: C_2  and  C_10
REMARK    2  A    between atoms: N_3  and  C_4
REMARK    3  A    between atoms: N_13  and  S_14
REMARK    4  A    between atoms: S_14  and  C_17
REMARK                            x       y       z     vdW  Elec       q    Type
REMARK                         _______ _______ _______ _____ _____    ______ ____
ROOT
ATOM      1  C   UNL     1       6.921   6.010  16.690  0.00  0.00    +0.000 C 
ATOM      2  C   UNL     1       5.608   6.567  16.111  0.00  0.00    +0.000 C 
ATOM      3  C   UNL     1       4.495   6.610  17.163  0.00  0.00    +0.000 C 
ATOM      4  N   UNL     1       4.257   5.250  17.734  0.00  0.00    +0.000 NA
ATOM      5  C   UNL     1       5.494   4.638  18.298  0.00  0.00    +0.000 C 
ATOM      6  C   UNL     1       6.634   4.628  17.277  0.00  0.00    +0.000 C 
ENDROOT
BRANCH   1   8
ATOM      7  O   UNL     1       7.799   6.661  18.825  0.00  0.00    +0.000 OA
ATOM      8  C   UNL     1       7.530   7.016  17.677  0.00  0.00    +0.000 C 
ATOM      9  N   UNL     1       7.665   8.312  17.213  0.00  0.00    +0.000 N 
ATOM     10  H   UNL     1       7.150   8.569  16.381  0.00  0.00    +0.000 HD
BRANCH   9  11
ATOM     11  C   UNL     1       8.266   9.369  17.946  0.00  0.00    +0.000 A 
ATOM     12  C   UNL     1       8.953   9.162  19.147  0.00  0.00    +0.000 A 
ATOM     13  C   UNL     1       9.510  10.230  19.855  0.00  0.00    +0.000 A 
ATOM     14  C   UNL     1       9.394  11.526  19.363  0.00  0.00    +0.000 A 
ATOM     15  C   UNL     1       8.728  11.748  18.160  0.00  0.00    +0.000 A 
ATOM     16  C   UNL     1       8.179  10.675  17.445  0.00  0.00    +0.000 A 
ENDBRANCH   9  11
ENDBRANCH   1   8
BRANCH   4  17
ATOM     17  S   UNL     1       2.925   5.205  18.861  0.00  0.00    +0.000 S 
ATOM     18  O   UNL     1       1.840   4.470  18.247  0.00  0.00    +0.000 OA
ATOM     19  O   UNL     1       3.451   4.833  20.156  0.00  0.00    +0.000 OA
BRANCH  17  20
ATOM     20  C   UNL     1       2.437   6.907  18.914  0.00  0.00    +0.000 A 
ATOM     21  C   UNL     1       2.255   7.660  17.748  0.00  0.00    +0.000 A 
ATOM     22  C   UNL     1       1.659   8.923  17.840  0.00  0.00    +0.000 A 
ATOM     23  C   UNL     1       1.232   9.398  19.082  0.00  0.00    +0.000 A 
ATOM     24  C   UNL     1       1.516   8.669  20.239  0.00  0.00    +0.000 A 
ATOM     25  C   UNL     1       2.145   7.438  20.169  0.00  0.00    +0.000 A 
ATOM     26  O   UNL     1       1.104   9.076  21.479  0.00  0.00    +0.000 OA
ATOM     27  C   UNL     1      -0.186   9.661  21.323  0.00  0.00    +0.000 C 
ATOM     28  C   UNL     1      -0.114  10.843  20.365  0.00  0.00    +0.000 C 
ATOM     29  O   UNL     1       0.472  10.536  19.089  0.00  0.00    +0.000 OA
ENDBRANCH  17  20
ENDBRANCH   4  17
TORSDOF 4
ENDMDL
MODEL 9
REMARK VINA RESULT:      -7.1      1.168      1.520
REMARK  Name = 
REMARK  4 active torsions:
REMARK  status: ('A' for Active; 'I' for Inactive)
REMARK    1  A    between atoms: C_2  and  C_10
REMARK    2  A    between atoms: N_3  and  C_4
REMARK    3  A    between atoms: N_13  and  S_14
REMARK    4  A    between atoms: S_14  and  C_17
REMARK                            x       y       z     vdW  Elec       q    Type
REMARK                         _______ _______ _______ _____ _____    ______ ____
ROOT
ATOM      1  C   UNL     1       6.734   5.784  16.743  0.00  0.00    +0.000 C 
ATOM      2  C   UNL     1       6.468   4.597  17.687  0.00  0.00    +0.000 C 
ATOM      3  C   UNL     1       4.976   4.439  17.996  0.00  0.00    +0.000 C 
ATOM      4  N   UNL     1       4.426   5.692  18.595  0.00  0.00    +0.000 NA
ATOM      5  C   UNL     1       4.664   6.891  17.742  0.00  0.00    +0.000 C 
ATOM      6  C   UNL     1       6.144   7.041  17.382  0.00  0.00    +0.000 C 
ENDROOT
BRANCH   1   8
ATOM      7  O   UNL     1       5.506   6.291  14.745  0.00  0.00    +0.000 OA
ATOM      8  C   UNL     1       6.206   5.467  15.337  0.00  0.00    +0.000 C 
ATOM      9  N   UNL     1       6.498   4.206  14.852  0.00  0.00    +0.000 N 
ATOM     10  H   UNL     1       6.811   3.508  15.514  0.00  0.00    +0.000 HD
BRANCH   9  11
ATOM     11  C   UNL     1       6.160   3.746  13.552  0.00  0.00    +0.000 A 
ATOM     12  C   UNL     1       4.838   3.666  13.098  0.00  0.00    +0.000 A 
ATOM     13  C   UNL     1       4.540   3.184  11.821  0.00  0.00    +0.000 A 
ATOM     14  C   UNL     1       5.566   2.782  10.972  0.00  0.00    +0.000 A 
ATOM     15  C   UNL     1       6.888   2.871  11.401  0.00  0.00    +0.000 A 
ATOM     16  C   UNL     1       7.187   3.365  12.679  0.00  0.00    +0.000 A 
ENDBRANCH   9  11
ENDBRANCH   1   8
BRANCH   4  17
ATOM     17  S   UNL     1       2.754   5.544  19.075  0.00  0.00    +0.000 S 
ATOM     18  O   UNL     1       2.029   4.916  17.992  0.00  0.00    +0.000 OA
ATOM     19  O   UNL     1       2.723   5.005  20.417  0.00  0.00    +0.000 OA
BRANCH  17  20
ATOM     20  C   UNL     1       2.242   7.239  19.131  0.00  0.00    +0.000 A 
ATOM     21  C   UNL     1       2.048   7.991  17.966  0.00  0.00    +0.000 A 
ATOM     22  C   UNL     1       1.434   9.245  18.061  0.00  0.00    +0.000 A 
ATOM     23  C   UNL     1       1.001   9.712  19.303  0.00  0.00    +0.000 A 
ATOM     24  C   UNL     1       1.296   8.985  20.460  0.00  0.00    +0.000 A 
ATOM     25  C   UNL     1       1.943   7.763  20.387  0.00  0.00    +0.000 A 
ATOM     26  O   UNL     1       0.879   9.383  21.701  0.00  0.00    +0.000 OA
ATOM     27  C   UNL     1      -0.419   9.950  21.547  0.00  0.00    +0.000 C 
ATOM     28  C   UNL     1      -0.366  11.135  20.590  0.00  0.00    +0.000 C 
ATOM     29  O   UNL     1       0.224  10.838  19.313  0.00  0.00    +0.000 OA
ENDBRANCH  17  20
ENDBRANCH   4  17
TORSDOF 4
ENDMDL
