MODEL 1
REMARK VINA RESULT:      -7.1      0.000      0.000
REMARK  Name = 
REMARK  1 active torsions:
REMARK  status: ('A' for Active; 'I' for Inactive)
REMARK    1  A    between atoms: O_1  and  C_2
REMARK                            x       y       z     vdW  Elec       q    Type
REMARK                         _______ _______ _______ _____ _____    ______ ____
ROOT
ATOM      1  C   UNL     1       3.772   3.071  18.094  0.00  0.00    +0.000 A 
ATOM      2  C   UNL     1       2.955   3.364  19.163  0.00  0.00    +0.000 A 
ATOM      3  C   UNL     1       2.638   4.688  19.451  0.00  0.00    +0.000 A 
ATOM      4  C   UNL     1       1.802   4.961  20.545  0.00  0.00    +0.000 A 
ATOM      5  C   UNL     1       1.458   6.260  20.874  0.00  0.00    +0.000 A 
ATOM      6  C   UNL     1       1.956   7.287  20.101  0.00  0.00    +0.000 A 
ATOM      7  C   UNL     1       2.782   6.998  19.022  0.00  0.00    +0.000 A 
ATOM      8  N   UNL     1       3.136   5.724  18.677  0.00  0.00    +0.000 N 
ATOM      9  C   UNL     1       3.961   5.443  17.599  0.00  0.00    +0.000 A 
ATOM     10  C   UNL     1       4.515   6.437  16.756  0.00  0.00    +0.000 A 
ATOM     11  C   UNL     1       5.347   6.119  15.673  0.00  0.00    +0.000 A 
ATOM     12  C   UNL     1       5.650   4.797  15.399  0.00  0.00    +0.000 A 
ATOM     13 CL   UNL     1       6.667   4.405  14.074  0.00  0.00    +0.000 Cl
ATOM     14  C   UNL     1       5.128   3.790  16.202  0.00  0.00    +0.000 A 
ATOM     15  C   UNL     1       4.288   4.090  17.298  0.00  0.00    +0.000 A 
ENDROOT
BRANCH   1  16
ATOM     16  O   UNL     1       4.086   1.773  17.807  0.00  0.00    +0.000 OA
ATOM     17  H   UNL     1       5.045   1.607  17.853  0.00  0.00    +0.000 HD
ENDBRANCH   1  16
TORSDOF 1
ENDMDL
MODEL 2
REMARK VINA RESULT:      -7.1      3.062      5.360
REMARK  Name = 
REMARK  1 active torsions:
REMARK  status: ('A' for Active; 'I' for Inactive)
REMARK    1  A    between atoms: O_1  and  C_2
REMARK                            x       y       z     vdW  Elec       q    Type
REMARK                         _______ _______ _______ _____ _____    ______ ____
ROOT
ATOM      1  C   UNL     1       2.967   6.391  19.155  0.00  0.00    +0.000 A 
ATOM      2  C   UNL     1       3.663   6.903  18.082  0.00  0.00    +0.000 A 
ATOM      3  C   UNL     1       4.275   6.039  17.178  0.00  0.00    +0.000 A 
ATOM      4  C   UNL     1       4.978   6.583  16.091  0.00  0.00    +0.000 A 
ATOM      5  C   UNL     1       5.604   5.768  15.166  0.00  0.00    +0.000 A 
ATOM      6  C   UNL     1       5.524   4.403  15.332  0.00  0.00    +0.000 A 
ATOM      7  C   UNL     1       4.824   3.881  16.414  0.00  0.00    +0.000 A 
ATOM      8  N   UNL     1       4.197   4.665  17.341  0.00  0.00    +0.000 N 
ATOM      9  C   UNL     1       3.501   4.138  18.419  0.00  0.00    +0.000 A 
ATOM     10  C   UNL     1       3.371   2.749  18.663  0.00  0.00    +0.000 A 
ATOM     11  C   UNL     1       2.659   2.248  19.762  0.00  0.00    +0.000 A 
ATOM     12  C   UNL     1       2.055   3.121  20.651  0.00  0.00    +0.000 A 
ATOM     13 CL   UNL     1       1.183   2.511  21.996  0.00  0.00    +0.000 Cl
ATOM     14  C   UNL     1       2.159   4.491  20.447  0.00  0.00    +0.000 A 
ATOM     15  C   UNL     1       2.872   5.015  19.346  0.00  0.00    +0.000 A 
ENDROOT
BRANCH   1  16
ATOM     16  O   UNL     1       2.365   7.234  20.045  0.00  0.00    +0.000 OA
ATOM     17  H   UNL     1       2.694   8.148  19.968  0.00  0.00    +0.000 HD
ENDBRANCH   1  16
TORSDOF 1
ENDMDL
MODEL 3
REMARK VINA RESULT:      -6.8      1.831      2.955
REMARK  Name = 
REMARK  1 active torsions:
REMARK  status: ('A' for Active; 'I' for Inactive)
REMARK    1  A    between atoms: O_1  and  C_2
REMARK                            x       y       z     vdW  Elec       q    Type
REMARK                         _______ _______ _______ _____ _____    ______ ____
ROOT
ATOM      1  C   UNL     1       3.356   6.674  18.036  0.00  0.00    +0.000 A 
ATOM      2  C   UNL     1       2.478   6.382  19.057  0.00  0.00    +0.000 A 
ATOM      3  C   UNL     1       2.284   5.060  19.447  0.00  0.00    +0.000 A 
ATOM      4  C   UNL     1       1.386   4.787  20.491  0.00  0.00    +0.000 A 
ATOM      5  C   UNL     1       1.157   3.491  20.915  0.00  0.00    +0.000 A 
ATOM      6  C   UNL     1       1.832   2.466  20.289  0.00  0.00    +0.000 A 
ATOM      7  C   UNL     1       2.718   2.754  19.258  0.00  0.00    +0.000 A 
ATOM      8  N   UNL     1       2.961   4.026  18.821  0.00  0.00    +0.000 N 
ATOM      9  C   UNL     1       3.847   4.307  17.791  0.00  0.00    +0.000 A 
ATOM     10  C   UNL     1       4.579   3.314  17.096  0.00  0.00    +0.000 A 
ATOM     11  C   UNL     1       5.467   3.632  16.058  0.00  0.00    +0.000 A 
ATOM     12  C   UNL     1       5.650   4.951  15.684  0.00  0.00    +0.000 A 
ATOM     13 CL   UNL     1       6.736   5.343  14.415  0.00  0.00    +0.000 Cl
ATOM     14  C   UNL     1       4.950   5.956  16.340  0.00  0.00    +0.000 A 
ATOM     15  C   UNL     1       4.050   5.656  17.388  0.00  0.00    +0.000 A 
ENDROOT
BRANCH   1  16
ATOM     16  O   UNL     1       3.550   7.969  17.650  0.00  0.00    +0.000 OA
ATOM     17  H   UNL     1       3.791   8.041  16.709  0.00  0.00    +0.000 HD
ENDBRANCH   1  16
TORSDOF 1
ENDMDL
MODEL 4
REMARK VINA RESULT:      -6.7      2.708      3.737
REMARK  Name = 
REMARK  1 active torsions:
REMARK  status: ('A' for Active; 'I' for Inactive)
REMARK    1  A    between atoms: O_1  and  C_2
REMARK                            x       y       z     vdW  Elec       q    Type
REMARK                         _______ _______ _______ _____ _____    ______ ____
ROOT
ATOM      1  C   UNL     1       3.127   6.694  17.851  0.00  0.00    +0.000 A 
ATOM      2  C   UNL     1       2.113   5.780  18.032  0.00  0.00    +0.000 A 
ATOM      3  C   UNL     1       2.418   4.432  18.201  0.00  0.00    +0.000 A 
ATOM      4  C   UNL     1       1.368   3.519  18.385  0.00  0.00    +0.000 A 
ATOM      5  C   UNL     1       1.617   2.169  18.556  0.00  0.00    +0.000 A 
ATOM      6  C   UNL     1       2.925   1.735  18.541  0.00  0.00    +0.000 A 
ATOM      7  C   UNL     1       3.953   2.654  18.357  0.00  0.00    +0.000 A 
ATOM      8  N   UNL     1       3.731   3.992  18.187  0.00  0.00    +0.000 N 
ATOM      9  C   UNL     1       4.761   4.902  18.004  0.00  0.00    +0.000 A 
ATOM     10  C   UNL     1       6.130   4.541  17.975  0.00  0.00    +0.000 A 
ATOM     11  C   UNL     1       7.148   5.487  17.787  0.00  0.00    +0.000 A 
ATOM     12  C   UNL     1       6.828   6.824  17.624  0.00  0.00    +0.000 A 
ATOM     13 CL   UNL     1       8.071   7.983  17.395  0.00  0.00    +0.000 Cl
ATOM     14  C   UNL     1       5.497   7.220  17.645  0.00  0.00    +0.000 A 
ATOM     15  C   UNL     1       4.457   6.282  17.832  0.00  0.00    +0.000 A 
ENDROOT
BRANCH   1  16
ATOM     16  O   UNL     1       2.834   8.018  17.685  0.00  0.00    +0.000 OA
ATOM     17  H   UNL     1       1.968   8.153  17.260  0.00  0.00    +0.000 HD
ENDBRANCH   1  16
TORSDOF 1
ENDMDL
MODEL 5
REMARK VINA RESULT:      -6.7      3.142      5.455
REMARK  Name = 
REMARK  1 active torsions:
REMARK  status: ('A' for Active; 'I' for Inactive)
REMARK    1  A    between atoms: O_1  and  C_2
REMARK                            x       y       z     vdW  Elec       q    Type
REMARK                         _______ _______ _______ _____ _____    ______ ____
ROOT
ATOM      1  C   UNL     1       6.164   4.963  18.683  0.00  0.00    +0.000 A 
ATOM      2  C   UNL     1       7.003   5.100  17.600  0.00  0.00    +0.000 A 
ATOM      3  C   UNL     1       6.548   4.774  16.325  0.00  0.00    +0.000 A 
ATOM      4  C   UNL     1       7.422   4.923  15.237  0.00  0.00    +0.000 A 
ATOM      5  C   UNL     1       7.018   4.613  13.950  0.00  0.00    +0.000 A 
ATOM      6  C   UNL     1       5.734   4.152  13.758  0.00  0.00    +0.000 A 
ATOM      7  C   UNL     1       4.883   4.011  14.847  0.00  0.00    +0.000 A 
ATOM      8  N   UNL     1       5.258   4.311  16.127  0.00  0.00    +0.000 N 
ATOM      9  C   UNL     1       4.403   4.168  17.210  0.00  0.00    +0.000 A 
ATOM     10  C   UNL     1       3.071   3.701  17.099  0.00  0.00    +0.000 A 
ATOM     11  C   UNL     1       2.232   3.567  18.215  0.00  0.00    +0.000 A 
ATOM     12  C   UNL     1       2.700   3.897  19.475  0.00  0.00    +0.000 A 
ATOM     13 CL   UNL     1       1.676   3.735  20.842  0.00  0.00    +0.000 Cl
ATOM     14  C   UNL     1       4.001   4.358  19.627  0.00  0.00    +0.000 A 
ATOM     15  C   UNL     1       4.862   4.499  18.516  0.00  0.00    +0.000 A 
ENDROOT
BRANCH   1  16
ATOM     16  O   UNL     1       6.606   5.280  19.936  0.00  0.00    +0.000 OA
ATOM     17  H   UNL     1       7.545   5.057  20.063  0.00  0.00    +0.000 HD
ENDBRANCH   1  16
TORSDOF 1
ENDMDL
MODEL 6
REMARK VINA RESULT:      -6.6      2.755      4.743
REMARK  Name = 
REMARK  1 active torsions:
REMARK  status: ('A' for Active; 'I' for Inactive)
REMARK    1  A    between atoms: O_1  and  C_2
REMARK                            x       y       z     vdW  Elec       q    Type
REMARK                         _______ _______ _______ _____ _____    ______ ____
ROOT
ATOM      1  C   UNL     1       3.811   2.341  17.996  0.00  0.00    +0.000 A 
ATOM      2  C   UNL     1       4.472   2.935  16.943  0.00  0.00    +0.000 A 
ATOM      3  C   UNL     1       4.529   4.323  16.855  0.00  0.00    +0.000 A 
ATOM      4  C   UNL     1       5.208   4.905  15.773  0.00  0.00    +0.000 A 
ATOM      5  C   UNL     1       5.293   6.279  15.640  0.00  0.00    +0.000 A 
ATOM      6  C   UNL     1       4.693   7.070  16.595  0.00  0.00    +0.000 A 
ATOM      7  C   UNL     1       4.024   6.477  17.659  0.00  0.00    +0.000 A 
ATOM      8  N   UNL     1       3.927   5.122  17.813  0.00  0.00    +0.000 N 
ATOM      9  C   UNL     1       3.257   4.537  18.877  0.00  0.00    +0.000 A 
ATOM     10  C   UNL     1       2.614   5.276  19.899  0.00  0.00    +0.000 A 
ATOM     11  C   UNL     1       1.945   4.652  20.963  0.00  0.00    +0.000 A 
ATOM     12  C   UNL     1       1.900   3.271  21.036  0.00  0.00    +0.000 A 
ATOM     13 CL   UNL     1       1.083   2.506  22.337  0.00  0.00    +0.000 Cl
ATOM     14  C   UNL     1       2.518   2.509  20.053  0.00  0.00    +0.000 A 
ATOM     15  C   UNL     1       3.196   3.118  18.974  0.00  0.00    +0.000 A 
ENDROOT
BRANCH   1  16
ATOM     16  O   UNL     1       3.752   0.979  18.087  0.00  0.00    +0.000 OA
ATOM     17  H   UNL     1       4.440   0.619  18.674  0.00  0.00    +0.000 HD
ENDBRANCH   1  16
TORSDOF 1
ENDMDL
MODEL 7
REMARK VINA RESULT:      -6.4      2.737      4.864
REMARK  Name = 
REMARK  1 active torsions:
REMARK  status: ('A' for Active; 'I' for Inactive)
REMARK    1  A    between atoms: O_1  and  C_2
REMARK                            x       y       z     vdW  Elec       q    Type
REMARK                         _______ _______ _______ _____ _____    ______ ____
ROOT
ATOM      1  C   UNL     1       3.606   4.175  19.145  0.00  0.00    +0.000 A 
ATOM      2  C   UNL     1       4.413   3.525  18.238  0.00  0.00    +0.000 A 
ATOM      3  C   UNL     1       4.885   4.205  17.119  0.00  0.00    +0.000 A 
ATOM      4  C   UNL     1       5.708   3.523  16.209  0.00  0.00    +0.000 A 
ATOM      5  C   UNL     1       6.201   4.153  15.081  0.00  0.00    +0.000 A 
ATOM      6  C   UNL     1       5.868   5.473  14.867  0.00  0.00    +0.000 A 
ATOM      7  C   UNL     1       5.052   6.133  15.778  0.00  0.00    +0.000 A 
ATOM      8  N   UNL     1       4.552   5.532  16.900  0.00  0.00    +0.000 N 
ATOM      9  C   UNL     1       3.738   6.197  17.805  0.00  0.00    +0.000 A 
ATOM     10  C   UNL     1       3.348   7.550  17.659  0.00  0.00    +0.000 A 
ATOM     11  C   UNL     1       2.523   8.193  18.594  0.00  0.00    +0.000 A 
ATOM     12  C   UNL     1       2.065   7.503  19.702  0.00  0.00    +0.000 A 
ATOM     13 CL   UNL     1       1.057   8.288  20.847  0.00  0.00    +0.000 Cl
ATOM     14  C   UNL     1       2.424   6.173  19.882  0.00  0.00    +0.000 A 
ATOM     15  C   UNL     1       3.254   5.508  18.952  0.00  0.00    +0.000 A 
ENDROOT
BRANCH   1  16
ATOM     16  O   UNL     1       3.140   3.511  20.245  0.00  0.00    +0.000 OA
ATOM     17  H   UNL     1       3.679   3.688  21.037  0.00  0.00    +0.000 HD
ENDBRANCH   1  16
TORSDOF 1
ENDMDL
MODEL 8
REMARK VINA RESULT:      -6.4      3.125      5.082
REMARK  Name = 
REMARK  1 active torsions:
REMARK  status: ('A' for Active; 'I' for Inactive)
REMARK    1  A    between atoms: O_1  and  C_2
REMARK                            x       y       z     vdW  Elec       q    Type
REMARK                         _______ _______ _______ _____ _____    ______ ____
ROOT
ATOM      1  C   UNL     1       3.044   5.450  19.983  0.00  0.00    +0.000 A 
ATOM      2  C   UNL     1       3.928   4.629  19.319  0.00  0.00    +0.000 A 
ATOM      3  C   UNL     1       4.454   5.024  18.092  0.00  0.00    +0.000 A 
ATOM      4  C   UNL     1       5.354   4.171  17.435  0.00  0.00    +0.000 A 
ATOM      5  C   UNL     1       5.903   4.518  16.213  0.00  0.00    +0.000 A 
ATOM      6  C   UNL     1       5.547   5.724  15.651  0.00  0.00    +0.000 A 
ATOM      7  C   UNL     1       4.655   6.557  16.316  0.00  0.00    +0.000 A 
ATOM      8  N   UNL     1       4.098   6.237  17.523  0.00  0.00    +0.000 N 
ATOM      9  C   UNL     1       3.208   7.072  18.181  0.00  0.00    +0.000 A 
ATOM     10  C   UNL     1       2.790   8.327  17.674  0.00  0.00    +0.000 A 
ATOM     11  C   UNL     1       1.888   9.148  18.365  0.00  0.00    +0.000 A 
ATOM     12  C   UNL     1       1.376   8.740  19.584  0.00  0.00    +0.000 A 
ATOM     13 CL   UNL     1       0.273   9.743  20.432  0.00  0.00    +0.000 Cl
ATOM     14  C   UNL     1       1.760   7.516  20.117  0.00  0.00    +0.000 A 
ATOM     15  C   UNL     1       2.668   6.674  19.436  0.00  0.00    +0.000 A 
ENDROOT
BRANCH   1  16
ATOM     16  O   UNL     1       2.525   5.066  21.187  0.00  0.00    +0.000 OA
ATOM     17  H   UNL     1       1.553   5.014  21.169  0.00  0.00    +0.000 HD
ENDBRANCH   1  16
TORSDOF 1
ENDMDL
MODEL 9
REMARK VINA RESULT:      -6.3      2.275      2.870
REMARK  Name = 
REMARK  1 active torsions:
REMARK  status: ('A' for Active; 'I' for Inactive)
REMARK    1  A    between atoms: O_1  and  C_2
REMARK                            x       y       z     vdW  Elec       q    Type
REMARK                         _______ _______ _______ _____ _____    ______ ____
ROOT
ATOM      1  C   UNL     1       6.389   5.325  18.251  0.00  0.00    +0.000 A 
ATOM      2  C   UNL     1       5.447   5.106  19.231  0.00  0.00    +0.000 A 
ATOM      3  C   UNL     1       4.216   4.549  18.897  0.00  0.00    +0.000 A 
ATOM      4  C   UNL     1       3.272   4.333  19.913  0.00  0.00    +0.000 A 
ATOM      5  C   UNL     1       2.034   3.784  19.633  0.00  0.00    +0.000 A 
ATOM      6  C   UNL     1       1.744   3.450  18.328  0.00  0.00    +0.000 A 
ATOM      7  C   UNL     1       2.690   3.670  17.334  0.00  0.00    +0.000 A 
ATOM      8  N   UNL     1       3.920   4.211  17.586  0.00  0.00    +0.000 N 
ATOM      9  C   UNL     1       4.860   4.428  16.589  0.00  0.00    +0.000 A 
ATOM     10  C   UNL     1       4.641   4.115  15.226  0.00  0.00    +0.000 A 
ATOM     11  C   UNL     1       5.613   4.347  14.242  0.00  0.00    +0.000 A 
ATOM     12  C   UNL     1       6.833   4.899  14.592  0.00  0.00    +0.000 A 
ATOM     13 CL   UNL     1       8.024   5.184  13.391  0.00  0.00    +0.000 Cl
ATOM     14  C   UNL     1       7.087   5.222  15.919  0.00  0.00    +0.000 A 
ATOM     15  C   UNL     1       6.121   4.996  16.925  0.00  0.00    +0.000 A 
ENDROOT
BRANCH   1  16
ATOM     16  O   UNL     1       7.599   5.871  18.573  0.00  0.00    +0.000 OA
ATOM     17  H   UNL     1       7.512   6.624  19.185  0.00  0.00    +0.000 HD
ENDBRANCH   1  16
TORSDOF 1
ENDMDL
