MODEL 1
REMARK VINA RESULT:      -7.4      0.000      0.000
REMARK  Name = 
REMARK  3 active torsions:
REMARK  status: ('A' for Active; 'I' for Inactive)
REMARK    1  A    between atoms: S_2  and  C_4
REMARK    2  A    between atoms: S_2  and  N_13
REMARK    3  A    between atoms: C_5  and  O_6
REMARK                            x       y       z     vdW  Elec       q    Type
REMARK                         _______ _______ _______ _____ _____    ______ ____
ROOT
ATOM      1  O   UNL     1       3.207   3.706  16.533  0.00  0.00    +0.000 OA
ATOM      2  S   UNL     1       3.397   4.682  17.592  0.00  0.00    +0.000 S 
ATOM      3  O   UNL     1       2.893   6.026  17.437  0.00  0.00    +0.000 OA
ENDROOT
BRANCH   2   4
ATOM      4  C   UNL     1       2.713   3.966  19.050  0.00  0.00    +0.000 A 
ATOM      5  C   UNL     1       2.143   2.689  19.032  0.00  0.00    +0.000 A 
ATOM      6  C   UNL     1       1.601   2.148  20.197  0.00  0.00    +0.000 A 
ATOM      7  C   UNL     1       1.574   2.911  21.361  0.00  0.00    +0.000 A 
ATOM      8  F   UNL     1       1.030   2.399  22.473  0.00  0.00    +0.000 F 
ATOM      9  C   UNL     1       2.090   4.197  21.380  0.00  0.00    +0.000 A 
ATOM     10  C   UNL     1       2.666   4.717  20.223  0.00  0.00    +0.000 A 
ATOM     11  F   UNL     1       3.168   5.956  20.286  0.00  0.00    +0.000 F 
BRANCH   5  12
ATOM     12  O   UNL     1       2.077   1.888  17.925  0.00  0.00    +0.000 OA
ATOM     13  H   UNL     1       1.356   2.196  17.331  0.00  0.00    +0.000 HD
ENDBRANCH   5  12
ENDBRANCH   2   4
BRANCH   2  14
ATOM     14  N   UNL     1       5.066   4.758  17.925  0.00  0.00    +0.000 NA
ATOM     15  C   UNL     1       5.965   4.035  16.991  0.00  0.00    +0.000 C 
ATOM     16  C   UNL     1       7.353   4.614  17.251  0.00  0.00    +0.000 C 
ATOM     17  C   UNL     1       7.103   6.034  17.746  0.00  0.00    +0.000 C 
ATOM     18  C   UNL     1       8.096   6.469  18.874  0.00  0.00    +0.000 C 
ATOM     19  C   UNL     1       8.009   7.898  18.309  0.00  0.00    +0.000 C 
ATOM     20  C   UNL     1       7.682   7.249  16.945  0.00  0.00    +0.000 C 
ATOM     21  C   UNL     1       5.602   6.140  18.046  0.00  0.00    +0.000 C 
ENDBRANCH   2  14
TORSDOF 3
ENDMDL
MODEL 2
REMARK VINA RESULT:      -7.3      1.261      1.872
REMARK  Name = 
REMARK  3 active torsions:
REMARK  status: ('A' for Active; 'I' for Inactive)
REMARK    1  A    between atoms: S_2  and  C_4
REMARK    2  A    between atoms: S_2  and  N_13
REMARK    3  A    between atoms: C_5  and  O_6
REMARK                            x       y       z     vdW  Elec       q    Type
REMARK                         _______ _______ _______ _____ _____    ______ ____
ROOT
ATOM      1  O   UNL     1       3.053   3.830  16.536  0.00  0.00    +0.000 OA
ATOM      2  S   UNL     1       3.301   4.765  17.620  0.00  0.00    +0.000 S 
ATOM      3  O   UNL     1       2.850   6.133  17.515  0.00  0.00    +0.000 OA
ENDROOT
BRANCH   2   4
ATOM      4  C   UNL     1       2.614   4.032  19.068  0.00  0.00    +0.000 A 
ATOM      5  C   UNL     1       2.583   4.721  20.284  0.00  0.00    +0.000 A 
ATOM      6  C   UNL     1       2.042   4.116  21.418  0.00  0.00    +0.000 A 
ATOM      7  C   UNL     1       1.592   2.801  21.347  0.00  0.00    +0.000 A 
ATOM      8  F   UNL     1       1.095   2.213  22.444  0.00  0.00    +0.000 F 
ATOM      9  C   UNL     1       1.663   2.089  20.160  0.00  0.00    +0.000 A 
ATOM     10  C   UNL     1       2.168   2.712  19.021  0.00  0.00    +0.000 A 
ATOM     11  F   UNL     1       2.205   1.996  17.890  0.00  0.00    +0.000 F 
BRANCH   5  12
ATOM     12  O   UNL     1       3.049   5.994  20.463  0.00  0.00    +0.000 OA
ATOM     13  H   UNL     1       2.923   6.269  21.399  0.00  0.00    +0.000 HD
ENDBRANCH   5  12
ENDBRANCH   2   4
BRANCH   2  14
ATOM     14  N   UNL     1       4.978   4.765  17.923  0.00  0.00    +0.000 NA
ATOM     15  C   UNL     1       5.831   4.041  16.948  0.00  0.00    +0.000 C 
ATOM     16  C   UNL     1       7.245   4.556  17.201  0.00  0.00    +0.000 C 
ATOM     17  C   UNL     1       7.060   5.966  17.752  0.00  0.00    +0.000 C 
ATOM     18  C   UNL     1       8.089   6.320  18.875  0.00  0.00    +0.000 C 
ATOM     19  C   UNL     1       8.049   7.771  18.363  0.00  0.00    +0.000 C 
ATOM     20  C   UNL     1       7.672   7.186  16.983  0.00  0.00    +0.000 C 
ATOM     21  C   UNL     1       5.570   6.119  18.084  0.00  0.00    +0.000 C 
ENDBRANCH   2  14
TORSDOF 3
ENDMDL
MODEL 3
REMARK VINA RESULT:      -7.3      3.190      6.160
REMARK  Name = 
REMARK  3 active torsions:
REMARK  status: ('A' for Active; 'I' for Inactive)
REMARK    1  A    between atoms: S_2  and  C_4
REMARK    2  A    between atoms: S_2  and  N_13
REMARK    3  A    between atoms: C_5  and  O_6
REMARK                            x       y       z     vdW  Elec       q    Type
REMARK                         _______ _______ _______ _____ _____    ______ ____
ROOT
ATOM      1  O   UNL     1       6.417   3.991  19.314  0.00  0.00    +0.000 OA
ATOM      2  S   UNL     1       6.227   5.235  18.588  0.00  0.00    +0.000 S 
ATOM      3  O   UNL     1       7.140   6.336  18.786  0.00  0.00    +0.000 OA
ENDROOT
BRANCH   2   4
ATOM      4  C   UNL     1       6.188   4.807  16.879  0.00  0.00    +0.000 A 
ATOM      5  C   UNL     1       6.924   5.529  15.934  0.00  0.00    +0.000 A 
ATOM      6  C   UNL     1       6.870   5.176  14.586  0.00  0.00    +0.000 A 
ATOM      7  C   UNL     1       6.032   4.142  14.180  0.00  0.00    +0.000 A 
ATOM      8  F   UNL     1       5.963   3.820  12.881  0.00  0.00    +0.000 F 
ATOM      9  C   UNL     1       5.259   3.449  15.099  0.00  0.00    +0.000 A 
ATOM     10  C   UNL     1       5.347   3.781  16.450  0.00  0.00    +0.000 A 
ATOM     11  F   UNL     1       4.598   3.079  17.308  0.00  0.00    +0.000 F 
BRANCH   5  12
ATOM     12  O   UNL     1       7.732   6.591  16.232  0.00  0.00    +0.000 OA
ATOM     13  H   UNL     1       7.187   7.353  16.533  0.00  0.00    +0.000 HD
ENDBRANCH   5  12
ENDBRANCH   2   4
BRANCH   2  14
ATOM     14  N   UNL     1       4.643   5.776  18.905  0.00  0.00    +0.000 NA
ATOM     15  C   UNL     1       3.873   6.295  17.747  0.00  0.00    +0.000 C 
ATOM     16  C   UNL     1       2.418   6.289  18.205  0.00  0.00    +0.000 C 
ATOM     17  C   UNL     1       2.334   5.173  19.241  0.00  0.00    +0.000 C 
ATOM     18  C   UNL     1       1.388   5.523  20.436  0.00  0.00    +0.000 C 
ATOM     19  C   UNL     1       1.031   4.027  20.507  0.00  0.00    +0.000 C 
ATOM     20  C   UNL     1       1.371   3.961  19.000  0.00  0.00    +0.000 C 
ATOM     21  C   UNL     1       3.776   4.770  19.575  0.00  0.00    +0.000 C 
ENDBRANCH   2  14
TORSDOF 3
ENDMDL
MODEL 4
REMARK VINA RESULT:      -7.1      1.161      1.194
REMARK  Name = 
REMARK  3 active torsions:
REMARK  status: ('A' for Active; 'I' for Inactive)
REMARK    1  A    between atoms: S_2  and  C_4
REMARK    2  A    between atoms: S_2  and  N_13
REMARK    3  A    between atoms: C_5  and  O_6
REMARK                            x       y       z     vdW  Elec       q    Type
REMARK                         _______ _______ _______ _____ _____    ______ ____
ROOT
ATOM      1  O   UNL     1       3.325   3.659  16.573  0.00  0.00    +0.000 OA
ATOM      2  S   UNL     1       3.517   4.648  17.620  0.00  0.00    +0.000 S 
ATOM      3  O   UNL     1       2.987   5.982  17.462  0.00  0.00    +0.000 OA
ENDROOT
BRANCH   2   4
ATOM      4  C   UNL     1       2.873   3.934  19.097  0.00  0.00    +0.000 A 
ATOM      5  C   UNL     1       3.601   2.982  19.818  0.00  0.00    +0.000 A 
ATOM      6  C   UNL     1       3.065   2.426  20.979  0.00  0.00    +0.000 A 
ATOM      7  C   UNL     1       1.779   2.776  21.380  0.00  0.00    +0.000 A 
ATOM      8  F   UNL     1       1.257   2.222  22.483  0.00  0.00    +0.000 F 
ATOM      9  C   UNL     1       1.028   3.681  20.646  0.00  0.00    +0.000 A 
ATOM     10  C   UNL     1       1.583   4.263  19.509  0.00  0.00    +0.000 A 
ATOM     11  F   UNL     1       0.832   5.145  18.837  0.00  0.00    +0.000 F 
BRANCH   5  12
ATOM     12  O   UNL     1       4.847   2.538  19.474  0.00  0.00    +0.000 OA
ATOM     13  H   UNL     1       4.962   2.587  18.498  0.00  0.00    +0.000 HD
ENDBRANCH   5  12
ENDBRANCH   2   4
BRANCH   2  14
ATOM     14  N   UNL     1       5.191   4.758  17.921  0.00  0.00    +0.000 NA
ATOM     15  C   UNL     1       6.088   4.093  16.943  0.00  0.00    +0.000 C 
ATOM     16  C   UNL     1       7.465   4.699  17.195  0.00  0.00    +0.000 C 
ATOM     17  C   UNL     1       7.189   6.093  17.747  0.00  0.00    +0.000 C 
ATOM     18  C   UNL     1       8.195   6.513  18.869  0.00  0.00    +0.000 C 
ATOM     19  C   UNL     1       8.059   7.959  18.358  0.00  0.00    +0.000 C 
ATOM     20  C   UNL     1       7.719   7.351  16.979  0.00  0.00    +0.000 C 
ATOM     21  C   UNL     1       5.693   6.148  18.081  0.00  0.00    +0.000 C 
ENDBRANCH   2  14
TORSDOF 3
ENDMDL
MODEL 5
REMARK VINA RESULT:      -7.1      3.132      6.440
REMARK  Name = 
REMARK  3 active torsions:
REMARK  status: ('A' for Active; 'I' for Inactive)
REMARK    1  A    between atoms: S_2  and  C_4
REMARK    2  A    between atoms: S_2  and  N_13
REMARK    3  A    between atoms: C_5  and  O_6
REMARK                            x       y       z     vdW  Elec       q    Type
REMARK                         _______ _______ _______ _____ _____    ______ ____
ROOT
ATOM      1  O   UNL     1       6.338   5.763  18.785  0.00  0.00    +0.000 OA
ATOM      2  S   UNL     1       5.162   5.567  17.955  0.00  0.00    +0.000 S 
ATOM      3  O   UNL     1       4.187   6.624  17.818  0.00  0.00    +0.000 OA
ENDROOT
BRANCH   2   4
ATOM      4  C   UNL     1       5.754   5.108  16.360  0.00  0.00    +0.000 A 
ATOM      5  C   UNL     1       6.923   5.667  15.833  0.00  0.00    +0.000 A 
ATOM      6  C   UNL     1       7.366   5.293  14.565  0.00  0.00    +0.000 A 
ATOM      7  C   UNL     1       6.606   4.410  13.803  0.00  0.00    +0.000 A 
ATOM      8  F   UNL     1       7.022   4.071  12.575  0.00  0.00    +0.000 F 
ATOM      9  C   UNL     1       5.420   3.888  14.294  0.00  0.00    +0.000 A 
ATOM     10  C   UNL     1       5.002   4.234  15.577  0.00  0.00    +0.000 A 
ATOM     11  F   UNL     1       3.860   3.695  16.021  0.00  0.00    +0.000 F 
BRANCH   5  12
ATOM     12  O   UNL     1       7.705   6.579  16.485  0.00  0.00    +0.000 OA
ATOM     13  H   UNL     1       7.485   6.585  17.443  0.00  0.00    +0.000 HD
ENDBRANCH   5  12
ENDBRANCH   2   4
BRANCH   2  14
ATOM     14  N   UNL     1       4.370   4.164  18.511  0.00  0.00    +0.000 NA
ATOM     15  C   UNL     1       5.130   3.297  19.445  0.00  0.00    +0.000 C 
ATOM     16  C   UNL     1       4.080   2.404  20.099  0.00  0.00    +0.000 C 
ATOM     17  C   UNL     1       2.793   3.220  20.069  0.00  0.00    +0.000 C 
ATOM     18  C   UNL     1       1.526   2.348  19.783  0.00  0.00    +0.000 C 
ATOM     19  C   UNL     1       0.739   3.310  20.691  0.00  0.00    +0.000 C 
ATOM     20  C   UNL     1       2.077   3.590  21.412  0.00  0.00    +0.000 C 
ATOM     21  C   UNL     1       3.050   4.419  19.146  0.00  0.00    +0.000 C 
ENDBRANCH   2  14
TORSDOF 3
ENDMDL
MODEL 6
REMARK VINA RESULT:      -7.1      3.294      6.010
REMARK  Name = 
REMARK  3 active torsions:
REMARK  status: ('A' for Active; 'I' for Inactive)
REMARK    1  A    between atoms: S_2  and  C_4
REMARK    2  A    between atoms: S_2  and  N_13
REMARK    3  A    between atoms: C_5  and  O_6
REMARK                            x       y       z     vdW  Elec       q    Type
REMARK                         _______ _______ _______ _____ _____    ______ ____
ROOT
ATOM      1  O   UNL     1       6.390   3.970  19.352  0.00  0.00    +0.000 OA
ATOM      2  S   UNL     1       6.197   5.225  18.647  0.00  0.00    +0.000 S 
ATOM      3  O   UNL     1       7.097   6.331  18.878  0.00  0.00    +0.000 OA
ENDROOT
BRANCH   2   4
ATOM      4  C   UNL     1       6.187   4.830  16.929  0.00  0.00    +0.000 A 
ATOM      5  C   UNL     1       5.468   3.734  16.443  0.00  0.00    +0.000 A 
ATOM      6  C   UNL     1       5.482   3.437  15.080  0.00  0.00    +0.000 A 
ATOM      7  C   UNL     1       6.266   4.199  14.219  0.00  0.00    +0.000 A 
ATOM      8  F   UNL     1       6.298   3.897  12.914  0.00  0.00    +0.000 F 
ATOM      9  C   UNL     1       7.023   5.258  14.696  0.00  0.00    +0.000 A 
ATOM     10  C   UNL     1       6.973   5.574  16.052  0.00  0.00    +0.000 A 
ATOM     11  F   UNL     1       7.705   6.613  16.471  0.00  0.00    +0.000 F 
BRANCH   5  12
ATOM     12  O   UNL     1       4.713   2.898  17.219  0.00  0.00    +0.000 OA
ATOM     13  H   UNL     1       3.988   3.405  17.649  0.00  0.00    +0.000 HD
ENDBRANCH   5  12
ENDBRANCH   2   4
BRANCH   2  14
ATOM     14  N   UNL     1       4.604   5.745  18.952  0.00  0.00    +0.000 NA
ATOM     15  C   UNL     1       3.840   6.265  17.791  0.00  0.00    +0.000 C 
ATOM     16  C   UNL     1       2.380   6.237  18.233  0.00  0.00    +0.000 C 
ATOM     17  C   UNL     1       2.299   5.112  19.259  0.00  0.00    +0.000 C 
ATOM     18  C   UNL     1       1.336   5.440  20.447  0.00  0.00    +0.000 C 
ATOM     19  C   UNL     1       0.997   3.940  20.501  0.00  0.00    +0.000 C 
ATOM     20  C   UNL     1       1.353   3.890  18.998  0.00  0.00    +0.000 C 
ATOM     21  C   UNL     1       3.742   4.723  19.604  0.00  0.00    +0.000 C 
ENDBRANCH   2  14
TORSDOF 3
ENDMDL
MODEL 7
REMARK VINA RESULT:      -7.0      2.390      3.269
REMARK  Name = 
REMARK  3 active torsions:
REMARK  status: ('A' for Active; 'I' for Inactive)
REMARK    1  A    between atoms: S_2  and  C_4
REMARK    2  A    between atoms: S_2  and  N_13
REMARK    3  A    between atoms: C_5  and  O_6
REMARK                            x       y       z     vdW  Elec       q    Type
REMARK                         _______ _______ _______ _____ _____    ______ ____
ROOT
ATOM      1  O   UNL     1       5.706   6.227  19.335  0.00  0.00    +0.000 OA
ATOM      2  S   UNL     1       5.501   4.907  18.766  0.00  0.00    +0.000 S 
ATOM      3  O   UNL     1       6.547   3.913  18.845  0.00  0.00    +0.000 OA
ENDROOT
BRANCH   2   4
ATOM      4  C   UNL     1       4.034   4.272  19.509  0.00  0.00    +0.000 A 
ATOM      5  C   UNL     1       3.956   2.944  19.939  0.00  0.00    +0.000 A 
ATOM      6  C   UNL     1       2.781   2.463  20.516  0.00  0.00    +0.000 A 
ATOM      7  C   UNL     1       1.668   3.295  20.604  0.00  0.00    +0.000 A 
ATOM      8  F   UNL     1       0.533   2.824  21.137  0.00  0.00    +0.000 F 
ATOM      9  C   UNL     1       1.717   4.599  20.137  0.00  0.00    +0.000 A 
ATOM     10  C   UNL     1       2.906   5.085  19.597  0.00  0.00    +0.000 A 
ATOM     11  F   UNL     1       2.917   6.354  19.172  0.00  0.00    +0.000 F 
BRANCH   5  12
ATOM     12  O   UNL     1       4.978   2.040  19.846  0.00  0.00    +0.000 OA
ATOM     13  H   UNL     1       5.737   2.441  19.367  0.00  0.00    +0.000 HD
ENDBRANCH   5  12
ENDBRANCH   2   4
BRANCH   2  14
ATOM     14  N   UNL     1       5.068   5.114  17.131  0.00  0.00    +0.000 NA
ATOM     15  C   UNL     1       5.130   6.497  16.596  0.00  0.00    +0.000 C 
ATOM     16  C   UNL     1       5.128   6.335  15.079  0.00  0.00    +0.000 C 
ATOM     17  C   UNL     1       5.757   4.969  14.827  0.00  0.00    +0.000 C 
ATOM     18  C   UNL     1       5.085   4.199  13.643  0.00  0.00    +0.000 C 
ATOM     19  C   UNL     1       6.467   3.596  13.336  0.00  0.00    +0.000 C 
ATOM     20  C   UNL     1       7.071   4.864  13.980  0.00  0.00    +0.000 C 
ATOM     21  C   UNL     1       5.829   4.257  16.184  0.00  0.00    +0.000 C 
ENDBRANCH   2  14
TORSDOF 3
ENDMDL
MODEL 8
REMARK VINA RESULT:      -7.0      2.785      6.346
REMARK  Name = 
REMARK  3 active torsions:
REMARK  status: ('A' for Active; 'I' for Inactive)
REMARK    1  A    between atoms: S_2  and  C_4
REMARK    2  A    between atoms: S_2  and  N_13
REMARK    3  A    between atoms: C_5  and  O_6
REMARK                            x       y       z     vdW  Elec       q    Type
REMARK                         _______ _______ _______ _____ _____    ______ ____
ROOT
ATOM      1  O   UNL     1       5.523   3.985  16.362  0.00  0.00    +0.000 OA
ATOM      2  S   UNL     1       5.633   4.353  17.763  0.00  0.00    +0.000 S 
ATOM      3  O   UNL     1       6.218   3.433  18.710  0.00  0.00    +0.000 OA
ENDROOT
BRANCH   2   4
ATOM      4  C   UNL     1       6.520   5.876  17.803  0.00  0.00    +0.000 A 
ATOM      5  C   UNL     1       7.600   6.062  18.671  0.00  0.00    +0.000 A 
ATOM      6  C   UNL     1       8.280   7.280  18.691  0.00  0.00    +0.000 A 
ATOM      7  C   UNL     1       7.837   8.327  17.888  0.00  0.00    +0.000 A 
ATOM      8  F   UNL     1       8.477   9.504  17.926  0.00  0.00    +0.000 F 
ATOM      9  C   UNL     1       6.736   8.172  17.060  0.00  0.00    +0.000 A 
ATOM     10  C   UNL     1       6.085   6.941  17.015  0.00  0.00    +0.000 A 
ATOM     11  F   UNL     1       5.037   6.826  16.191  0.00  0.00    +0.000 F 
BRANCH   5  12
ATOM     12  O   UNL     1       8.073   5.111  19.532  0.00  0.00    +0.000 OA
ATOM     13  H   UNL     1       9.052   5.180  19.602  0.00  0.00    +0.000 HD
ENDBRANCH   5  12
ENDBRANCH   2   4
BRANCH   2  14
ATOM     14  N   UNL     1       4.075   4.778  18.305  0.00  0.00    +0.000 NA
ATOM     15  C   UNL     1       2.985   4.734  17.299  0.00  0.00    +0.000 C 
ATOM     16  C   UNL     1       1.695   4.723  18.114  0.00  0.00    +0.000 C 
ATOM     17  C   UNL     1       2.070   4.071  19.440  0.00  0.00    +0.000 C 
ATOM     18  C   UNL     1       1.348   4.723  20.664  0.00  0.00    +0.000 C 
ATOM     19  C   UNL     1       1.338   3.330  21.318  0.00  0.00    +0.000 C 
ATOM     20  C   UNL     1       1.356   2.750  19.886  0.00  0.00    +0.000 C 
ATOM     21  C   UNL     1       3.602   3.997  19.479  0.00  0.00    +0.000 C 
ENDBRANCH   2  14
TORSDOF 3
ENDMDL
MODEL 9
REMARK VINA RESULT:      -7.0      2.234      2.952
REMARK  Name = 
REMARK  3 active torsions:
REMARK  status: ('A' for Active; 'I' for Inactive)
REMARK    1  A    between atoms: S_2  and  C_4
REMARK    2  A    between atoms: S_2  and  N_13
REMARK    3  A    between atoms: C_5  and  O_6
REMARK                            x       y       z     vdW  Elec       q    Type
REMARK                         _______ _______ _______ _____ _____    ______ ____
ROOT
ATOM      1  O   UNL     1       2.847   2.404  19.245  0.00  0.00    +0.000 OA
ATOM      2  S   UNL     1       2.930   3.414  18.205  0.00  0.00    +0.000 S 
ATOM      3  O   UNL     1       2.138   3.285  17.004  0.00  0.00    +0.000 OA
ENDROOT
BRANCH   2   4
ATOM      4  C   UNL     1       2.567   4.953  18.983  0.00  0.00    +0.000 A 
ATOM      5  C   UNL     1       2.024   5.004  20.270  0.00  0.00    +0.000 A 
ATOM      6  C   UNL     1       1.737   6.235  20.860  0.00  0.00    +0.000 A 
ATOM      7  C   UNL     1       1.937   7.407  20.137  0.00  0.00    +0.000 A 
ATOM      8  F   UNL     1       1.638   8.587  20.697  0.00  0.00    +0.000 F 
ATOM      9  C   UNL     1       2.428   7.368  18.841  0.00  0.00    +0.000 A 
ATOM     10  C   UNL     1       2.749   6.138  18.271  0.00  0.00    +0.000 A 
ATOM     11  F   UNL     1       3.237   6.144  17.025  0.00  0.00    +0.000 F 
BRANCH   5  12
ATOM     12  O   UNL     1       1.745   3.906  21.035  0.00  0.00    +0.000 OA
ATOM     13  H   UNL     1       2.567   3.388  21.188  0.00  0.00    +0.000 HD
ENDBRANCH   5  12
ENDBRANCH   2   4
BRANCH   2  14
ATOM     14  N   UNL     1       4.570   3.561  17.764  0.00  0.00    +0.000 NA
ATOM     15  C   UNL     1       4.851   3.857  16.337  0.00  0.00    +0.000 C 
ATOM     16  C   UNL     1       6.293   4.355  16.314  0.00  0.00    +0.000 C 
ATOM     17  C   UNL     1       6.520   4.975  17.688  0.00  0.00    +0.000 C 
ATOM     18  C   UNL     1       7.955   4.706  18.247  0.00  0.00    +0.000 C 
ATOM     19  C   UNL     1       7.878   6.085  18.927  0.00  0.00    +0.000 C 
ATOM     20  C   UNL     1       6.898   6.491  17.803  0.00  0.00    +0.000 C 
ATOM     21  C   UNL     1       5.330   4.559  18.563  0.00  0.00    +0.000 C 
ENDBRANCH   2  14
TORSDOF 3
ENDMDL
