MODEL 1
REMARK VINA RESULT:      -7.5      0.000      0.000
REMARK  Name = 
REMARK  9 active torsions:
REMARK  status: ('A' for Active; 'I' for Inactive)
REMARK    1  A    between atoms: C_1  and  C_2
REMARK    2  A    between atoms: N_4  and  C_5
REMARK    3  A    between atoms: C_5  and  C_6
REMARK    4  A    between atoms: N_8  and  C_9
REMARK    5  A    between atoms: C_9  and  C_10
REMARK    6  A    between atoms: N_12  and  C_13
REMARK    7  A    between atoms: C_16  and  O_17
REMARK    8  A    between atoms: C_23  and  O_24
REMARK    9  A    between atoms: N_30  and  C_31
REMARK                            x       y       z     vdW  Elec       q    Type
REMARK                         _______ _______ _______ _____ _____    ______ ____
ROOT
ATOM      1  C   UNL     1       0.225  10.682  18.892  0.00  0.00    +0.000 C 
ATOM      2  C   UNL     1      -0.639  11.545  17.963  0.00  0.00    +0.000 C 
ATOM      3  C   UNL     1      -0.564  13.089  18.024  0.00  0.00    +0.000 C 
ATOM      4  C   UNL     1      -0.692  13.527  19.450  0.00  0.00    +0.000 C 
ATOM      5  C   UNL     1      -0.681  14.998  19.920  0.00  0.00    +0.000 C 
ATOM      6  C   UNL     1      -1.377  14.893  21.434  0.00  0.00    +0.000 C 
ATOM      7  C   UNL     1      -1.360  13.481  22.094  0.00  0.00    +0.000 A 
ATOM      8  C   UNL     1      -2.222  12.948  23.038  0.00  0.00    +0.000 A 
ATOM      9  C   UNL     1      -2.058  11.591  23.466  0.00  0.00    +0.000 A 
ATOM     10  C   UNL     1      -1.038  10.752  22.983  0.00  0.00    +0.000 A 
ATOM     11  C   UNL     1      -0.233  11.253  21.990  0.00  0.00    +0.000 A 
ATOM     12  C   UNL     1      -0.445  12.550  21.584  0.00  0.00    +0.000 A 
ATOM     13  C   UNL     1       0.375  12.860  20.387  0.00  0.00    +0.000 C 
ATOM     14  C   UNL     1       1.466  13.735  21.092  0.00  0.00    +0.000 C 
ATOM     15  C   UNL     1       1.796  14.982  20.338  0.00  0.00    +0.000 C 
ATOM     16  N   UNL     1       0.613  15.701  19.856  0.00  0.00    +0.000 NA
ATOM     17  C   UNL     1       0.979  16.281  18.556  0.00  0.00    +0.000 C 
ATOM     18  C   UNL     1       0.926  11.447  20.043  0.00  0.00    +0.000 C 
ATOM     19  O   UNL     1       0.783  10.645  21.286  0.00  0.00    +0.000 OA
ENDROOT
BRANCH   1  22
ATOM     20  C   UNL     1       1.730   8.688  18.558  0.00  0.00    +0.000 C 
ATOM     21  O   UNL     1       1.424   8.150  19.629  0.00  0.00    +0.000 OA
ATOM     22  N   UNL     1       1.043   9.768  18.039  0.00  0.00    +0.000 N 
ATOM     23  H   UNL     1       1.561  10.247  17.301  0.00  0.00    +0.000 HD
BRANCH  20  24
ATOM     24  C   UNL     1       2.996   8.251  17.756  0.00  0.00    +0.000 C 
BRANCH  24  27
ATOM     25  C   UNL     1       4.749   6.511  17.507  0.00  0.00    +0.000 C 
ATOM     26  O   UNL     1       5.588   7.341  17.161  0.00  0.00    +0.000 OA
ATOM     27  N   UNL     1       3.487   6.878  17.933  0.00  0.00    +0.000 N 
ATOM     28  H   UNL     1       2.786   6.145  17.800  0.00  0.00    +0.000 HD
BRANCH  25  29
ATOM     29  C   UNL     1       4.972   4.992  17.368  0.00  0.00    +0.000 C 
BRANCH  29  33
ATOM     30  C   UNL     1       6.311   4.020  13.958  0.00  0.00    +0.000 C 
ATOM     31  C   UNL     1       6.348   4.445  15.404  0.00  0.00    +0.000 C 
ATOM     32  O   UNL     1       7.389   4.582  16.037  0.00  0.00    +0.000 OA
ATOM     33  N   UNL     1       5.107   4.626  15.967  0.00  0.00    +0.000 N 
ATOM     34  H   UNL     1       4.293   4.252  15.491  0.00  0.00    +0.000 HD
ENDBRANCH  29  33
ENDBRANCH  25  29
ENDBRANCH  24  27
ENDBRANCH  20  24
ENDBRANCH   1  22
BRANCH   4  35
ATOM     35  O   UNL     1      -2.109  13.090  19.634  0.00  0.00    +0.000 OA
ATOM     36  H   UNL     1      -2.136  12.453  20.375  0.00  0.00    +0.000 HD
ENDBRANCH   4  35
BRANCH  10  37
ATOM     37  O   UNL     1      -0.866   9.488  23.376  0.00  0.00    +0.000 OA
ATOM     38  H   UNL     1      -1.728   9.141  23.713  0.00  0.00    +0.000 HD
ENDBRANCH  10  37
TORSDOF 7
ENDMDL
MODEL 2
REMARK VINA RESULT:      -7.5      4.882      9.469
REMARK  Name = 
REMARK  9 active torsions:
REMARK  status: ('A' for Active; 'I' for Inactive)
REMARK    1  A    between atoms: C_1  and  C_2
REMARK    2  A    between atoms: N_4  and  C_5
REMARK    3  A    between atoms: C_5  and  C_6
REMARK    4  A    between atoms: N_8  and  C_9
REMARK    5  A    between atoms: C_9  and  C_10
REMARK    6  A    between atoms: N_12  and  C_13
REMARK    7  A    between atoms: C_16  and  O_17
REMARK    8  A    between atoms: C_23  and  O_24
REMARK    9  A    between atoms: N_30  and  C_31
REMARK                            x       y       z     vdW  Elec       q    Type
REMARK                         _______ _______ _______ _____ _____    ______ ____
ROOT
ATOM      1  C   UNL     1      -3.400  12.480  22.031  0.00  0.00    +0.000 C 
ATOM      2  C   UNL     1      -2.276  11.935  22.921  0.00  0.00    +0.000 C 
ATOM      3  C   UNL     1      -0.804  12.341  22.671  0.00  0.00    +0.000 C 
ATOM      4  C   UNL     1      -0.487  12.158  21.221  0.00  0.00    +0.000 C 
ATOM      5  C   UNL     1       0.890  12.441  20.581  0.00  0.00    +0.000 C 
ATOM      6  C   UNL     1       0.804  11.578  19.154  0.00  0.00    +0.000 C 
ATOM      7  C   UNL     1      -0.631  11.210  18.666  0.00  0.00    +0.000 A 
ATOM      8  C   UNL     1      -1.038  10.155  17.868  0.00  0.00    +0.000 A 
ATOM      9  C   UNL     1      -2.430   9.968  17.591  0.00  0.00    +0.000 A 
ATOM     10  C   UNL     1      -3.432  10.824  18.082  0.00  0.00    +0.000 A 
ATOM     11  C   UNL     1      -3.038  11.823  18.937  0.00  0.00    +0.000 A 
ATOM     12  C   UNL     1      -1.695  11.948  19.203  0.00  0.00    +0.000 A 
ATOM     13  C   UNL     1      -1.469  12.943  20.281  0.00  0.00    +0.000 C 
ATOM     14  C   UNL     1      -0.942  14.116  19.388  0.00  0.00    +0.000 C 
ATOM     15  C   UNL     1       0.262  14.793  19.959  0.00  0.00    +0.000 C 
ATOM     16  N   UNL     1       1.277  13.857  20.452  0.00  0.00    +0.000 NA
ATOM     17  C   UNL     1       1.879  14.482  21.637  0.00  0.00    +0.000 C 
ATOM     18  C   UNL     1      -2.931  13.203  20.742  0.00  0.00    +0.000 C 
ATOM     19  O   UNL     1      -3.794  12.751  19.619  0.00  0.00    +0.000 OA
ENDROOT
BRANCH   1  22
ATOM     20  C   UNL     1      -5.756  13.063  22.713  0.00  0.00    +0.000 C 
ATOM     21  O   UNL     1      -6.274  12.126  22.094  0.00  0.00    +0.000 OA
ATOM     22  N   UNL     1      -4.393  13.165  22.913  0.00  0.00    +0.000 N 
ATOM     23  H   UNL     1      -4.106  14.100  23.208  0.00  0.00    +0.000 HD
BRANCH  20  24
ATOM     24  C   UNL     1      -6.600  14.271  23.228  0.00  0.00    +0.000 C 
BRANCH  24  27
ATOM     25  C   UNL     1      -5.507  16.368  23.983  0.00  0.00    +0.000 C 
ATOM     26  O   UNL     1      -5.689  16.908  22.894  0.00  0.00    +0.000 OA
ATOM     27  N   UNL     1      -6.024  15.121  24.278  0.00  0.00    +0.000 N 
ATOM     28  H   UNL     1      -5.496  14.624  24.999  0.00  0.00    +0.000 HD
BRANCH  25  29
ATOM     29  C   UNL     1      -4.579  16.958  25.062  0.00  0.00    +0.000 C 
BRANCH  29  33
ATOM     30  C   UNL     1      -1.132  15.530  24.396  0.00  0.00    +0.000 C 
ATOM     31  C   UNL     1      -2.558  15.567  24.881  0.00  0.00    +0.000 C 
ATOM     32  O   UNL     1      -3.126  14.596  25.372  0.00  0.00    +0.000 OA
ATOM     33  N   UNL     1      -3.185  16.775  24.688  0.00  0.00    +0.000 N 
ATOM     34  H   UNL     1      -2.769  17.448  24.054  0.00  0.00    +0.000 HD
ENDBRANCH  29  33
ENDBRANCH  25  29
ENDBRANCH  24  27
ENDBRANCH  20  24
ENDBRANCH   1  22
BRANCH   4  35
ATOM     35  O   UNL     1      -0.601  10.668  21.209  0.00  0.00    +0.000 OA
ATOM     36  H   UNL     1      -0.962  10.397  20.343  0.00  0.00    +0.000 HD
ENDBRANCH   4  35
BRANCH  10  37
ATOM     37  O   UNL     1      -4.734  10.669  17.827  0.00  0.00    +0.000 OA
ATOM     38  H   UNL     1      -5.171  11.555  17.868  0.00  0.00    +0.000 HD
ENDBRANCH  10  37
TORSDOF 7
ENDMDL
MODEL 3
REMARK VINA RESULT:      -7.5      4.573      9.041
REMARK  Name = 
REMARK  9 active torsions:
REMARK  status: ('A' for Active; 'I' for Inactive)
REMARK    1  A    between atoms: C_1  and  C_2
REMARK    2  A    between atoms: N_4  and  C_5
REMARK    3  A    between atoms: C_5  and  C_6
REMARK    4  A    between atoms: N_8  and  C_9
REMARK    5  A    between atoms: C_9  and  C_10
REMARK    6  A    between atoms: N_12  and  C_13
REMARK    7  A    between atoms: C_16  and  O_17
REMARK    8  A    between atoms: C_23  and  O_24
REMARK    9  A    between atoms: N_30  and  C_31
REMARK                            x       y       z     vdW  Elec       q    Type
REMARK                         _______ _______ _______ _____ _____    ______ ____
ROOT
ATOM      1  C   UNL     1      -2.922  12.291  22.018  0.00  0.00    +0.000 C 
ATOM      2  C   UNL     1      -1.769  11.543  22.700  0.00  0.00    +0.000 C 
ATOM      3  C   UNL     1      -0.309  11.745  22.230  0.00  0.00    +0.000 C 
ATOM      4  C   UNL     1      -0.251  11.596  20.742  0.00  0.00    +0.000 C 
ATOM      5  C   UNL     1       1.038  11.711  19.898  0.00  0.00    +0.000 C 
ATOM      6  C   UNL     1       0.603  10.945  18.479  0.00  0.00    +0.000 C 
ATOM      7  C   UNL     1      -0.928  10.815  18.217  0.00  0.00    +0.000 A 
ATOM      8  C   UNL     1      -1.608   9.872  17.464  0.00  0.00    +0.000 A 
ATOM      9  C   UNL     1      -3.038   9.902  17.408  0.00  0.00    +0.000 A 
ATOM     10  C   UNL     1      -3.812  10.867  18.078  0.00  0.00    +0.000 A 
ATOM     11  C   UNL     1      -3.144  11.753  18.888  0.00  0.00    +0.000 A 
ATOM     12  C   UNL     1      -1.773  11.669  18.939  0.00  0.00    +0.000 A 
ATOM     13  C   UNL     1      -1.237  12.562  19.995  0.00  0.00    +0.000 C 
ATOM     14  C   UNL     1      -0.683  13.692  19.064  0.00  0.00    +0.000 C 
ATOM     15  C   UNL     1       0.683  14.158  19.454  0.00  0.00    +0.000 C 
ATOM     16  N   UNL     1       1.609  13.061  19.750  0.00  0.00    +0.000 NA
ATOM     17  C   UNL     1       2.474  13.529  20.842  0.00  0.00    +0.000 C 
ATOM     18  C   UNL     1      -2.554  13.005  20.692  0.00  0.00    +0.000 C 
ATOM     19  O   UNL     1      -3.638  12.743  19.710  0.00  0.00    +0.000 OA
ENDROOT
BRANCH   1  22
ATOM     20  C   UNL     1      -5.027  13.192  23.071  0.00  0.00    +0.000 C 
ATOM     21  O   UNL     1      -5.777  12.392  22.498  0.00  0.00    +0.000 OA
ATOM     22  N   UNL     1      -3.652  13.064  23.068  0.00  0.00    +0.000 N 
ATOM     23  H   UNL     1      -3.176  13.920  23.355  0.00  0.00    +0.000 HD
BRANCH  20  24
ATOM     24  C   UNL     1      -5.578  14.481  23.757  0.00  0.00    +0.000 C 
BRANCH  24  27
ATOM     25  C   UNL     1      -4.193  16.531  23.969  0.00  0.00    +0.000 C 
ATOM     26  O   UNL     1      -4.717  17.042  22.982  0.00  0.00    +0.000 OA
ATOM     27  N   UNL     1      -4.634  15.331  24.494  0.00  0.00    +0.000 N 
ATOM     28  H   UNL     1      -3.912  14.827  25.015  0.00  0.00    +0.000 HD
BRANCH  25  29
ATOM     29  C   UNL     1      -2.921  17.099  24.627  0.00  0.00    +0.000 C 
BRANCH  29  33
ATOM     30  C   UNL     1       0.009  15.503  22.829  0.00  0.00    +0.000 C 
ATOM     31  C   UNL     1      -1.148  15.614  23.788  0.00  0.00    +0.000 C 
ATOM     32  O   UNL     1      -1.537  14.680  24.482  0.00  0.00    +0.000 OA
ATOM     33  N   UNL     1      -1.760  16.845  23.789  0.00  0.00    +0.000 N 
ATOM     34  H   UNL     1      -1.574  17.486  23.025  0.00  0.00    +0.000 HD
ENDBRANCH  29  33
ENDBRANCH  25  29
ENDBRANCH  24  27
ENDBRANCH  20  24
ENDBRANCH   1  22
BRANCH   4  35
ATOM     35  O   UNL     1      -0.588  10.140  20.705  0.00  0.00    +0.000 OA
ATOM     36  H   UNL     1       0.211   9.650  20.431  0.00  0.00    +0.000 HD
ENDBRANCH   4  35
BRANCH  10  37
ATOM     37  O   UNL     1      -5.145  10.915  18.031  0.00  0.00    +0.000 OA
ATOM     38  H   UNL     1      -5.499  10.785  18.945  0.00  0.00    +0.000 HD
ENDBRANCH  10  37
TORSDOF 7
ENDMDL
MODEL 4
REMARK VINA RESULT:      -7.4      6.863      9.250
REMARK  Name = 
REMARK  9 active torsions:
REMARK  status: ('A' for Active; 'I' for Inactive)
REMARK    1  A    between atoms: C_1  and  C_2
REMARK    2  A    between atoms: N_4  and  C_5
REMARK    3  A    between atoms: C_5  and  C_6
REMARK    4  A    between atoms: N_8  and  C_9
REMARK    5  A    between atoms: C_9  and  C_10
REMARK    6  A    between atoms: N_12  and  C_13
REMARK    7  A    between atoms: C_16  and  O_17
REMARK    8  A    between atoms: C_23  and  O_24
REMARK    9  A    between atoms: N_30  and  C_31
REMARK                            x       y       z     vdW  Elec       q    Type
REMARK                         _______ _______ _______ _____ _____    ______ ____
ROOT
ATOM      1  C   UNL     1       9.469  12.456  19.861  0.00  0.00    +0.000 C 
ATOM      2  C   UNL     1       9.880  12.540  21.337  0.00  0.00    +0.000 C 
ATOM      3  C   UNL     1       9.202  13.555  22.289  0.00  0.00    +0.000 C 
ATOM      4  C   UNL     1       9.205  14.905  21.644  0.00  0.00    +0.000 C 
ATOM      5  C   UNL     1       8.632  16.187  22.289  0.00  0.00    +0.000 C 
ATOM      6  C   UNL     1       9.376  17.393  21.405  0.00  0.00    +0.000 C 
ATOM      7  C   UNL     1       9.949  16.967  20.019  0.00  0.00    +0.000 A 
ATOM      8  C   UNL     1      10.991  17.524  19.296  0.00  0.00    +0.000 A 
ATOM      9  C   UNL     1      11.396  16.929  18.059  0.00  0.00    +0.000 A 
ATOM     10  C   UNL     1      10.773  15.792  17.514  0.00  0.00    +0.000 A 
ATOM     11  C   UNL     1       9.794  15.192  18.267  0.00  0.00    +0.000 A 
ATOM     12  C   UNL     1       9.457  15.777  19.465  0.00  0.00    +0.000 A 
ATOM     13  C   UNL     1       8.531  14.904  20.227  0.00  0.00    +0.000 C 
ATOM     14  C   UNL     1       7.214  15.712  19.977  0.00  0.00    +0.000 C 
ATOM     15  C   UNL     1       6.385  15.880  21.209  0.00  0.00    +0.000 C 
ATOM     16  N   UNL     1       7.165  16.275  22.386  0.00  0.00    +0.000 NA
ATOM     17  C   UNL     1       6.544  15.610  23.540  0.00  0.00    +0.000 C 
ATOM     18  C   UNL     1       8.571  13.615  19.357  0.00  0.00    +0.000 C 
ATOM     19  O   UNL     1       9.073  14.043  18.026  0.00  0.00    +0.000 OA
ENDROOT
BRANCH   1  22
ATOM     20  C   UNL     1       9.275  10.435  18.368  0.00  0.00    +0.000 C 
ATOM     21  O   UNL     1      10.164  10.800  17.588  0.00  0.00    +0.000 OA
ATOM     22  N   UNL     1       9.045  11.051  19.583  0.00  0.00    +0.000 N 
ATOM     23  H   UNL     1       8.138  10.807  19.983  0.00  0.00    +0.000 HD
BRANCH  20  24
ATOM     24  C   UNL     1       8.266   9.307  17.987  0.00  0.00    +0.000 C 
BRANCH  24  27
ATOM     25  C   UNL     1       7.913   6.853  18.118  0.00  0.00    +0.000 C 
ATOM     26  O   UNL     1       7.619   6.786  16.926  0.00  0.00    +0.000 OA
ATOM     27  N   UNL     1       8.359   8.025  18.698  0.00  0.00    +0.000 N 
ATOM     28  H   UNL     1       8.182   8.072  19.704  0.00  0.00    +0.000 HD
BRANCH  25  29
ATOM     29  C   UNL     1       7.683   5.689  19.101  0.00  0.00    +0.000 C 
BRANCH  29  33
ATOM     30  C   UNL     1       4.665   3.641  18.069  0.00  0.00    +0.000 C 
ATOM     31  C   UNL     1       5.450   4.704  18.795  0.00  0.00    +0.000 C 
ATOM     32  O   UNL     1       4.933   5.528  19.543  0.00  0.00    +0.000 OA
ATOM     33  N   UNL     1       6.795   4.697  18.514  0.00  0.00    +0.000 N 
ATOM     34  H   UNL     1       7.125   4.180  17.707  0.00  0.00    +0.000 HD
ENDBRANCH  29  33
ENDBRANCH  25  29
ENDBRANCH  24  27
ENDBRANCH  20  24
ENDBRANCH   1  22
BRANCH   4  35
ATOM     35  O   UNL     1      10.686  15.105  21.678  0.00  0.00    +0.000 OA
ATOM     36  H   UNL     1      11.112  14.226  21.648  0.00  0.00    +0.000 HD
ENDBRANCH   4  35
BRANCH  10  37
ATOM     37  O   UNL     1      11.133  15.228  16.358  0.00  0.00    +0.000 OA
ATOM     38  H   UNL     1      10.330  15.132  15.790  0.00  0.00    +0.000 HD
ENDBRANCH  10  37
TORSDOF 7
ENDMDL
MODEL 5
REMARK VINA RESULT:      -7.4      1.946      1.995
REMARK  Name = 
REMARK  9 active torsions:
REMARK  status: ('A' for Active; 'I' for Inactive)
REMARK    1  A    between atoms: C_1  and  C_2
REMARK    2  A    between atoms: N_4  and  C_5
REMARK    3  A    between atoms: C_5  and  C_6
REMARK    4  A    between atoms: N_8  and  C_9
REMARK    5  A    between atoms: C_9  and  C_10
REMARK    6  A    between atoms: N_12  and  C_13
REMARK    7  A    between atoms: C_16  and  O_17
REMARK    8  A    between atoms: C_23  and  O_24
REMARK    9  A    between atoms: N_30  and  C_31
REMARK                            x       y       z     vdW  Elec       q    Type
REMARK                         _______ _______ _______ _____ _____    ______ ____
ROOT
ATOM      1  C   UNL     1       0.533  11.547  19.241  0.00  0.00    +0.000 C 
ATOM      2  C   UNL     1      -0.241  12.420  18.245  0.00  0.00    +0.000 C 
ATOM      3  C   UNL     1      -0.298  13.956  18.419  0.00  0.00    +0.000 C 
ATOM      4  C   UNL     1      -0.678  14.273  19.832  0.00  0.00    +0.000 C 
ATOM      5  C   UNL     1      -0.855  15.701  20.394  0.00  0.00    +0.000 C 
ATOM      6  C   UNL     1      -1.766  15.432  21.767  0.00  0.00    +0.000 C 
ATOM      7  C   UNL     1      -1.742  13.977  22.326  0.00  0.00    +0.000 A 
ATOM      8  C   UNL     1      -2.695  13.317  23.084  0.00  0.00    +0.000 A 
ATOM      9  C   UNL     1      -2.494  11.945  23.441  0.00  0.00    +0.000 A 
ATOM     10  C   UNL     1      -1.350  11.216  23.073  0.00  0.00    +0.000 A 
ATOM     11  C   UNL     1      -0.442  11.844  22.256  0.00  0.00    +0.000 A 
ATOM     12  C   UNL     1      -0.689  13.152  21.909  0.00  0.00    +0.000 A 
ATOM     13  C   UNL     1       0.280  13.608  20.882  0.00  0.00    +0.000 C 
ATOM     14  C   UNL     1       1.177  14.496  21.808  0.00  0.00    +0.000 C 
ATOM     15  C   UNL     1       1.522  15.817  21.200  0.00  0.00    +0.000 C 
ATOM     16  N   UNL     1       0.375  16.490  20.584  0.00  0.00    +0.000 NA
ATOM     17  C   UNL     1       0.891  17.193  19.401  0.00  0.00    +0.000 C 
ATOM     18  C   UNL     1       0.986  12.266  20.537  0.00  0.00    +0.000 C 
ATOM     19  O   UNL     1       0.716  11.361  21.686  0.00  0.00    +0.000 OA
ENDROOT
BRANCH   1  22
ATOM     20  C   UNL     1       1.240   9.547  17.880  0.00  0.00    +0.000 C 
ATOM     21  O   UNL     1       0.086   9.215  17.582  0.00  0.00    +0.000 OA
ATOM     22  N   UNL     1       1.542  10.758  18.471  0.00  0.00    +0.000 N 
ATOM     23  H   UNL     1       2.477  10.775  18.880  0.00  0.00    +0.000 HD
BRANCH  20  24
ATOM     24  C   UNL     1       2.443   8.567  17.707  0.00  0.00    +0.000 C 
BRANCH  24  27
ATOM     25  C   UNL     1       3.303   6.377  18.497  0.00  0.00    +0.000 C 
ATOM     26  O   UNL     1       3.843   6.147  17.417  0.00  0.00    +0.000 OA
ATOM     27  N   UNL     1       2.697   7.588  18.771  0.00  0.00    +0.000 N 
ATOM     28  H   UNL     1       1.967   7.523  19.485  0.00  0.00    +0.000 HD
BRANCH  25  29
ATOM     29  C   UNL     1       3.129   5.302  19.588  0.00  0.00    +0.000 C 
BRANCH  29  33
ATOM     30  C   UNL     1       3.528   1.732  18.380  0.00  0.00    +0.000 C 
ATOM     31  C   UNL     1       3.918   3.047  19.005  0.00  0.00    +0.000 C 
ATOM     32  O   UNL     1       5.014   3.246  19.521  0.00  0.00    +0.000 OA
ATOM     33  N   UNL     1       2.924   3.995  18.984  0.00  0.00    +0.000 N 
ATOM     34  H   UNL     1       1.972   3.703  18.789  0.00  0.00    +0.000 HD
ENDBRANCH  29  33
ENDBRANCH  25  29
ENDBRANCH  24  27
ENDBRANCH  20  24
ENDBRANCH   1  22
BRANCH   4  35
ATOM     35  O   UNL     1      -2.068  13.730  19.758  0.00  0.00    +0.000 OA
ATOM     36  H   UNL     1      -2.510  13.911  20.610  0.00  0.00    +0.000 HD
ENDBRANCH   4  35
BRANCH  10  37
ATOM     37  O   UNL     1      -1.142   9.939  23.405  0.00  0.00    +0.000 OA
ATOM     38  H   UNL     1      -0.762   9.467  22.623  0.00  0.00    +0.000 HD
ENDBRANCH  10  37
TORSDOF 7
ENDMDL
MODEL 6
REMARK VINA RESULT:      -7.4      2.034      2.609
REMARK  Name = 
REMARK  9 active torsions:
REMARK  status: ('A' for Active; 'I' for Inactive)
REMARK    1  A    between atoms: C_1  and  C_2
REMARK    2  A    between atoms: N_4  and  C_5
REMARK    3  A    between atoms: C_5  and  C_6
REMARK    4  A    between atoms: N_8  and  C_9
REMARK    5  A    between atoms: C_9  and  C_10
REMARK    6  A    between atoms: N_12  and  C_13
REMARK    7  A    between atoms: C_16  and  O_17
REMARK    8  A    between atoms: C_23  and  O_24
REMARK    9  A    between atoms: N_30  and  C_31
REMARK                            x       y       z     vdW  Elec       q    Type
REMARK                         _______ _______ _______ _____ _____    ______ ____
ROOT
ATOM      1  C   UNL     1       0.523  11.640  19.254  0.00  0.00    +0.000 C 
ATOM      2  C   UNL     1      -0.187  12.581  18.273  0.00  0.00    +0.000 C 
ATOM      3  C   UNL     1      -0.147  14.114  18.479  0.00  0.00    +0.000 C 
ATOM      4  C   UNL     1      -0.517  14.425  19.896  0.00  0.00    +0.000 C 
ATOM      5  C   UNL     1      -0.607  15.849  20.487  0.00  0.00    +0.000 C 
ATOM      6  C   UNL     1      -1.543  15.610  21.849  0.00  0.00    +0.000 C 
ATOM      7  C   UNL     1      -1.615  14.145  22.377  0.00  0.00    +0.000 A 
ATOM      8  C   UNL     1      -2.613  13.530  23.115  0.00  0.00    +0.000 A 
ATOM      9  C   UNL     1      -2.502  12.142  23.444  0.00  0.00    +0.000 A 
ATOM     10  C   UNL     1      -1.404  11.349  23.067  0.00  0.00    +0.000 A 
ATOM     11  C   UNL     1      -0.452  11.936  22.270  0.00  0.00    +0.000 A 
ATOM     12  C   UNL     1      -0.613  13.263  21.949  0.00  0.00    +0.000 A 
ATOM     13  C   UNL     1       0.390  13.678  20.937  0.00  0.00    +0.000 C 
ATOM     14  C   UNL     1       1.335  14.488  21.887  0.00  0.00    +0.000 C 
ATOM     15  C   UNL     1       1.766  15.797  21.310  0.00  0.00    +0.000 C 
ATOM     16  N   UNL     1       0.669  16.555  20.701  0.00  0.00    +0.000 NA
ATOM     17  C   UNL     1       1.237  17.248  19.536  0.00  0.00    +0.000 C 
ATOM     18  C   UNL     1       1.012  12.301  20.568  0.00  0.00    +0.000 C 
ATOM     19  O   UNL     1       0.676  11.392  21.695  0.00  0.00    +0.000 OA
ENDROOT
BRANCH   1  22
ATOM     20  C   UNL     1       1.128   9.598  17.906  0.00  0.00    +0.000 C 
ATOM     21  O   UNL     1      -0.044   9.304  17.637  0.00  0.00    +0.000 OA
ATOM     22  N   UNL     1       1.486  10.805  18.474  0.00  0.00    +0.000 N 
ATOM     23  H   UNL     1       2.430  10.793  18.862  0.00  0.00    +0.000 HD
BRANCH  20  24
ATOM     24  C   UNL     1       2.290   8.573  17.720  0.00  0.00    +0.000 C 
BRANCH  24  27
ATOM     25  C   UNL     1       3.386   6.533  18.616  0.00  0.00    +0.000 C 
ATOM     26  O   UNL     1       4.108   6.432  17.626  0.00  0.00    +0.000 OA
ATOM     27  N   UNL     1       2.549   7.617  18.804  0.00  0.00    +0.000 N 
ATOM     28  H   UNL     1       1.745   7.408  19.401  0.00  0.00    +0.000 HD
BRANCH  25  29
ATOM     29  C   UNL     1       3.240   5.410  19.661  0.00  0.00    +0.000 C 
BRANCH  29  33
ATOM     30  C   UNL     1       0.863   2.591  18.790  0.00  0.00    +0.000 C 
ATOM     31  C   UNL     1       1.406   3.776  19.545  0.00  0.00    +0.000 C 
ATOM     32  O   UNL     1       0.814   4.304  20.482  0.00  0.00    +0.000 OA
ATOM     33  N   UNL     1       2.607   4.244  19.068  0.00  0.00    +0.000 N 
ATOM     34  H   UNL     1       2.918   3.947  18.149  0.00  0.00    +0.000 HD
ENDBRANCH  29  33
ENDBRANCH  25  29
ENDBRANCH  24  27
ENDBRANCH  20  24
ENDBRANCH   1  22
BRANCH   4  35
ATOM     35  O   UNL     1      -1.938  13.972  19.803  0.00  0.00    +0.000 OA
ATOM     36  H   UNL     1      -2.450  14.436  20.493  0.00  0.00    +0.000 HD
ENDBRANCH   4  35
BRANCH  10  37
ATOM     37  O   UNL     1      -1.280  10.055  23.373  0.00  0.00    +0.000 OA
ATOM     38  H   UNL     1      -0.508   9.686  22.877  0.00  0.00    +0.000 HD
ENDBRANCH  10  37
TORSDOF 7
ENDMDL
MODEL 7
REMARK VINA RESULT:      -7.4      1.432      1.878
REMARK  Name = 
REMARK  9 active torsions:
REMARK  status: ('A' for Active; 'I' for Inactive)
REMARK    1  A    between atoms: C_1  and  C_2
REMARK    2  A    between atoms: N_4  and  C_5
REMARK    3  A    between atoms: C_5  and  C_6
REMARK    4  A    between atoms: N_8  and  C_9
REMARK    5  A    between atoms: C_9  and  C_10
REMARK    6  A    between atoms: N_12  and  C_13
REMARK    7  A    between atoms: C_16  and  O_17
REMARK    8  A    between atoms: C_23  and  O_24
REMARK    9  A    between atoms: N_30  and  C_31
REMARK                            x       y       z     vdW  Elec       q    Type
REMARK                         _______ _______ _______ _____ _____    ______ ____
ROOT
ATOM      1  C   UNL     1       0.198  10.847  18.961  0.00  0.00    +0.000 C 
ATOM      2  C   UNL     1      -0.639  11.717  18.014  0.00  0.00    +0.000 C 
ATOM      3  C   UNL     1      -0.541  13.260  18.065  0.00  0.00    +0.000 C 
ATOM      4  C   UNL     1      -0.681  13.711  19.486  0.00  0.00    +0.000 C 
ATOM      5  C   UNL     1      -0.653  15.185  19.945  0.00  0.00    +0.000 C 
ATOM      6  C   UNL     1      -1.371  15.102  21.451  0.00  0.00    +0.000 C 
ATOM      7  C   UNL     1      -1.385  13.695  22.121  0.00  0.00    +0.000 A 
ATOM      8  C   UNL     1      -2.268  13.182  23.058  0.00  0.00    +0.000 A 
ATOM      9  C   UNL     1      -2.131  11.827  23.497  0.00  0.00    +0.000 A 
ATOM     10  C   UNL     1      -1.118  10.968  23.034  0.00  0.00    +0.000 A 
ATOM     11  C   UNL     1      -0.292  11.449  22.048  0.00  0.00    +0.000 A 
ATOM     12  C   UNL     1      -0.478  12.746  21.630  0.00  0.00    +0.000 A 
ATOM     13  C   UNL     1       0.363  13.035  20.442  0.00  0.00    +0.000 C 
ATOM     14  C   UNL     1       1.458  13.897  21.155  0.00  0.00    +0.000 C 
ATOM     15  C   UNL     1       1.818  15.134  20.397  0.00  0.00    +0.000 C 
ATOM     16  N   UNL     1       0.653  15.867  19.893  0.00  0.00    +0.000 NA
ATOM     17  C   UNL     1       1.045  16.432  18.595  0.00  0.00    +0.000 C 
ATOM     18  C   UNL     1       0.896  11.610  20.116  0.00  0.00    +0.000 C 
ATOM     19  O   UNL     1       0.724  10.820  21.362  0.00  0.00    +0.000 OA
ENDROOT
BRANCH   1  22
ATOM     20  C   UNL     1       1.631   8.797  18.653  0.00  0.00    +0.000 C 
ATOM     21  O   UNL     1       1.256   8.254  19.699  0.00  0.00    +0.000 OA
ATOM     22  N   UNL     1       1.013   9.914  18.126  0.00  0.00    +0.000 N 
ATOM     23  H   UNL     1       1.583  10.383  17.420  0.00  0.00    +0.000 HD
BRANCH  20  24
ATOM     24  C   UNL     1       2.911   8.320  17.897  0.00  0.00    +0.000 C 
BRANCH  24  27
ATOM     25  C   UNL     1       4.253   6.321  17.290  0.00  0.00    +0.000 C 
ATOM     26  O   UNL     1       4.772   6.903  16.339  0.00  0.00    +0.000 OA
ATOM     27  N   UNL     1       3.420   6.972  18.180  0.00  0.00    +0.000 N 
ATOM     28  H   UNL     1       2.759   6.346  18.647  0.00  0.00    +0.000 HD
BRANCH  25  29
ATOM     29  C   UNL     1       4.366   4.799  17.500  0.00  0.00    +0.000 C 
BRANCH  29  33
ATOM     30  C   UNL     1       1.289   3.126  18.947  0.00  0.00    +0.000 C 
ATOM     31  C   UNL     1       2.272   3.572  17.895  0.00  0.00    +0.000 C 
ATOM     32  O   UNL     1       2.178   3.258  16.713  0.00  0.00    +0.000 OA
ATOM     33  N   UNL     1       3.310   4.329  18.383  0.00  0.00    +0.000 N 
ATOM     34  H   UNL     1       3.483   4.338  19.382  0.00  0.00    +0.000 HD
ENDBRANCH  29  33
ENDBRANCH  25  29
ENDBRANCH  24  27
ENDBRANCH  20  24
ENDBRANCH   1  22
BRANCH   4  35
ATOM     35  O   UNL     1      -2.107  13.297  19.655  0.00  0.00    +0.000 OA
ATOM     36  H   UNL     1      -2.120  12.418  20.079  0.00  0.00    +0.000 HD
ENDBRANCH   4  35
BRANCH  10  37
ATOM     37  O   UNL     1      -0.971   9.704  23.439  0.00  0.00    +0.000 OA
ATOM     38  H   UNL     1      -1.099   9.669  24.419  0.00  0.00    +0.000 HD
ENDBRANCH  10  37
TORSDOF 7
ENDMDL
MODEL 8
REMARK VINA RESULT:      -7.4      4.641      9.030
REMARK  Name = 
REMARK  9 active torsions:
REMARK  status: ('A' for Active; 'I' for Inactive)
REMARK    1  A    between atoms: C_1  and  C_2
REMARK    2  A    between atoms: N_4  and  C_5
REMARK    3  A    between atoms: C_5  and  C_6
REMARK    4  A    between atoms: N_8  and  C_9
REMARK    5  A    between atoms: C_9  and  C_10
REMARK    6  A    between atoms: N_12  and  C_13
REMARK    7  A    between atoms: C_16  and  O_17
REMARK    8  A    between atoms: C_23  and  O_24
REMARK    9  A    between atoms: N_30  and  C_31
REMARK                            x       y       z     vdW  Elec       q    Type
REMARK                         _______ _______ _______ _____ _____    ______ ____
ROOT
ATOM      1  C   UNL     1      -3.908  12.370  19.335  0.00  0.00    +0.000 C 
ATOM      2  C   UNL     1      -3.298  11.629  18.138  0.00  0.00    +0.000 C 
ATOM      3  C   UNL     1      -1.891  10.993  18.237  0.00  0.00    +0.000 C 
ATOM      4  C   UNL     1      -0.938  12.002  18.796  0.00  0.00    +0.000 C 
ATOM      5  C   UNL     1       0.568  11.751  19.031  0.00  0.00    +0.000 C 
ATOM      6  C   UNL     1       1.176  13.304  19.128  0.00  0.00    +0.000 C 
ATOM      7  C   UNL     1       0.139  14.422  19.450  0.00  0.00    +0.000 A 
ATOM      8  C   UNL     1       0.181  15.770  19.132  0.00  0.00    +0.000 A 
ATOM      9  C   UNL     1      -0.922  16.616  19.474  0.00  0.00    +0.000 A 
ATOM     10  C   UNL     1      -2.067  16.151  20.145  0.00  0.00    +0.000 A 
ATOM     11  C   UNL     1      -2.145  14.802  20.390  0.00  0.00    +0.000 A 
ATOM     12  C   UNL     1      -1.078  14.018  20.015  0.00  0.00    +0.000 A 
ATOM     13  C   UNL     1      -1.408  12.581  20.177  0.00  0.00    +0.000 C 
ATOM     14  C   UNL     1      -0.572  12.311  21.473  0.00  0.00    +0.000 C 
ATOM     15  C   UNL     1       0.211  11.039  21.413  0.00  0.00    +0.000 C 
ATOM     16  N   UNL     1       0.920  10.853  20.144  0.00  0.00    +0.000 NA
ATOM     17  C   UNL     1       0.889   9.412  19.857  0.00  0.00    +0.000 C 
ATOM     18  C   UNL     1      -2.927  12.669  20.498  0.00  0.00    +0.000 C 
ATOM     19  O   UNL     1      -3.163  14.064  20.954  0.00  0.00    +0.000 OA
ENDROOT
BRANCH   1  22
ATOM     20  C   UNL     1      -6.411  12.422  19.627  0.00  0.00    +0.000 C 
ATOM     21  O   UNL     1      -6.567  13.462  18.974  0.00  0.00    +0.000 OA
ATOM     22  N   UNL     1      -5.218  11.726  19.654  0.00  0.00    +0.000 N 
ATOM     23  H   UNL     1      -5.171  11.054  20.420  0.00  0.00    +0.000 HD
BRANCH  20  24
ATOM     24  C   UNL     1      -7.530  11.871  20.566  0.00  0.00    +0.000 C 
BRANCH  24  27
ATOM     25  C   UNL     1      -7.225  12.820  22.840  0.00  0.00    +0.000 C 
ATOM     26  O   UNL     1      -7.677  13.909  22.495  0.00  0.00    +0.000 OA
ATOM     27  N   UNL     1      -7.224  11.726  21.995  0.00  0.00    +0.000 N 
ATOM     28  H   UNL     1      -6.495  11.044  22.217  0.00  0.00    +0.000 HD
BRANCH  25  29
ATOM     29  C   UNL     1      -6.495  12.605  24.180  0.00  0.00    +0.000 C 
BRANCH  29  33
ATOM     30  C   UNL     1      -3.063  14.206  24.330  0.00  0.00    +0.000 C 
ATOM     31  C   UNL     1      -4.087  13.106  24.222  0.00  0.00    +0.000 C 
ATOM     32  O   UNL     1      -3.792  11.929  24.035  0.00  0.00    +0.000 OA
ATOM     33  N   UNL     1      -5.388  13.540  24.310  0.00  0.00    +0.000 N 
ATOM     34  H   UNL     1      -5.583  14.529  24.202  0.00  0.00    +0.000 HD
ENDBRANCH  29  33
ENDBRANCH  25  29
ENDBRANCH  24  27
ENDBRANCH  20  24
ENDBRANCH   1  22
BRANCH   4  35
ATOM     35  O   UNL     1      -0.980  12.938  17.631  0.00  0.00    +0.000 OA
ATOM     36  H   UNL     1      -1.615  12.582  16.979  0.00  0.00    +0.000 HD
ENDBRANCH   4  35
BRANCH  10  37
ATOM     37  O   UNL     1      -3.101  16.927  20.479  0.00  0.00    +0.000 OA
ATOM     38  H   UNL     1      -3.460  17.346  19.659  0.00  0.00    +0.000 HD
ENDBRANCH  10  37
TORSDOF 7
ENDMDL
MODEL 9
REMARK VINA RESULT:      -7.4      4.720      8.909
REMARK  Name = 
REMARK  9 active torsions:
REMARK  status: ('A' for Active; 'I' for Inactive)
REMARK    1  A    between atoms: C_1  and  C_2
REMARK    2  A    between atoms: N_4  and  C_5
REMARK    3  A    between atoms: C_5  and  C_6
REMARK    4  A    between atoms: N_8  and  C_9
REMARK    5  A    between atoms: C_9  and  C_10
REMARK    6  A    between atoms: N_12  and  C_13
REMARK    7  A    between atoms: C_16  and  O_17
REMARK    8  A    between atoms: C_23  and  O_24
REMARK    9  A    between atoms: N_30  and  C_31
REMARK                            x       y       z     vdW  Elec       q    Type
REMARK                         _______ _______ _______ _____ _____    ______ ____
ROOT
ATOM      1  C   UNL     1      -3.194  11.887  18.919  0.00  0.00    +0.000 C 
ATOM      2  C   UNL     1      -2.238  10.990  18.122  0.00  0.00    +0.000 C 
ATOM      3  C   UNL     1      -1.022  10.325  18.810  0.00  0.00    +0.000 C 
ATOM      4  C   UNL     1      -0.274  11.361  19.588  0.00  0.00    +0.000 C 
ATOM      5  C   UNL     1       1.011  11.091  20.401  0.00  0.00    +0.000 C 
ATOM      6  C   UNL     1       1.653  12.623  20.571  0.00  0.00    +0.000 C 
ATOM      7  C   UNL     1       0.658  13.805  20.363  0.00  0.00    +0.000 A 
ATOM      8  C   UNL     1       0.916  15.103  19.956  0.00  0.00    +0.000 A 
ATOM      9  C   UNL     1      -0.167  16.020  19.770  0.00  0.00    +0.000 A 
ATOM     10  C   UNL     1      -1.512  15.675  19.996  0.00  0.00    +0.000 A 
ATOM     11  C   UNL     1      -1.776  14.368  20.323  0.00  0.00    +0.000 A 
ATOM     12  C   UNL     1      -0.709  13.511  20.460  0.00  0.00    +0.000 A 
ATOM     13  C   UNL     1      -1.182  12.114  20.623  0.00  0.00    +0.000 C 
ATOM     14  C   UNL     1      -0.915  11.972  22.160  0.00  0.00    +0.000 C 
ATOM     15  C   UNL     1      -0.264  10.678  22.525  0.00  0.00    +0.000 C 
ATOM     16  N   UNL     1       0.852  10.319  21.646  0.00  0.00    +0.000 NA
ATOM     17  C   UNL     1       0.823   8.857  21.510  0.00  0.00    +0.000 C 
ATOM     18  C   UNL     1      -2.700  12.289  20.332  0.00  0.00    +0.000 C 
ATOM     19  O   UNL     1      -2.984  13.735  20.527  0.00  0.00    +0.000 OA
ENDROOT
BRANCH   1  22
ATOM     20  C   UNL     1      -5.446  11.756  17.795  0.00  0.00    +0.000 C 
ATOM     21  O   UNL     1      -5.067  12.294  16.747  0.00  0.00    +0.000 OA
ATOM     22  N   UNL     1      -4.573  11.329  18.776  0.00  0.00    +0.000 N 
ATOM     23  H   UNL     1      -5.038  11.148  19.667  0.00  0.00    +0.000 HD
BRANCH  20  24
ATOM     24  C   UNL     1      -6.962  11.614  18.140  0.00  0.00    +0.000 C 
BRANCH  24  27
ATOM     25  C   UNL     1      -7.513  12.639  20.333  0.00  0.00    +0.000 C 
ATOM     26  O   UNL     1      -7.564  13.766  19.845  0.00  0.00    +0.000 OA
ATOM     27  N   UNL     1      -7.343  11.510  19.554  0.00  0.00    +0.000 N 
ATOM     28  H   UNL     1      -6.922  10.728  20.062  0.00  0.00    +0.000 HD
BRANCH  25  29
ATOM     29  C   UNL     1      -7.494  12.387  21.854  0.00  0.00    +0.000 C 
BRANCH  29  33
ATOM     30  C   UNL     1      -4.231  12.783  23.739  0.00  0.00    +0.000 C 
ATOM     31  C   UNL     1      -5.651  13.076  23.330  0.00  0.00    +0.000 C 
ATOM     32  O   UNL     1      -6.340  13.939  23.864  0.00  0.00    +0.000 OA
ATOM     33  N   UNL     1      -6.126  12.261  22.330  0.00  0.00    +0.000 N 
ATOM     34  H   UNL     1      -5.621  11.410  22.109  0.00  0.00    +0.000 HD
ENDBRANCH  29  33
ENDBRANCH  25  29
ENDBRANCH  24  27
ENDBRANCH  20  24
ENDBRANCH   1  22
BRANCH   4  35
ATOM     35  O   UNL     1       0.192  12.153  18.410  0.00  0.00    +0.000 OA
ATOM     36  H   UNL     1      -0.276  13.011  18.415  0.00  0.00    +0.000 HD
ENDBRANCH   4  35
BRANCH  10  37
ATOM     37  O   UNL     1      -2.534  16.519  19.835  0.00  0.00    +0.000 OA
ATOM     38  H   UNL     1      -2.559  16.808  18.890  0.00  0.00    +0.000 HD
ENDBRANCH  10  37
TORSDOF 7
ENDMDL
