MODEL 1
REMARK VINA RESULT:      -7.7      0.000      0.000
REMARK  Name = 
REMARK  12 active torsions:
REMARK  status: ('A' for Active; 'I' for Inactive)
REMARK    1  A    between atoms: C_1  and  C_2
REMARK    2  A    between atoms: C_2  and  C_3
REMARK    3  A    between atoms: C_2  and  C_4
REMARK    4  A    between atoms: C_4  and  O_5
REMARK    5  A    between atoms: O_5  and  C_6
REMARK    6  A    between atoms: C_6  and  C_8
REMARK    7  A    between atoms: C_11  and  C_12
REMARK    8  A    between atoms: N_17  and  C_18
REMARK    9  A    between atoms: C_18  and  C_19
REMARK   10  A    between atoms: C_18  and  C_26
REMARK   11  A    between atoms: C_19  and  C_20
REMARK   12  A    between atoms: C_26  and  O_28
REMARK                            x       y       z     vdW  Elec       q    Type
REMARK                         _______ _______ _______ _____ _____    ______ ____
ROOT
ATOM      1  C   UNL     1       1.501   9.232  18.474  0.00  0.00    +0.000 C 
ATOM      2  C   UNL     1       0.940   9.906  19.490  0.00  0.00    +0.000 C 
ATOM      3  S   UNL     1       1.046   9.519  21.154  0.00  0.00    +0.000 S 
ATOM      4  C   UNL     1      -0.296  10.572  21.579  0.00  0.00    +0.000 C 
ATOM      5  S   UNL     1      -0.976  10.476  23.092  0.00  0.00    +0.000 S 
ATOM      6  N   UNL     1      -0.676  11.327  20.484  0.00  0.00    +0.000 N 
ATOM      7  C   UNL     1       0.027  11.075  19.310  0.00  0.00    +0.000 C 
ATOM      8  O   UNL     1      -0.075  11.695  18.262  0.00  0.00    +0.000 OA
ENDROOT
BRANCH   1  12
ATOM      9  C   UNL     1       3.745   5.587  18.886  0.00  0.00    +0.000 A 
ATOM     10  C   UNL     1       3.934   6.428  17.782  0.00  0.00    +0.000 A 
ATOM     11  C   UNL     1       3.203   7.617  17.658  0.00  0.00    +0.000 A 
ATOM     12  C   UNL     1       2.270   7.987  18.634  0.00  0.00    +0.000 A 
ATOM     13  C   UNL     1       2.068   7.147  19.732  0.00  0.00    +0.000 A 
ATOM     14  C   UNL     1       2.799   5.956  19.860  0.00  0.00    +0.000 A 
BRANCH   9  15
ATOM     15  C   UNL     1       4.510   4.301  18.963  0.00  0.00    +0.000 C 
ATOM     16  O   UNL     1       5.677   4.218  19.311  0.00  0.00    +0.000 OA
BRANCH  15  17
ATOM     17  O   UNL     1       3.746   3.268  18.521  0.00  0.00    +0.000 OA
BRANCH  17  18
ATOM     18  C   UNL     1       3.362   2.305  19.518  0.00  0.00    +0.000 C 
BRANCH  18  20
ATOM     19  C   UNL     1       1.389   2.850  21.020  0.00  0.00    +0.000 C 
ATOM     20  C   UNL     1       1.842   2.213  19.705  0.00  0.00    +0.000 C 
ATOM     21  C   UNL     1       1.148   2.900  18.526  0.00  0.00    +0.000 C 
ENDBRANCH  18  20
ENDBRANCH  17  18
ENDBRANCH  15  17
ENDBRANCH   9  15
ENDBRANCH   1  12
BRANCH   6  22
ATOM     22  C   UNL     1      -1.567  12.530  20.506  0.00  0.00    +0.000 C 
BRANCH  22  23
ATOM     23  C   UNL     1      -0.850  13.885  20.321  0.00  0.00    +0.000 C 
ATOM     24  O   UNL     1      -0.137  14.432  21.146  0.00  0.00    +0.000 OA
BRANCH  23  25
ATOM     25  O   UNL     1      -1.036  14.423  19.091  0.00  0.00    +0.000 OA
ATOM     26  H   UNL     1      -0.230  14.487  18.549  0.00  0.00    +0.000 HD
ENDBRANCH  23  25
ENDBRANCH  22  23
BRANCH  22  27
ATOM     27  C   UNL     1      -2.838  12.368  19.636  0.00  0.00    +0.000 C 
BRANCH  27  28
ATOM     28  C   UNL     1      -4.121  12.600  20.413  0.00  0.00    +0.000 A 
ATOM     29  C   UNL     1      -4.068  12.912  21.780  0.00  0.00    +0.000 A 
ATOM     30  C   UNL     1      -5.233  12.939  22.550  0.00  0.00    +0.000 A 
ATOM     31  C   UNL     1      -6.466  12.671  21.961  0.00  0.00    +0.000 A 
ATOM     32  C   UNL     1      -6.541  12.425  20.593  0.00  0.00    +0.000 A 
ATOM     33  C   UNL     1      -5.379  12.408  19.819  0.00  0.00    +0.000 A 
ENDBRANCH  27  28
ENDBRANCH  22  27
ENDBRANCH   6  22
TORSDOF 10
ENDMDL
MODEL 2
REMARK VINA RESULT:      -7.7      2.001      3.276
REMARK  Name = 
REMARK  12 active torsions:
REMARK  status: ('A' for Active; 'I' for Inactive)
REMARK    1  A    between atoms: C_1  and  C_2
REMARK    2  A    between atoms: C_2  and  C_3
REMARK    3  A    between atoms: C_2  and  C_4
REMARK    4  A    between atoms: C_4  and  O_5
REMARK    5  A    between atoms: O_5  and  C_6
REMARK    6  A    between atoms: C_6  and  C_8
REMARK    7  A    between atoms: C_11  and  C_12
REMARK    8  A    between atoms: N_17  and  C_18
REMARK    9  A    between atoms: C_18  and  C_19
REMARK   10  A    between atoms: C_18  and  C_26
REMARK   11  A    between atoms: C_19  and  C_20
REMARK   12  A    between atoms: C_26  and  O_28
REMARK                            x       y       z     vdW  Elec       q    Type
REMARK                         _______ _______ _______ _____ _____    ______ ____
ROOT
ATOM      1  C   UNL     1       1.097   8.272  21.407  0.00  0.00    +0.000 C 
ATOM      2  C   UNL     1       0.392   9.342  21.009  0.00  0.00    +0.000 C 
ATOM      3  S   UNL     1      -0.127   9.686  19.415  0.00  0.00    +0.000 S 
ATOM      4  C   UNL     1      -0.477  11.367  19.794  0.00  0.00    +0.000 C 
ATOM      5  S   UNL     1      -0.773  12.447  18.566  0.00  0.00    +0.000 S 
ATOM      6  N   UNL     1      -0.364  11.584  21.155  0.00  0.00    +0.000 N 
ATOM      7  C   UNL     1       0.028  10.480  21.906  0.00  0.00    +0.000 C 
ATOM      8  O   UNL     1       0.089  10.423  23.125  0.00  0.00    +0.000 OA
ENDROOT
BRANCH   1  12
ATOM      9  C   UNL     1       2.540   5.247  18.713  0.00  0.00    +0.000 A 
ATOM     10  C   UNL     1       2.730   6.607  18.436  0.00  0.00    +0.000 A 
ATOM     11  C   UNL     1       2.262   7.586  19.323  0.00  0.00    +0.000 A 
ATOM     12  C   UNL     1       1.595   7.225  20.499  0.00  0.00    +0.000 A 
ATOM     13  C   UNL     1       1.391   5.871  20.775  0.00  0.00    +0.000 A 
ATOM     14  C   UNL     1       1.860   4.887  19.890  0.00  0.00    +0.000 A 
BRANCH   9  15
ATOM     15  C   UNL     1       3.012   4.228  17.720  0.00  0.00    +0.000 C 
ATOM     16  O   UNL     1       2.269   3.558  17.021  0.00  0.00    +0.000 OA
BRANCH  15  17
ATOM     17  O   UNL     1       4.365   4.110  17.769  0.00  0.00    +0.000 OA
BRANCH  17  18
ATOM     18  C   UNL     1       5.044   4.187  16.503  0.00  0.00    +0.000 C 
BRANCH  18  20
ATOM     19  C   UNL     1       5.178   6.584  15.678  0.00  0.00    +0.000 C 
ATOM     20  C   UNL     1       5.920   5.440  16.371  0.00  0.00    +0.000 C 
ATOM     21  C   UNL     1       6.379   5.882  17.762  0.00  0.00    +0.000 C 
ENDBRANCH  18  20
ENDBRANCH  17  18
ENDBRANCH  15  17
ENDBRANCH   9  15
ENDBRANCH   1  12
BRANCH   6  22
ATOM     22  C   UNL     1      -0.856  12.783  21.902  0.00  0.00    +0.000 C 
BRANCH  22  23
ATOM     23  C   UNL     1       0.191  13.895  22.129  0.00  0.00    +0.000 C 
ATOM     24  O   UNL     1       0.052  14.868  22.851  0.00  0.00    +0.000 OA
BRANCH  23  25
ATOM     25  O   UNL     1       1.357  13.670  21.475  0.00  0.00    +0.000 OA
ATOM     26  H   UNL     1       2.109  14.203  21.789  0.00  0.00    +0.000 HD
ENDBRANCH  23  25
ENDBRANCH  22  23
BRANCH  22  27
ATOM     27  C   UNL     1      -2.224  13.303  21.393  0.00  0.00    +0.000 C 
BRANCH  27  28
ATOM     28  C   UNL     1      -3.371  12.963  22.328  0.00  0.00    +0.000 A 
ATOM     29  C   UNL     1      -4.697  13.161  21.914  0.00  0.00    +0.000 A 
ATOM     30  C   UNL     1      -5.752  13.037  22.820  0.00  0.00    +0.000 A 
ATOM     31  C   UNL     1      -5.498  12.698  24.146  0.00  0.00    +0.000 A 
ATOM     32  C   UNL     1      -4.193  12.433  24.556  0.00  0.00    +0.000 A 
ATOM     33  C   UNL     1      -3.137  12.547  23.649  0.00  0.00    +0.000 A 
ENDBRANCH  27  28
ENDBRANCH  22  27
ENDBRANCH   6  22
TORSDOF 10
ENDMDL
MODEL 3
REMARK VINA RESULT:      -7.7      2.005      3.356
REMARK  Name = 
REMARK  12 active torsions:
REMARK  status: ('A' for Active; 'I' for Inactive)
REMARK    1  A    between atoms: C_1  and  C_2
REMARK    2  A    between atoms: C_2  and  C_3
REMARK    3  A    between atoms: C_2  and  C_4
REMARK    4  A    between atoms: C_4  and  O_5
REMARK    5  A    between atoms: O_5  and  C_6
REMARK    6  A    between atoms: C_6  and  C_8
REMARK    7  A    between atoms: C_11  and  C_12
REMARK    8  A    between atoms: N_17  and  C_18
REMARK    9  A    between atoms: C_18  and  C_19
REMARK   10  A    between atoms: C_18  and  C_26
REMARK   11  A    between atoms: C_19  and  C_20
REMARK   12  A    between atoms: C_26  and  O_28
REMARK                            x       y       z     vdW  Elec       q    Type
REMARK                         _______ _______ _______ _____ _____    ______ ____
ROOT
ATOM      1  C   UNL     1       1.127   8.329  21.355  0.00  0.00    +0.000 C 
ATOM      2  C   UNL     1       0.442   9.416  20.967  0.00  0.00    +0.000 C 
ATOM      3  S   UNL     1       0.057   9.859  19.359  0.00  0.00    +0.000 S 
ATOM      4  C   UNL     1      -0.352  11.508  19.815  0.00  0.00    +0.000 C 
ATOM      5  S   UNL     1      -0.559  12.664  18.639  0.00  0.00    +0.000 S 
ATOM      6  N   UNL     1      -0.360  11.635  21.193  0.00  0.00    +0.000 N 
ATOM      7  C   UNL     1      -0.017  10.488  21.901  0.00  0.00    +0.000 C 
ATOM      8  O   UNL     1      -0.061  10.351  23.114  0.00  0.00    +0.000 OA
ENDROOT
BRANCH   1  12
ATOM      9  C   UNL     1       2.875   5.444  18.688  0.00  0.00    +0.000 A 
ATOM     10  C   UNL     1       2.277   5.043  19.890  0.00  0.00    +0.000 A 
ATOM     11  C   UNL     1       1.704   5.989  20.751  0.00  0.00    +0.000 A 
ATOM     12  C   UNL     1       1.719   7.351  20.427  0.00  0.00    +0.000 A 
ATOM     13  C   UNL     1       2.324   7.758  19.236  0.00  0.00    +0.000 A 
ATOM     14  C   UNL     1       2.898   6.814  18.370  0.00  0.00    +0.000 A 
BRANCH   9  15
ATOM     15  C   UNL     1       3.518   4.410  17.814  0.00  0.00    +0.000 C 
ATOM     16  O   UNL     1       2.937   3.806  16.927  0.00  0.00    +0.000 OA
BRANCH  15  17
ATOM     17  O   UNL     1       4.803   4.196  18.200  0.00  0.00    +0.000 OA
BRANCH  17  18
ATOM     18  C   UNL     1       5.808   4.497  17.216  0.00  0.00    +0.000 C 
BRANCH  18  20
ATOM     19  C   UNL     1       6.376   6.971  17.250  0.00  0.00    +0.000 C 
ATOM     20  C   UNL     1       6.802   5.568  17.686  0.00  0.00    +0.000 C 
ATOM     21  C   UNL     1       6.923   5.508  19.210  0.00  0.00    +0.000 C 
ENDBRANCH  18  20
ENDBRANCH  17  18
ENDBRANCH  15  17
ENDBRANCH   9  15
ENDBRANCH   1  12
BRANCH   6  22
ATOM     22  C   UNL     1      -0.935  12.777  21.970  0.00  0.00    +0.000 C 
BRANCH  22  23
ATOM     23  C   UNL     1       0.048  13.927  22.276  0.00  0.00    +0.000 C 
ATOM     24  O   UNL     1      -0.172  14.876  23.012  0.00  0.00    +0.000 OA
BRANCH  23  25
ATOM     25  O   UNL     1       1.255  13.770  21.680  0.00  0.00    +0.000 OA
ATOM     26  H   UNL     1       1.812  14.568  21.673  0.00  0.00    +0.000 HD
ENDBRANCH  23  25
ENDBRANCH  22  23
BRANCH  22  27
ATOM     27  C   UNL     1      -2.310  13.251  21.437  0.00  0.00    +0.000 C 
BRANCH  27  28
ATOM     28  C   UNL     1      -3.456  12.918  22.376  0.00  0.00    +0.000 A 
ATOM     29  C   UNL     1      -4.783  13.097  21.956  0.00  0.00    +0.000 A 
ATOM     30  C   UNL     1      -5.838  12.980  22.863  0.00  0.00    +0.000 A 
ATOM     31  C   UNL     1      -5.583  12.667  24.196  0.00  0.00    +0.000 A 
ATOM     32  C   UNL     1      -4.277  12.422  24.612  0.00  0.00    +0.000 A 
ATOM     33  C   UNL     1      -3.221  12.528  23.704  0.00  0.00    +0.000 A 
ENDBRANCH  27  28
ENDBRANCH  22  27
ENDBRANCH   6  22
TORSDOF 10
ENDMDL
MODEL 4
REMARK VINA RESULT:      -7.5      2.062      3.385
REMARK  Name = 
REMARK  12 active torsions:
REMARK  status: ('A' for Active; 'I' for Inactive)
REMARK    1  A    between atoms: C_1  and  C_2
REMARK    2  A    between atoms: C_2  and  C_3
REMARK    3  A    between atoms: C_2  and  C_4
REMARK    4  A    between atoms: C_4  and  O_5
REMARK    5  A    between atoms: O_5  and  C_6
REMARK    6  A    between atoms: C_6  and  C_8
REMARK    7  A    between atoms: C_11  and  C_12
REMARK    8  A    between atoms: N_17  and  C_18
REMARK    9  A    between atoms: C_18  and  C_19
REMARK   10  A    between atoms: C_18  and  C_26
REMARK   11  A    between atoms: C_19  and  C_20
REMARK   12  A    between atoms: C_26  and  O_28
REMARK                            x       y       z     vdW  Elec       q    Type
REMARK                         _______ _______ _______ _____ _____    ______ ____
ROOT
ATOM      1  C   UNL     1       1.000   8.648  21.240  0.00  0.00    +0.000 C 
ATOM      2  C   UNL     1       0.264   9.681  20.803  0.00  0.00    +0.000 C 
ATOM      3  S   UNL     1      -0.254   9.957  19.195  0.00  0.00    +0.000 S 
ATOM      4  C   UNL     1      -0.661  11.637  19.517  0.00  0.00    +0.000 C 
ATOM      5  S   UNL     1      -0.983  12.667  18.253  0.00  0.00    +0.000 S 
ATOM      6  N   UNL     1      -0.565  11.901  20.872  0.00  0.00    +0.000 N 
ATOM      7  C   UNL     1      -0.143  10.835  21.660  0.00  0.00    +0.000 C 
ATOM      8  O   UNL     1      -0.090  10.820  22.881  0.00  0.00    +0.000 OA
ENDROOT
BRANCH   1  12
ATOM      9  C   UNL     1       2.591   5.532  18.741  0.00  0.00    +0.000 A 
ATOM     10  C   UNL     1       1.981   5.231  19.965  0.00  0.00    +0.000 A 
ATOM     11  C   UNL     1       1.459   6.252  20.771  0.00  0.00    +0.000 A 
ATOM     12  C   UNL     1       1.539   7.590  20.370  0.00  0.00    +0.000 A 
ATOM     13  C   UNL     1       2.158   7.898  19.155  0.00  0.00    +0.000 A 
ATOM     14  C   UNL     1       2.680   6.878  18.344  0.00  0.00    +0.000 A 
BRANCH   9  15
ATOM     15  C   UNL     1       3.179   4.419  17.927  0.00  0.00    +0.000 C 
ATOM     16  O   UNL     1       2.554   3.439  17.555  0.00  0.00    +0.000 OA
BRANCH  15  17
ATOM     17  O   UNL     1       4.508   4.625  17.732  0.00  0.00    +0.000 OA
BRANCH  17  18
ATOM     18  C   UNL     1       5.092   3.921  16.621  0.00  0.00    +0.000 C 
BRANCH  18  20
ATOM     19  C   UNL     1       6.017   4.272  14.283  0.00  0.00    +0.000 C 
ATOM     20  C   UNL     1       5.915   4.834  15.702  0.00  0.00    +0.000 C 
ATOM     21  C   UNL     1       5.274   6.223  15.669  0.00  0.00    +0.000 C 
ENDBRANCH  18  20
ENDBRANCH  17  18
ENDBRANCH  15  17
ENDBRANCH   9  15
ENDBRANCH   1  12
BRANCH   6  22
ATOM     22  C   UNL     1      -1.102  13.107  21.576  0.00  0.00    +0.000 C 
BRANCH  22  23
ATOM     23  C   UNL     1      -0.163  14.333  21.594  0.00  0.00    +0.000 C 
ATOM     24  O   UNL     1      -0.171  15.249  20.788  0.00  0.00    +0.000 OA
BRANCH  23  25
ATOM     25  O   UNL     1       0.679  14.344  22.657  0.00  0.00    +0.000 OA
ATOM     26  H   UNL     1       0.769  15.209  23.094  0.00  0.00    +0.000 HD
ENDBRANCH  23  25
ENDBRANCH  22  23
BRANCH  22  27
ATOM     27  C   UNL     1      -2.564  13.442  21.190  0.00  0.00    +0.000 C 
BRANCH  27  28
ATOM     28  C   UNL     1      -3.566  13.038  22.258  0.00  0.00    +0.000 A 
ATOM     29  C   UNL     1      -4.941  13.161  22.013  0.00  0.00    +0.000 A 
ATOM     30  C   UNL     1      -5.867  12.978  23.042  0.00  0.00    +0.000 A 
ATOM     31  C   UNL     1      -5.431  12.653  24.324  0.00  0.00    +0.000 A 
ATOM     32  C   UNL     1      -4.073  12.462  24.566  0.00  0.00    +0.000 A 
ATOM     33  C   UNL     1      -3.146  12.635  23.536  0.00  0.00    +0.000 A 
ENDBRANCH  27  28
ENDBRANCH  22  27
ENDBRANCH   6  22
TORSDOF 10
ENDMDL
MODEL 5
REMARK VINA RESULT:      -7.4      2.136      3.274
REMARK  Name = 
REMARK  12 active torsions:
REMARK  status: ('A' for Active; 'I' for Inactive)
REMARK    1  A    between atoms: C_1  and  C_2
REMARK    2  A    between atoms: C_2  and  C_3
REMARK    3  A    between atoms: C_2  and  C_4
REMARK    4  A    between atoms: C_4  and  O_5
REMARK    5  A    between atoms: O_5  and  C_6
REMARK    6  A    between atoms: C_6  and  C_8
REMARK    7  A    between atoms: C_11  and  C_12
REMARK    8  A    between atoms: N_17  and  C_18
REMARK    9  A    between atoms: C_18  and  C_19
REMARK   10  A    between atoms: C_18  and  C_26
REMARK   11  A    between atoms: C_19  and  C_20
REMARK   12  A    between atoms: C_26  and  O_28
REMARK                            x       y       z     vdW  Elec       q    Type
REMARK                         _______ _______ _______ _____ _____    ______ ____
ROOT
ATOM      1  C   UNL     1       0.977   8.404  21.560  0.00  0.00    +0.000 C 
ATOM      2  C   UNL     1       0.308   9.480  21.117  0.00  0.00    +0.000 C 
ATOM      3  S   UNL     1      -0.101   9.830  19.493  0.00  0.00    +0.000 S 
ATOM      4  C   UNL     1      -0.462  11.514  19.851  0.00  0.00    +0.000 C 
ATOM      5  S   UNL     1      -0.668  12.597  18.608  0.00  0.00    +0.000 S 
ATOM      6  N   UNL     1      -0.438  11.728  21.217  0.00  0.00    +0.000 N 
ATOM      7  C   UNL     1      -0.106  10.620  21.990  0.00  0.00    +0.000 C 
ATOM      8  O   UNL     1      -0.126  10.561  23.211  0.00  0.00    +0.000 OA
ENDROOT
BRANCH   1  12
ATOM      9  C   UNL     1       2.570   5.370  18.961  0.00  0.00    +0.000 A 
ATOM     10  C   UNL     1       2.711   6.729  18.652  0.00  0.00    +0.000 A 
ATOM     11  C   UNL     1       2.195   7.712  19.507  0.00  0.00    +0.000 A 
ATOM     12  C   UNL     1       1.527   7.355  20.685  0.00  0.00    +0.000 A 
ATOM     13  C   UNL     1       1.372   6.001  20.993  0.00  0.00    +0.000 A 
ATOM     14  C   UNL     1       1.889   5.014  20.139  0.00  0.00    +0.000 A 
BRANCH   9  15
ATOM     15  C   UNL     1       3.094   4.346  18.001  0.00  0.00    +0.000 C 
ATOM     16  O   UNL     1       2.955   3.142  18.142  0.00  0.00    +0.000 OA
BRANCH  15  17
ATOM     17  O   UNL     1       3.800   4.945  17.007  0.00  0.00    +0.000 OA
BRANCH  17  18
ATOM     18  C   UNL     1       4.815   4.136  16.387  0.00  0.00    +0.000 C 
BRANCH  18  20
ATOM     19  C   UNL     1       6.147   4.373  14.239  0.00  0.00    +0.000 C 
ATOM     20  C   UNL     1       5.853   4.965  15.619  0.00  0.00    +0.000 C 
ATOM     21  C   UNL     1       5.343   6.400  15.474  0.00  0.00    +0.000 C 
ENDBRANCH  18  20
ENDBRANCH  17  18
ENDBRANCH  15  17
ENDBRANCH   9  15
ENDBRANCH   1  12
BRANCH   6  22
ATOM     22  C   UNL     1      -0.970  12.930  21.932  0.00  0.00    +0.000 C 
BRANCH  22  23
ATOM     23  C   UNL     1       0.041  14.079  22.132  0.00  0.00    +0.000 C 
ATOM     24  O   UNL     1       1.252  13.990  22.019  0.00  0.00    +0.000 OA
BRANCH  23  25
ATOM     25  O   UNL     1      -0.550  15.269  22.402  0.00  0.00    +0.000 OA
ATOM     26  H   UNL     1      -1.324  15.473  21.848  0.00  0.00    +0.000 HD
ENDBRANCH  23  25
ENDBRANCH  22  23
BRANCH  22  27
ATOM     27  C   UNL     1      -2.352  13.393  21.407  0.00  0.00    +0.000 C 
BRANCH  27  28
ATOM     28  C   UNL     1      -3.460  13.233  22.434  0.00  0.00    +0.000 A 
ATOM     29  C   UNL     1      -3.163  12.754  23.718  0.00  0.00    +0.000 A 
ATOM     30  C   UNL     1      -4.186  12.419  24.607  0.00  0.00    +0.000 A 
ATOM     31  C   UNL     1      -5.518  12.576  24.232  0.00  0.00    +0.000 A 
ATOM     32  C   UNL     1      -5.826  13.114  22.985  0.00  0.00    +0.000 A 
ATOM     33  C   UNL     1      -4.804  13.458  22.097  0.00  0.00    +0.000 A 
ENDBRANCH  27  28
ENDBRANCH  22  27
ENDBRANCH   6  22
TORSDOF 10
ENDMDL
MODEL 6
REMARK VINA RESULT:      -7.4      1.229      1.612
REMARK  Name = 
REMARK  12 active torsions:
REMARK  status: ('A' for Active; 'I' for Inactive)
REMARK    1  A    between atoms: C_1  and  C_2
REMARK    2  A    between atoms: C_2  and  C_3
REMARK    3  A    between atoms: C_2  and  C_4
REMARK    4  A    between atoms: C_4  and  O_5
REMARK    5  A    between atoms: O_5  and  C_6
REMARK    6  A    between atoms: C_6  and  C_8
REMARK    7  A    between atoms: C_11  and  C_12
REMARK    8  A    between atoms: N_17  and  C_18
REMARK    9  A    between atoms: C_18  and  C_19
REMARK   10  A    between atoms: C_18  and  C_26
REMARK   11  A    between atoms: C_19  and  C_20
REMARK   12  A    between atoms: C_26  and  O_28
REMARK                            x       y       z     vdW  Elec       q    Type
REMARK                         _______ _______ _______ _____ _____    ______ ____
ROOT
ATOM      1  C   UNL     1       1.862   9.052  18.157  0.00  0.00    +0.000 C 
ATOM      2  C   UNL     1       1.448   9.548  19.333  0.00  0.00    +0.000 C 
ATOM      3  S   UNL     1       1.490   8.753  20.848  0.00  0.00    +0.000 S 
ATOM      4  C   UNL     1       0.378   9.899  21.584  0.00  0.00    +0.000 C 
ATOM      5  S   UNL     1      -0.297   9.563  23.065  0.00  0.00    +0.000 S 
ATOM      6  N   UNL     1       0.142  10.956  20.723  0.00  0.00    +0.000 N 
ATOM      7  C   UNL     1       0.776  10.874  19.487  0.00  0.00    +0.000 C 
ATOM      8  O   UNL     1       0.787  11.739  18.624  0.00  0.00    +0.000 OA
ENDROOT
BRANCH   1  12
ATOM      9  C   UNL     1       3.407   5.080  17.582  0.00  0.00    +0.000 A 
ATOM     10  C   UNL     1       4.254   6.196  17.535  0.00  0.00    +0.000 A 
ATOM     11  C   UNL     1       3.743   7.486  17.730  0.00  0.00    +0.000 A 
ATOM     12  C   UNL     1       2.380   7.686  17.973  0.00  0.00    +0.000 A 
ATOM     13  C   UNL     1       1.528   6.579  18.009  0.00  0.00    +0.000 A 
ATOM     14  C   UNL     1       2.035   5.284  17.815  0.00  0.00    +0.000 A 
BRANCH   9  15
ATOM     15  C   UNL     1       3.980   3.720  17.323  0.00  0.00    +0.000 C 
ATOM     16  O   UNL     1       4.954   3.510  16.618  0.00  0.00    +0.000 OA
BRANCH  15  17
ATOM     17  O   UNL     1       3.219   2.764  17.919  0.00  0.00    +0.000 OA
BRANCH  17  18
ATOM     18  C   UNL     1       3.216   2.778  19.358  0.00  0.00    +0.000 C 
BRANCH  18  20
ATOM     19  C   UNL     1       1.445   3.059  21.156  0.00  0.00    +0.000 C 
ATOM     20  C   UNL     1       1.912   2.232  19.957  0.00  0.00    +0.000 C 
ATOM     21  C   UNL     1       0.829   2.220  18.876  0.00  0.00    +0.000 C 
ENDBRANCH  18  20
ENDBRANCH  17  18
ENDBRANCH  15  17
ENDBRANCH   9  15
ENDBRANCH   1  12
BRANCH   6  22
ATOM     22  C   UNL     1      -0.501  12.260  21.080  0.00  0.00    +0.000 C 
BRANCH  22  23
ATOM     23  C   UNL     1       0.415  13.498  20.972  0.00  0.00    +0.000 C 
ATOM     24  O   UNL     1       1.406  13.712  21.651  0.00  0.00    +0.000 OA
BRANCH  23  25
ATOM     25  O   UNL     1       0.049  14.347  19.981  0.00  0.00    +0.000 OA
ATOM     26  H   UNL     1       0.415  15.245  20.060  0.00  0.00    +0.000 HD
ENDBRANCH  23  25
ENDBRANCH  22  23
BRANCH  22  27
ATOM     27  C   UNL     1      -1.896  12.452  20.434  0.00  0.00    +0.000 C 
BRANCH  27  28
ATOM     28  C   UNL     1      -3.017  12.517  21.456  0.00  0.00    +0.000 A 
ATOM     29  C   UNL     1      -4.321  12.836  21.048  0.00  0.00    +0.000 A 
ATOM     30  C   UNL     1      -5.320  13.088  21.991  0.00  0.00    +0.000 A 
ATOM     31  C   UNL     1      -5.033  13.008  23.352  0.00  0.00    +0.000 A 
ATOM     32  C   UNL     1      -3.761  12.627  23.770  0.00  0.00    +0.000 A 
ATOM     33  C   UNL     1      -2.763  12.365  22.829  0.00  0.00    +0.000 A 
ENDBRANCH  27  28
ENDBRANCH  22  27
ENDBRANCH   6  22
TORSDOF 10
ENDMDL
MODEL 7
REMARK VINA RESULT:      -7.4      3.774      4.974
REMARK  Name = 
REMARK  12 active torsions:
REMARK  status: ('A' for Active; 'I' for Inactive)
REMARK    1  A    between atoms: C_1  and  C_2
REMARK    2  A    between atoms: C_2  and  C_3
REMARK    3  A    between atoms: C_2  and  C_4
REMARK    4  A    between atoms: C_4  and  O_5
REMARK    5  A    between atoms: O_5  and  C_6
REMARK    6  A    between atoms: C_6  and  C_8
REMARK    7  A    between atoms: C_11  and  C_12
REMARK    8  A    between atoms: N_17  and  C_18
REMARK    9  A    between atoms: C_18  and  C_19
REMARK   10  A    between atoms: C_18  and  C_26
REMARK   11  A    between atoms: C_19  and  C_20
REMARK   12  A    between atoms: C_26  and  O_28
REMARK                            x       y       z     vdW  Elec       q    Type
REMARK                         _______ _______ _______ _____ _____    ______ ____
ROOT
ATOM      1  C   UNL     1       3.020   6.203  18.961  0.00  0.00    +0.000 C 
ATOM      2  C   UNL     1       2.312   7.343  18.979  0.00  0.00    +0.000 C 
ATOM      3  S   UNL     1       2.255   8.528  17.745  0.00  0.00    +0.000 S 
ATOM      4  C   UNL     1       1.549   9.735  18.811  0.00  0.00    +0.000 C 
ATOM      5  S   UNL     1       1.475  11.324  18.328  0.00  0.00    +0.000 S 
ATOM      6  N   UNL     1       1.207   9.162  20.023  0.00  0.00    +0.000 N 
ATOM      7  C   UNL     1       1.519   7.813  20.155  0.00  0.00    +0.000 C 
ATOM      8  O   UNL     1       1.215   7.092  21.094  0.00  0.00    +0.000 OA
ENDROOT
BRANCH   1  12
ATOM      9  C   UNL     1       5.672   5.108  15.758  0.00  0.00    +0.000 A 
ATOM     10  C   UNL     1       5.793   6.347  16.401  0.00  0.00    +0.000 A 
ATOM     11  C   UNL     1       4.929   6.693  17.449  0.00  0.00    +0.000 A 
ATOM     12  C   UNL     1       3.928   5.811  17.871  0.00  0.00    +0.000 A 
ATOM     13  C   UNL     1       3.793   4.579  17.225  0.00  0.00    +0.000 A 
ATOM     14  C   UNL     1       4.658   4.228  16.176  0.00  0.00    +0.000 A 
BRANCH   9  15
ATOM     15  C   UNL     1       6.583   4.790  14.612  0.00  0.00    +0.000 C 
ATOM     16  O   UNL     1       7.672   5.313  14.437  0.00  0.00    +0.000 OA
BRANCH  15  17
ATOM     17  O   UNL     1       5.992   3.903  13.769  0.00  0.00    +0.000 OA
BRANCH  17  18
ATOM     18  C   UNL     1       6.606   3.769  12.474  0.00  0.00    +0.000 C 
BRANCH  18  20
ATOM     19  C   UNL     1       6.013   1.525  11.444  0.00  0.00    +0.000 C 
ATOM     20  C   UNL     1       5.718   3.027  11.467  0.00  0.00    +0.000 C 
ATOM     21  C   UNL     1       4.248   3.264  11.821  0.00  0.00    +0.000 C 
ENDBRANCH  18  20
ENDBRANCH  17  18
ENDBRANCH  15  17
ENDBRANCH   9  15
ENDBRANCH   1  12
BRANCH   6  22
ATOM     22  C   UNL     1       0.330   9.771  21.072  0.00  0.00    +0.000 C 
BRANCH  22  23
ATOM     23  C   UNL     1       0.639   9.339  22.521  0.00  0.00    +0.000 C 
ATOM     24  O   UNL     1       1.685   9.541  23.117  0.00  0.00    +0.000 OA
BRANCH  23  25
ATOM     25  O   UNL     1      -0.409   8.738  23.134  0.00  0.00    +0.000 OA
ATOM     26  H   UNL     1      -1.118   9.343  23.415  0.00  0.00    +0.000 HD
ENDBRANCH  23  25
ENDBRANCH  22  23
BRANCH  22  27
ATOM     27  C   UNL     1       0.138  11.298  20.898  0.00  0.00    +0.000 C 
BRANCH  27  28
ATOM     28  C   UNL     1      -1.289  11.748  21.161  0.00  0.00    +0.000 A 
ATOM     29  C   UNL     1      -2.106  12.152  20.095  0.00  0.00    +0.000 A 
ATOM     30  C   UNL     1      -3.346  12.747  20.335  0.00  0.00    +0.000 A 
ATOM     31  C   UNL     1      -3.793  12.930  21.640  0.00  0.00    +0.000 A 
ATOM     32  C   UNL     1      -3.023  12.474  22.706  0.00  0.00    +0.000 A 
ATOM     33  C   UNL     1      -1.786  11.869  22.469  0.00  0.00    +0.000 A 
ENDBRANCH  27  28
ENDBRANCH  22  27
ENDBRANCH   6  22
TORSDOF 10
ENDMDL
MODEL 8
REMARK VINA RESULT:      -7.4      0.240      1.039
REMARK  Name = 
REMARK  12 active torsions:
REMARK  status: ('A' for Active; 'I' for Inactive)
REMARK    1  A    between atoms: C_1  and  C_2
REMARK    2  A    between atoms: C_2  and  C_3
REMARK    3  A    between atoms: C_2  and  C_4
REMARK    4  A    between atoms: C_4  and  O_5
REMARK    5  A    between atoms: O_5  and  C_6
REMARK    6  A    between atoms: C_6  and  C_8
REMARK    7  A    between atoms: C_11  and  C_12
REMARK    8  A    between atoms: N_17  and  C_18
REMARK    9  A    between atoms: C_18  and  C_19
REMARK   10  A    between atoms: C_18  and  C_26
REMARK   11  A    between atoms: C_19  and  C_20
REMARK   12  A    between atoms: C_26  and  O_28
REMARK                            x       y       z     vdW  Elec       q    Type
REMARK                         _______ _______ _______ _____ _____    ______ ____
ROOT
ATOM      1  C   UNL     1       1.560   9.293  18.460  0.00  0.00    +0.000 C 
ATOM      2  C   UNL     1       1.011   9.921  19.511  0.00  0.00    +0.000 C 
ATOM      3  S   UNL     1       1.104   9.440  21.151  0.00  0.00    +0.000 S 
ATOM      4  C   UNL     1      -0.216  10.497  21.631  0.00  0.00    +0.000 C 
ATOM      5  S   UNL     1      -0.902  10.332  23.136  0.00  0.00    +0.000 S 
ATOM      6  N   UNL     1      -0.577  11.320  20.579  0.00  0.00    +0.000 N 
ATOM      7  C   UNL     1       0.124  11.118  19.395  0.00  0.00    +0.000 C 
ATOM      8  O   UNL     1       0.039  11.798  18.383  0.00  0.00    +0.000 OA
ENDROOT
BRANCH   1  12
ATOM      9  C   UNL     1       3.731   5.595  18.778  0.00  0.00    +0.000 A 
ATOM     10  C   UNL     1       2.816   5.979  19.767  0.00  0.00    +0.000 A 
ATOM     11  C   UNL     1       2.107   7.183  19.652  0.00  0.00    +0.000 A 
ATOM     12  C   UNL     1       2.302   8.024  18.551  0.00  0.00    +0.000 A 
ATOM     13  C   UNL     1       3.223   7.653  17.568  0.00  0.00    +0.000 A 
ATOM     14  C   UNL     1       3.933   6.447  17.678  0.00  0.00    +0.000 A 
BRANCH   9  15
ATOM     15  C   UNL     1       4.505   4.324  18.956  0.00  0.00    +0.000 C 
ATOM     16  O   UNL     1       5.665   4.275  19.333  0.00  0.00    +0.000 OA
BRANCH  15  17
ATOM     17  O   UNL     1       3.758   3.256  18.569  0.00  0.00    +0.000 OA
BRANCH  17  18
ATOM     18  C   UNL     1       3.372   2.352  19.619  0.00  0.00    +0.000 C 
BRANCH  18  20
ATOM     19  C   UNL     1       1.345   2.923  21.038  0.00  0.00    +0.000 C 
ATOM     20  C   UNL     1       1.850   2.229  19.771  0.00  0.00    +0.000 C 
ATOM     21  C   UNL     1       1.171   2.832  18.539  0.00  0.00    +0.000 C 
ENDBRANCH  18  20
ENDBRANCH  17  18
ENDBRANCH  15  17
ENDBRANCH   9  15
ENDBRANCH   1  12
BRANCH   6  22
ATOM     22  C   UNL     1      -1.441  12.539  20.668  0.00  0.00    +0.000 C 
BRANCH  22  23
ATOM     23  C   UNL     1      -0.686  13.885  20.649  0.00  0.00    +0.000 C 
ATOM     24  O   UNL     1      -0.850  14.783  19.839  0.00  0.00    +0.000 OA
BRANCH  23  25
ATOM     25  O   UNL     1       0.178  14.026  21.684  0.00  0.00    +0.000 OA
ATOM     26  H   UNL     1       0.147  14.893  22.125  0.00  0.00    +0.000 HD
ENDBRANCH  23  25
ENDBRANCH  22  23
BRANCH  22  27
ATOM     27  C   UNL     1      -2.665  12.492  19.719  0.00  0.00    +0.000 C 
BRANCH  27  28
ATOM     28  C   UNL     1      -3.986  12.670  20.447  0.00  0.00    +0.000 A 
ATOM     29  C   UNL     1      -3.997  12.971  21.817  0.00  0.00    +0.000 A 
ATOM     30  C   UNL     1      -5.191  12.949  22.540  0.00  0.00    +0.000 A 
ATOM     31  C   UNL     1      -6.390  12.644  21.901  0.00  0.00    +0.000 A 
ATOM     32  C   UNL     1      -6.403  12.410  20.529  0.00  0.00    +0.000 A 
ATOM     33  C   UNL     1      -5.211  12.440  19.801  0.00  0.00    +0.000 A 
ENDBRANCH  27  28
ENDBRANCH  22  27
ENDBRANCH   6  22
TORSDOF 10
ENDMDL
MODEL 9
REMARK VINA RESULT:      -7.4      1.970      3.107
REMARK  Name = 
REMARK  12 active torsions:
REMARK  status: ('A' for Active; 'I' for Inactive)
REMARK    1  A    between atoms: C_1  and  C_2
REMARK    2  A    between atoms: C_2  and  C_3
REMARK    3  A    between atoms: C_2  and  C_4
REMARK    4  A    between atoms: C_4  and  O_5
REMARK    5  A    between atoms: O_5  and  C_6
REMARK    6  A    between atoms: C_6  and  C_8
REMARK    7  A    between atoms: C_11  and  C_12
REMARK    8  A    between atoms: N_17  and  C_18
REMARK    9  A    between atoms: C_18  and  C_19
REMARK   10  A    between atoms: C_18  and  C_26
REMARK   11  A    between atoms: C_19  and  C_20
REMARK   12  A    between atoms: C_26  and  O_28
REMARK                            x       y       z     vdW  Elec       q    Type
REMARK                         _______ _______ _______ _____ _____    ______ ____
ROOT
ATOM      1  C   UNL     1       0.948   8.525  21.501  0.00  0.00    +0.000 C 
ATOM      2  C   UNL     1       0.242   9.563  21.027  0.00  0.00    +0.000 C 
ATOM      3  S   UNL     1      -0.155   9.865  19.390  0.00  0.00    +0.000 S 
ATOM      4  C   UNL     1      -0.592  11.538  19.709  0.00  0.00    +0.000 C 
ATOM      5  S   UNL     1      -0.823  12.589  18.442  0.00  0.00    +0.000 S 
ATOM      6  N   UNL     1      -0.600  11.779  21.071  0.00  0.00    +0.000 N 
ATOM      7  C   UNL     1      -0.234  10.701  21.871  0.00  0.00    +0.000 C 
ATOM      8  O   UNL     1      -0.272  10.664  23.092  0.00  0.00    +0.000 OA
ENDROOT
BRANCH   1  12
ATOM      9  C   UNL     1       2.708   5.512  18.988  0.00  0.00    +0.000 A 
ATOM     10  C   UNL     1       2.763   6.866  18.634  0.00  0.00    +0.000 A 
ATOM     11  C   UNL     1       2.193   7.843  19.462  0.00  0.00    +0.000 A 
ATOM     12  C   UNL     1       1.556   7.484  20.655  0.00  0.00    +0.000 A 
ATOM     13  C   UNL     1       1.486   6.134  21.008  0.00  0.00    +0.000 A 
ATOM     14  C   UNL     1       2.057   5.153  20.182  0.00  0.00    +0.000 A 
BRANCH   9  15
ATOM     15  C   UNL     1       3.288   4.491  18.056  0.00  0.00    +0.000 C 
ATOM     16  O   UNL     1       2.707   4.050  17.077  0.00  0.00    +0.000 OA
BRANCH  15  17
ATOM     17  O   UNL     1       4.504   4.081  18.501  0.00  0.00    +0.000 OA
BRANCH  17  18
ATOM     18  C   UNL     1       5.632   4.521  17.724  0.00  0.00    +0.000 C 
BRANCH  18  20
ATOM     19  C   UNL     1       7.695   5.611  18.727  0.00  0.00    +0.000 C 
ATOM     20  C   UNL     1       6.254   5.820  18.258  0.00  0.00    +0.000 C 
ATOM     21  C   UNL     1       6.210   6.886  17.161  0.00  0.00    +0.000 C 
ENDBRANCH  18  20
ENDBRANCH  17  18
ENDBRANCH  15  17
ENDBRANCH   9  15
ENDBRANCH   1  12
BRANCH   6  22
ATOM     22  C   UNL     1      -1.193  12.971  21.754  0.00  0.00    +0.000 C 
BRANCH  22  23
ATOM     23  C   UNL     1      -0.276  14.210  21.834  0.00  0.00    +0.000 C 
ATOM     24  O   UNL     1       0.788  14.271  22.429  0.00  0.00    +0.000 OA
BRANCH  23  25
ATOM     25  O   UNL     1      -0.735  15.261  21.113  0.00  0.00    +0.000 OA
ATOM     26  H   UNL     1      -1.535  15.682  21.473  0.00  0.00    +0.000 HD
ENDBRANCH  23  25
ENDBRANCH  22  23
BRANCH  22  27
ATOM     27  C   UNL     1      -2.637  13.288  21.289  0.00  0.00    +0.000 C 
BRANCH  27  28
ATOM     28  C   UNL     1      -3.659  13.162  22.405  0.00  0.00    +0.000 A 
ATOM     29  C   UNL     1      -3.270  12.680  23.663  0.00  0.00    +0.000 A 
ATOM     30  C   UNL     1      -4.225  12.379  24.636  0.00  0.00    +0.000 A 
ATOM     31  C   UNL     1      -5.578  12.571  24.371  0.00  0.00    +0.000 A 
ATOM     32  C   UNL     1      -5.974  13.111  23.151  0.00  0.00    +0.000 A 
ATOM     33  C   UNL     1      -5.021  13.423  22.179  0.00  0.00    +0.000 A 
ENDBRANCH  27  28
ENDBRANCH  22  27
ENDBRANCH   6  22
TORSDOF 10
ENDMDL
