MODEL 1
REMARK VINA RESULT:      -8.1      0.000      0.000
REMARK  Name = 
REMARK  7 active torsions:
REMARK  status: ('A' for Active; 'I' for Inactive)
REMARK    1  A    between atoms: C_2  and  C_3
REMARK    2  A    between atoms: C_2  and  C_12
REMARK    3  A    between atoms: C_3  and  O_4
REMARK    4  A    between atoms: O_4  and  C_5
REMARK    5  A    between atoms: N_16  and  C_17
REMARK    6  A    between atoms: C_17  and  C_18
REMARK    7  A    between atoms: C_18  and  N_19
REMARK                            x       y       z     vdW  Elec       q    Type
REMARK                         _______ _______ _______ _____ _____    ______ ____
ROOT
ATOM      1  C   UNL     1       6.159   5.257  16.997  0.00  0.00    +0.000 A 
ATOM      2  C   UNL     1       6.846   4.915  18.163  0.00  0.00    +0.000 A 
ATOM      3  C   UNL     1       7.706   5.841  18.747  0.00  0.00    +0.000 A 
ATOM      4  C   UNL     1       7.841   7.100  18.171  0.00  0.00    +0.000 A 
ATOM      5  N   UNL     1       8.686   8.022  18.801  0.00  0.00    +0.000 N 
ATOM      6  N   UNL     1       7.182   7.439  17.047  0.00  0.00    +0.000 NA
ATOM      7  C   UNL     1       6.358   6.524  16.484  0.00  0.00    +0.000 A 
ATOM      8  H   UNL     1       9.644   7.694  18.701  0.00  0.00    +0.000 HD
ENDROOT
BRANCH   1  10
ATOM      9  O   UNL     1       5.315   4.123  15.131  0.00  0.00    +0.000 OA
ATOM     10  C   UNL     1       5.277   4.251  16.358  0.00  0.00    +0.000 C 
BRANCH  10  11
ATOM     11  C   UNL     1       4.302   3.456  17.202  0.00  0.00    +0.000 C 
BRANCH  11  12
ATOM     12  O   UNL     1       3.007   4.031  17.135  0.00  0.00    +0.000 OA
BRANCH  12  13
ATOM     13  C   UNL     1       2.593   4.702  18.260  0.00  0.00    +0.000 A 
ATOM     14  C   UNL     1       2.940   6.030  18.541  0.00  0.00    +0.000 A 
ATOM     15  C   UNL     1       2.512   6.647  19.717  0.00  0.00    +0.000 A 
ATOM     16  C   UNL     1       1.714   5.953  20.620  0.00  0.00    +0.000 A 
ATOM     17  C   UNL     1       1.328   4.642  20.338  0.00  0.00    +0.000 A 
ATOM     18  C   UNL     1       1.760   4.022  19.160  0.00  0.00    +0.000 A 
ATOM     19 BR   UNL     1       1.204   2.233  18.843  0.00  0.00    +0.000 Br
ENDBRANCH  12  13
ENDBRANCH  11  12
ENDBRANCH  10  11
ENDBRANCH   1  10
BRANCH   5  20
ATOM     20  C   UNL     1       8.526   9.415  18.369  0.00  0.00    +0.000 C 
BRANCH  20  21
ATOM     21  C   UNL     1       9.187  10.383  19.383  0.00  0.00    +0.000 C 
BRANCH  21  22
ATOM     22  N   UNL     1       9.274  11.795  18.950  0.00  0.00    +0.000 NA
ATOM     23  C   UNL     1      10.110  11.989  17.747  0.00  0.00    +0.000 C 
ATOM     24  C   UNL     1      11.606  11.742  17.999  0.00  0.00    +0.000 C 
ATOM     25  O   UNL     1      12.099  12.622  19.015  0.00  0.00    +0.000 OA
ATOM     26  C   UNL     1      11.365  12.461  20.237  0.00  0.00    +0.000 C 
ATOM     27  C   UNL     1       9.846  12.636  20.031  0.00  0.00    +0.000 C 
ENDBRANCH  21  22
ENDBRANCH  20  21
ENDBRANCH   5  20
TORSDOF 7
ENDMDL
MODEL 2
REMARK VINA RESULT:      -8.0      1.373      2.022
REMARK  Name = 
REMARK  7 active torsions:
REMARK  status: ('A' for Active; 'I' for Inactive)
REMARK    1  A    between atoms: C_2  and  C_3
REMARK    2  A    between atoms: C_2  and  C_12
REMARK    3  A    between atoms: C_3  and  O_4
REMARK    4  A    between atoms: O_4  and  C_5
REMARK    5  A    between atoms: N_16  and  C_17
REMARK    6  A    between atoms: C_17  and  C_18
REMARK    7  A    between atoms: C_18  and  N_19
REMARK                            x       y       z     vdW  Elec       q    Type
REMARK                         _______ _______ _______ _____ _____    ______ ____
ROOT
ATOM      1  C   UNL     1       6.403   5.336  17.152  0.00  0.00    +0.000 A 
ATOM      2  C   UNL     1       7.068   5.049  18.345  0.00  0.00    +0.000 A 
ATOM      3  C   UNL     1       7.883   6.019  18.923  0.00  0.00    +0.000 A 
ATOM      4  C   UNL     1       7.995   7.264  18.314  0.00  0.00    +0.000 A 
ATOM      5  N   UNL     1       8.794   8.230  18.937  0.00  0.00    +0.000 N 
ATOM      6  N   UNL     1       7.356   7.549  17.163  0.00  0.00    +0.000 NA
ATOM      7  C   UNL     1       6.576   6.593  16.606  0.00  0.00    +0.000 A 
ATOM      8  H   UNL     1       9.763   7.930  18.872  0.00  0.00    +0.000 HD
ENDROOT
BRANCH   1  10
ATOM      9  O   UNL     1       6.098   3.510  15.718  0.00  0.00    +0.000 OA
ATOM     10  C   UNL     1       5.569   4.285  16.519  0.00  0.00    +0.000 C 
BRANCH  10  11
ATOM     11  C   UNL     1       4.083   4.224  16.809  0.00  0.00    +0.000 C 
BRANCH  11  12
ATOM     12  O   UNL     1       3.789   4.890  18.026  0.00  0.00    +0.000 OA
BRANCH  12  13
ATOM     13  C   UNL     1       2.918   4.240  18.866  0.00  0.00    +0.000 A 
ATOM     14  C   UNL     1       2.791   2.846  18.921  0.00  0.00    +0.000 A 
ATOM     15  C   UNL     1       1.864   2.246  19.775  0.00  0.00    +0.000 A 
ATOM     16  C   UNL     1       1.066   3.029  20.602  0.00  0.00    +0.000 A 
ATOM     17  C   UNL     1       1.206   4.418  20.587  0.00  0.00    +0.000 A 
ATOM     18  C   UNL     1       2.133   5.019  19.729  0.00  0.00    +0.000 A 
ATOM     19 BR   UNL     1       2.266   6.914  19.753  0.00  0.00    +0.000 Br
ENDBRANCH  12  13
ENDBRANCH  11  12
ENDBRANCH  10  11
ENDBRANCH   1  10
BRANCH   5  20
ATOM     20  C   UNL     1       8.602   9.604  18.460  0.00  0.00    +0.000 C 
BRANCH  20  21
ATOM     21  C   UNL     1       9.243  10.619  19.441  0.00  0.00    +0.000 C 
BRANCH  21  22
ATOM     22  N   UNL     1      10.623  11.037  19.111  0.00  0.00    +0.000 NA
ATOM     23  C   UNL     1      11.190  12.002  20.075  0.00  0.00    +0.000 C 
ATOM     24  C   UNL     1      10.521  13.385  20.019  0.00  0.00    +0.000 C 
ATOM     25  O   UNL     1      10.648  13.954  18.711  0.00  0.00    +0.000 OA
ATOM     26  C   UNL     1      10.077  13.093  17.716  0.00  0.00    +0.000 C 
ATOM     27  C   UNL     1      10.668  11.670  17.769  0.00  0.00    +0.000 C 
ENDBRANCH  21  22
ENDBRANCH  20  21
ENDBRANCH   5  20
TORSDOF 7
ENDMDL
MODEL 3
REMARK VINA RESULT:      -7.9      1.213      1.605
REMARK  Name = 
REMARK  7 active torsions:
REMARK  status: ('A' for Active; 'I' for Inactive)
REMARK    1  A    between atoms: C_2  and  C_3
REMARK    2  A    between atoms: C_2  and  C_12
REMARK    3  A    between atoms: C_3  and  O_4
REMARK    4  A    between atoms: O_4  and  C_5
REMARK    5  A    between atoms: N_16  and  C_17
REMARK    6  A    between atoms: C_17  and  C_18
REMARK    7  A    between atoms: C_18  and  N_19
REMARK                            x       y       z     vdW  Elec       q    Type
REMARK                         _______ _______ _______ _____ _____    ______ ____
ROOT
ATOM      1  C   UNL     1       6.435   5.095  16.933  0.00  0.00    +0.000 A 
ATOM      2  C   UNL     1       6.988   4.881  18.197  0.00  0.00    +0.000 A 
ATOM      3  C   UNL     1       7.726   5.897  18.800  0.00  0.00    +0.000 A 
ATOM      4  C   UNL     1       7.872   7.113  18.142  0.00  0.00    +0.000 A 
ATOM      5  N   UNL     1       8.590   8.126  18.789  0.00  0.00    +0.000 N 
ATOM      6  N   UNL     1       7.341   7.328  16.923  0.00  0.00    +0.000 NA
ATOM      7  C   UNL     1       6.636   6.327  16.344  0.00  0.00    +0.000 A 
ATOM      8  H   UNL     1       9.566   7.846  18.832  0.00  0.00    +0.000 HD
ENDROOT
BRANCH   1  10
ATOM      9  O   UNL     1       5.992   3.670  15.128  0.00  0.00    +0.000 OA
ATOM     10  C   UNL     1       5.685   3.995  16.278  0.00  0.00    +0.000 C 
BRANCH  10  11
ATOM     11  C   UNL     1       4.521   3.342  16.996  0.00  0.00    +0.000 C 
BRANCH  11  12
ATOM     12  O   UNL     1       3.535   4.309  17.318  0.00  0.00    +0.000 OA
BRANCH  12  13
ATOM     13  C   UNL     1       2.774   4.038  18.430  0.00  0.00    +0.000 A 
ATOM     14  C   UNL     1       2.467   2.740  18.859  0.00  0.00    +0.000 A 
ATOM     15  C   UNL     1       1.663   2.530  19.981  0.00  0.00    +0.000 A 
ATOM     16  C   UNL     1       1.172   3.613  20.701  0.00  0.00    +0.000 A 
ATOM     17  C   UNL     1       1.498   4.912  20.309  0.00  0.00    +0.000 A 
ATOM     18  C   UNL     1       2.302   5.123  19.183  0.00  0.00    +0.000 A 
ATOM     19 BR   UNL     1       2.701   6.916  18.700  0.00  0.00    +0.000 Br
ENDBRANCH  12  13
ENDBRANCH  11  12
ENDBRANCH  10  11
ENDBRANCH   1  10
BRANCH   5  20
ATOM     20  C   UNL     1       8.419   9.471  18.228  0.00  0.00    +0.000 C 
BRANCH  20  21
ATOM     21  C   UNL     1       9.498  10.437  18.780  0.00  0.00    +0.000 C 
BRANCH  21  22
ATOM     22  N   UNL     1       9.191  11.878  18.644  0.00  0.00    +0.000 NA
ATOM     23  C   UNL     1      10.112  12.591  17.736  0.00  0.00    +0.000 C 
ATOM     24  C   UNL     1      11.538  12.721  18.294  0.00  0.00    +0.000 C 
ATOM     25  O   UNL     1      11.531  13.423  19.542  0.00  0.00    +0.000 OA
ATOM     26  C   UNL     1      10.690  12.764  20.499  0.00  0.00    +0.000 C 
ATOM     27  C   UNL     1       9.258  12.550  19.966  0.00  0.00    +0.000 C 
ENDBRANCH  21  22
ENDBRANCH  20  21
ENDBRANCH   5  20
TORSDOF 7
ENDMDL
MODEL 4
REMARK VINA RESULT:      -7.9      0.812      1.298
REMARK  Name = 
REMARK  7 active torsions:
REMARK  status: ('A' for Active; 'I' for Inactive)
REMARK    1  A    between atoms: C_2  and  C_3
REMARK    2  A    between atoms: C_2  and  C_12
REMARK    3  A    between atoms: C_3  and  O_4
REMARK    4  A    between atoms: O_4  and  C_5
REMARK    5  A    between atoms: N_16  and  C_17
REMARK    6  A    between atoms: C_17  and  C_18
REMARK    7  A    between atoms: C_18  and  N_19
REMARK                            x       y       z     vdW  Elec       q    Type
REMARK                         _______ _______ _______ _____ _____    ______ ____
ROOT
ATOM      1  C   UNL     1       6.467   5.275  17.060  0.00  0.00    +0.000 A 
ATOM      2  C   UNL     1       7.075   5.014  18.289  0.00  0.00    +0.000 A 
ATOM      3  C   UNL     1       7.855   5.999  18.888  0.00  0.00    +0.000 A 
ATOM      4  C   UNL     1       7.989   7.234  18.263  0.00  0.00    +0.000 A 
ATOM      5  N   UNL     1       8.751   8.216  18.907  0.00  0.00    +0.000 N 
ATOM      6  N   UNL     1       7.406   7.494  17.077  0.00  0.00    +0.000 NA
ATOM      7  C   UNL     1       6.660   6.523  16.501  0.00  0.00    +0.000 A 
ATOM      8  H   UNL     1       9.725   7.921  18.895  0.00  0.00    +0.000 HD
ENDROOT
BRANCH   1  10
ATOM      9  O   UNL     1       6.189   3.554  15.497  0.00  0.00    +0.000 OA
ATOM     10  C   UNL     1       5.672   4.207  16.407  0.00  0.00    +0.000 C 
BRANCH  10  11
ATOM     11  C   UNL     1       4.229   3.984  16.813  0.00  0.00    +0.000 C 
BRANCH  11  12
ATOM     12  O   UNL     1       4.150   3.643  18.187  0.00  0.00    +0.000 OA
BRANCH  12  13
ATOM     13  C   UNL     1       3.313   4.423  18.949  0.00  0.00    +0.000 A 
ATOM     14  C   UNL     1       3.516   5.793  19.165  0.00  0.00    +0.000 A 
ATOM     15  C   UNL     1       2.646   6.525  19.974  0.00  0.00    +0.000 A 
ATOM     16  C   UNL     1       1.549   5.904  20.562  0.00  0.00    +0.000 A 
ATOM     17  C   UNL     1       1.312   4.548  20.327  0.00  0.00    +0.000 A 
ATOM     18  C   UNL     1       2.186   3.814  19.518  0.00  0.00    +0.000 A 
ATOM     19 BR   UNL     1       1.808   1.972  19.247  0.00  0.00    +0.000 Br
ENDBRANCH  12  13
ENDBRANCH  11  12
ENDBRANCH  10  11
ENDBRANCH   1  10
BRANCH   5  20
ATOM     20  C   UNL     1       8.576   9.580  18.396  0.00  0.00    +0.000 C 
BRANCH  20  21
ATOM     21  C   UNL     1       9.177  10.616  19.381  0.00  0.00    +0.000 C 
BRANCH  21  22
ATOM     22  N   UNL     1      10.566  11.036  19.091  0.00  0.00    +0.000 NA
ATOM     23  C   UNL     1      11.127  11.947  20.109  0.00  0.00    +0.000 C 
ATOM     24  C   UNL     1      10.471  13.337  20.110  0.00  0.00    +0.000 C 
ATOM     25  O   UNL     1      10.623  13.968  18.834  0.00  0.00    +0.000 OA
ATOM     26  C   UNL     1      10.058  13.162  17.790  0.00  0.00    +0.000 C 
ATOM     27  C   UNL     1      10.636  11.732  17.782  0.00  0.00    +0.000 C 
ENDBRANCH  21  22
ENDBRANCH  20  21
ENDBRANCH   5  20
TORSDOF 7
ENDMDL
MODEL 5
REMARK VINA RESULT:      -7.7      1.366      1.920
REMARK  Name = 
REMARK  7 active torsions:
REMARK  status: ('A' for Active; 'I' for Inactive)
REMARK    1  A    between atoms: C_2  and  C_3
REMARK    2  A    between atoms: C_2  and  C_12
REMARK    3  A    between atoms: C_3  and  O_4
REMARK    4  A    between atoms: O_4  and  C_5
REMARK    5  A    between atoms: N_16  and  C_17
REMARK    6  A    between atoms: C_17  and  C_18
REMARK    7  A    between atoms: C_18  and  N_19
REMARK                            x       y       z     vdW  Elec       q    Type
REMARK                         _______ _______ _______ _____ _____    ______ ____
ROOT
ATOM      1  C   UNL     1       6.544   5.415  16.939  0.00  0.00    +0.000 A 
ATOM      2  C   UNL     1       7.170   5.151  18.159  0.00  0.00    +0.000 A 
ATOM      3  C   UNL     1       7.910   6.154  18.778  0.00  0.00    +0.000 A 
ATOM      4  C   UNL     1       7.987   7.408  18.183  0.00  0.00    +0.000 A 
ATOM      5  N   UNL     1       8.709   8.407  18.847  0.00  0.00    +0.000 N 
ATOM      6  N   UNL     1       7.386   7.672  17.006  0.00  0.00    +0.000 NA
ATOM      7  C   UNL     1       6.679   6.683  16.410  0.00  0.00    +0.000 A 
ATOM      8  H   UNL     1       9.694   8.155  18.823  0.00  0.00    +0.000 HD
ENDROOT
BRANCH   1  10
ATOM      9  O   UNL     1       6.013   4.108  15.070  0.00  0.00    +0.000 OA
ATOM     10  C   UNL     1       5.792   4.329  16.263  0.00  0.00    +0.000 C 
BRANCH  10  11
ATOM     11  C   UNL     1       4.725   3.565  17.022  0.00  0.00    +0.000 C 
BRANCH  11  12
ATOM     12  O   UNL     1       3.563   4.363  17.178  0.00  0.00    +0.000 OA
BRANCH  12  13
ATOM     13  C   UNL     1       2.638   3.899  18.081  0.00  0.00    +0.000 A 
ATOM     14  C   UNL     1       2.128   2.593  18.064  0.00  0.00    +0.000 A 
ATOM     15  C   UNL     1       1.165   2.190  18.991  0.00  0.00    +0.000 A 
ATOM     16  C   UNL     1       0.714   3.078  19.960  0.00  0.00    +0.000 A 
ATOM     17  C   UNL     1       1.238   4.371  20.015  0.00  0.00    +0.000 A 
ATOM     18  C   UNL     1       2.201   4.776  19.084  0.00  0.00    +0.000 A 
ATOM     19 BR   UNL     1       2.866   6.551  19.210  0.00  0.00    +0.000 Br
ENDBRANCH  12  13
ENDBRANCH  11  12
ENDBRANCH  10  11
ENDBRANCH   1  10
BRANCH   5  20
ATOM     20  C   UNL     1       8.471   9.774  18.371  0.00  0.00    +0.000 C 
BRANCH  20  21
ATOM     21  C   UNL     1       9.797  10.576  18.323  0.00  0.00    +0.000 C 
BRANCH  21  22
ATOM     22  N   UNL     1      10.029  11.489  19.465  0.00  0.00    +0.000 NA
ATOM     23  C   UNL     1       9.191  12.704  19.424  0.00  0.00    +0.000 C 
ATOM     24  C   UNL     1       9.573  13.668  18.289  0.00  0.00    +0.000 C 
ATOM     25  O   UNL     1      10.936  14.086  18.418  0.00  0.00    +0.000 OA
ATOM     26  C   UNL     1      11.823  12.958  18.420  0.00  0.00    +0.000 C 
ATOM     27  C   UNL     1      11.447  11.925  19.501  0.00  0.00    +0.000 C 
ENDBRANCH  21  22
ENDBRANCH  20  21
ENDBRANCH   5  20
TORSDOF 7
ENDMDL
MODEL 6
REMARK VINA RESULT:      -7.5      1.086      1.177
REMARK  Name = 
REMARK  7 active torsions:
REMARK  status: ('A' for Active; 'I' for Inactive)
REMARK    1  A    between atoms: C_2  and  C_3
REMARK    2  A    between atoms: C_2  and  C_12
REMARK    3  A    between atoms: C_3  and  O_4
REMARK    4  A    between atoms: O_4  and  C_5
REMARK    5  A    between atoms: N_16  and  C_17
REMARK    6  A    between atoms: C_17  and  C_18
REMARK    7  A    between atoms: C_18  and  N_19
REMARK                            x       y       z     vdW  Elec       q    Type
REMARK                         _______ _______ _______ _____ _____    ______ ____
ROOT
ATOM      1  C   UNL     1       6.247   5.340  17.219  0.00  0.00    +0.000 A 
ATOM      2  C   UNL     1       7.010   5.130  18.369  0.00  0.00    +0.000 A 
ATOM      3  C   UNL     1       7.836   6.148  18.837  0.00  0.00    +0.000 A 
ATOM      4  C   UNL     1       7.862   7.365  18.164  0.00  0.00    +0.000 A 
ATOM      5  N   UNL     1       8.676   8.382  18.679  0.00  0.00    +0.000 N 
ATOM      6  N   UNL     1       7.129   7.577  17.054  0.00  0.00    +0.000 NA
ATOM      7  C   UNL     1       6.338   6.573  16.605  0.00  0.00    +0.000 A 
ATOM      8  H   UNL     1       9.646   8.106  18.552  0.00  0.00    +0.000 HD
ENDROOT
BRANCH   1  10
ATOM      9  O   UNL     1       5.917   3.382  15.979  0.00  0.00    +0.000 OA
ATOM     10  C   UNL     1       5.401   4.237  16.703  0.00  0.00    +0.000 C 
BRANCH  10  11
ATOM     11  C   UNL     1       3.916   4.216  17.009  0.00  0.00    +0.000 C 
BRANCH  11  12
ATOM     12  O   UNL     1       3.702   4.153  18.410  0.00  0.00    +0.000 OA
BRANCH  12  13
ATOM     13  C   UNL     1       3.067   5.237  18.966  0.00  0.00    +0.000 A 
ATOM     14  C   UNL     1       3.054   6.510  18.380  0.00  0.00    +0.000 A 
ATOM     15  C   UNL     1       2.417   7.580  19.010  0.00  0.00    +0.000 A 
ATOM     16  C   UNL     1       1.765   7.389  20.223  0.00  0.00    +0.000 A 
ATOM     17  C   UNL     1       1.736   6.119  20.802  0.00  0.00    +0.000 A 
ATOM     18  C   UNL     1       2.379   5.047  20.172  0.00  0.00    +0.000 A 
ATOM     19 BR   UNL     1       2.308   3.348  21.019  0.00  0.00    +0.000 Br
ENDBRANCH  12  13
ENDBRANCH  11  12
ENDBRANCH  10  11
ENDBRANCH   1  10
BRANCH   5  20
ATOM     20  C   UNL     1       8.405   9.725  18.155  0.00  0.00    +0.000 C 
BRANCH  20  21
ATOM     21  C   UNL     1       9.588  10.680  18.459  0.00  0.00    +0.000 C 
BRANCH  21  22
ATOM     22  N   UNL     1       9.356  11.652  19.551  0.00  0.00    +0.000 NA
ATOM     23  C   UNL     1       9.234  13.046  19.079  0.00  0.00    +0.000 C 
ATOM     24  C   UNL     1      10.553  13.625  18.543  0.00  0.00    +0.000 C 
ATOM     25  O   UNL     1      11.564  13.598  19.556  0.00  0.00    +0.000 OA
ATOM     26  C   UNL     1      11.777  12.264  20.037  0.00  0.00    +0.000 C 
ATOM     27  C   UNL     1      10.471  11.608  20.530  0.00  0.00    +0.000 C 
ENDBRANCH  21  22
ENDBRANCH  20  21
ENDBRANCH   5  20
TORSDOF 7
ENDMDL
MODEL 7
REMARK VINA RESULT:      -7.3      1.324      1.585
REMARK  Name = 
REMARK  7 active torsions:
REMARK  status: ('A' for Active; 'I' for Inactive)
REMARK    1  A    between atoms: C_2  and  C_3
REMARK    2  A    between atoms: C_2  and  C_12
REMARK    3  A    between atoms: C_3  and  O_4
REMARK    4  A    between atoms: O_4  and  C_5
REMARK    5  A    between atoms: N_16  and  C_17
REMARK    6  A    between atoms: C_17  and  C_18
REMARK    7  A    between atoms: C_18  and  N_19
REMARK                            x       y       z     vdW  Elec       q    Type
REMARK                         _______ _______ _______ _____ _____    ______ ____
ROOT
ATOM      1  C   UNL     1       6.084   5.296  17.023  0.00  0.00    +0.000 A 
ATOM      2  C   UNL     1       6.868   4.945  18.123  0.00  0.00    +0.000 A 
ATOM      3  C   UNL     1       7.743   5.883  18.664  0.00  0.00    +0.000 A 
ATOM      4  C   UNL     1       7.797   7.159  18.114  0.00  0.00    +0.000 A 
ATOM      5  N   UNL     1       8.662   8.091  18.703  0.00  0.00    +0.000 N 
ATOM      6  N   UNL     1       7.044   7.506  17.053  0.00  0.00    +0.000 NA
ATOM      7  C   UNL     1       6.206   6.580  16.530  0.00  0.00    +0.000 A 
ATOM      8  H   UNL     1       9.618   7.795  18.521  0.00  0.00    +0.000 HD
ENDROOT
BRANCH   1  10
ATOM      9  O   UNL     1       5.167   4.150  15.198  0.00  0.00    +0.000 OA
ATOM     10  C   UNL     1       5.184   4.280  16.425  0.00  0.00    +0.000 C 
BRANCH  10  11
ATOM     11  C   UNL     1       4.257   3.475  17.314  0.00  0.00    +0.000 C 
BRANCH  11  12
ATOM     12  O   UNL     1       4.360   3.913  18.659  0.00  0.00    +0.000 OA
BRANCH  12  13
ATOM     13  C   UNL     1       3.257   3.686  19.446  0.00  0.00    +0.000 A 
ATOM     14  C   UNL     1       2.049   4.383  19.305  0.00  0.00    +0.000 A 
ATOM     15  C   UNL     1       0.973   4.129  20.157  0.00  0.00    +0.000 A 
ATOM     16  C   UNL     1       1.081   3.159  21.148  0.00  0.00    +0.000 A 
ATOM     17  C   UNL     1       2.264   2.430  21.279  0.00  0.00    +0.000 A 
ATOM     18  C   UNL     1       3.344   2.688  20.427  0.00  0.00    +0.000 A 
ATOM     19 BR   UNL     1       4.926   1.664  20.665  0.00  0.00    +0.000 Br
ENDBRANCH  12  13
ENDBRANCH  11  12
ENDBRANCH  10  11
ENDBRANCH   1  10
BRANCH   5  20
ATOM     20  C   UNL     1       8.429   9.488  18.322  0.00  0.00    +0.000 C 
BRANCH  20  21
ATOM     21  C   UNL     1       9.348  10.437  19.133  0.00  0.00    +0.000 C 
BRANCH  21  22
ATOM     22  N   UNL     1       9.761  11.673  18.432  0.00  0.00    +0.000 NA
ATOM     23  C   UNL     1      11.185  11.676  18.038  0.00  0.00    +0.000 C 
ATOM     24  C   UNL     1      12.147  11.767  19.232  0.00  0.00    +0.000 C 
ATOM     25  O   UNL     1      11.905  12.959  19.986  0.00  0.00    +0.000 OA
ATOM     26  C   UNL     1      10.547  13.011  20.448  0.00  0.00    +0.000 C 
ATOM     27  C   UNL     1       9.535  12.860  19.294  0.00  0.00    +0.000 C 
ENDBRANCH  21  22
ENDBRANCH  20  21
ENDBRANCH   5  20
TORSDOF 7
ENDMDL
MODEL 8
REMARK VINA RESULT:      -7.3      1.539      2.113
REMARK  Name = 
REMARK  7 active torsions:
REMARK  status: ('A' for Active; 'I' for Inactive)
REMARK    1  A    between atoms: C_2  and  C_3
REMARK    2  A    between atoms: C_2  and  C_12
REMARK    3  A    between atoms: C_3  and  O_4
REMARK    4  A    between atoms: O_4  and  C_5
REMARK    5  A    between atoms: N_16  and  C_17
REMARK    6  A    between atoms: C_17  and  C_18
REMARK    7  A    between atoms: C_18  and  N_19
REMARK                            x       y       z     vdW  Elec       q    Type
REMARK                         _______ _______ _______ _____ _____    ______ ____
ROOT
ATOM      1  C   UNL     1       6.440   5.894  17.775  0.00  0.00    +0.000 A 
ATOM      2  C   UNL     1       7.464   5.823  18.720  0.00  0.00    +0.000 A 
ATOM      3  C   UNL     1       8.290   6.926  18.917  0.00  0.00    +0.000 A 
ATOM      4  C   UNL     1       8.059   8.087  18.187  0.00  0.00    +0.000 A 
ATOM      5  N   UNL     1       8.885   9.191  18.433  0.00  0.00    +0.000 N 
ATOM      6  N   UNL     1       7.073   8.164  17.273  0.00  0.00    +0.000 NA
ATOM      7  C   UNL     1       6.285   7.080  17.084  0.00  0.00    +0.000 A 
ATOM      8  H   UNL     1       9.818   8.970  18.096  0.00  0.00    +0.000 HD
ENDROOT
BRANCH   1  10
ATOM      9  O   UNL     1       5.078   4.546  16.428  0.00  0.00    +0.000 OA
ATOM     10  C   UNL     1       5.590   4.701  17.540  0.00  0.00    +0.000 C 
BRANCH  10  11
ATOM     11  C   UNL     1       5.308   3.740  18.677  0.00  0.00    +0.000 C 
BRANCH  11  12
ATOM     12  O   UNL     1       4.112   3.018  18.429  0.00  0.00    +0.000 OA
BRANCH  12  13
ATOM     13  C   UNL     1       3.194   3.015  19.451  0.00  0.00    +0.000 A 
ATOM     14  C   UNL     1       3.442   2.452  20.711  0.00  0.00    +0.000 A 
ATOM     15  C   UNL     1       2.457   2.452  21.700  0.00  0.00    +0.000 A 
ATOM     16  C   UNL     1       1.218   3.033  21.452  0.00  0.00    +0.000 A 
ATOM     17  C   UNL     1       0.968   3.632  20.216  0.00  0.00    +0.000 A 
ATOM     18  C   UNL     1       1.954   3.628  19.223  0.00  0.00    +0.000 A 
ATOM     19 BR   UNL     1       1.544   4.452  17.561  0.00  0.00    +0.000 Br
ENDBRANCH  12  13
ENDBRANCH  11  12
ENDBRANCH  10  11
ENDBRANCH   1  10
BRANCH   5  20
ATOM     20  C   UNL     1       8.391  10.470  17.910  0.00  0.00    +0.000 C 
BRANCH  20  21
ATOM     21  C   UNL     1       9.390  11.613  18.224  0.00  0.00    +0.000 C 
BRANCH  21  22
ATOM     22  N   UNL     1      10.518  11.246  19.109  0.00  0.00    +0.000 NA
ATOM     23  C   UNL     1      10.452  11.884  20.439  0.00  0.00    +0.000 C 
ATOM     24  C   UNL     1      10.687  13.403  20.398  0.00  0.00    +0.000 C 
ATOM     25  O   UNL     1      11.971  13.699  19.839  0.00  0.00    +0.000 OA
ATOM     26  C   UNL     1      12.099  13.149  18.520  0.00  0.00    +0.000 C 
ATOM     27  C   UNL     1      11.810  11.635  18.491  0.00  0.00    +0.000 C 
ENDBRANCH  21  22
ENDBRANCH  20  21
ENDBRANCH   5  20
TORSDOF 7
ENDMDL
MODEL 9
REMARK VINA RESULT:      -7.2      1.349      1.527
REMARK  Name = 
REMARK  7 active torsions:
REMARK  status: ('A' for Active; 'I' for Inactive)
REMARK    1  A    between atoms: C_2  and  C_3
REMARK    2  A    between atoms: C_2  and  C_12
REMARK    3  A    between atoms: C_3  and  O_4
REMARK    4  A    between atoms: O_4  and  C_5
REMARK    5  A    between atoms: N_16  and  C_17
REMARK    6  A    between atoms: C_17  and  C_18
REMARK    7  A    between atoms: C_18  and  N_19
REMARK                            x       y       z     vdW  Elec       q    Type
REMARK                         _______ _______ _______ _____ _____    ______ ____
ROOT
ATOM      1  C   UNL     1       6.734   5.713  17.304  0.00  0.00    +0.000 A 
ATOM      2  C   UNL     1       7.468   5.522  18.475  0.00  0.00    +0.000 A 
ATOM      3  C   UNL     1       8.219   6.576  18.990  0.00  0.00    +0.000 A 
ATOM      4  C   UNL     1       8.199   7.805  18.340  0.00  0.00    +0.000 A 
ATOM      5  N   UNL     1       8.937   8.855  18.901  0.00  0.00    +0.000 N 
ATOM      6  N   UNL     1       7.493   7.998  17.210  0.00  0.00    +0.000 NA
ATOM      7  C   UNL     1       6.777   6.961  16.715  0.00  0.00    +0.000 A 
ATOM      8  H   UNL     1       9.925   8.637  18.804  0.00  0.00    +0.000 HD
ENDROOT
BRANCH   1  10
ATOM      9  O   UNL     1       6.458   3.939  15.801  0.00  0.00    +0.000 OA
ATOM     10  C   UNL     1       5.970   4.575  16.738  0.00  0.00    +0.000 C 
BRANCH  10  11
ATOM     11  C   UNL     1       4.584   4.259  17.266  0.00  0.00    +0.000 C 
BRANCH  11  12
ATOM     12  O   UNL     1       4.617   4.105  18.676  0.00  0.00    +0.000 OA
BRANCH  12  13
ATOM     13  C   UNL     1       3.393   4.023  19.295  0.00  0.00    +0.000 A 
ATOM     14  C   UNL     1       2.732   5.128  19.851  0.00  0.00    +0.000 A 
ATOM     15  C   UNL     1       1.503   4.975  20.495  0.00  0.00    +0.000 A 
ATOM     16  C   UNL     1       0.907   3.722  20.574  0.00  0.00    +0.000 A 
ATOM     17  C   UNL     1       1.533   2.618  19.993  0.00  0.00    +0.000 A 
ATOM     18  C   UNL     1       2.767   2.770  19.351  0.00  0.00    +0.000 A 
ATOM     19 BR   UNL     1       3.567   1.225  18.589  0.00  0.00    +0.000 Br
ENDBRANCH  12  13
ENDBRANCH  11  12
ENDBRANCH  10  11
ENDBRANCH   1  10
BRANCH   5  20
ATOM     20  C   UNL     1       8.609  10.192  18.393  0.00  0.00    +0.000 C 
BRANCH  20  21
ATOM     21  C   UNL     1       9.767  11.184  18.672  0.00  0.00    +0.000 C 
BRANCH  21  22
ATOM     22  N   UNL     1       9.812  12.372  17.790  0.00  0.00    +0.000 NA
ATOM     23  C   UNL     1      11.167  12.678  17.288  0.00  0.00    +0.000 C 
ATOM     24  C   UNL     1      12.124  13.177  18.382  0.00  0.00    +0.000 C 
ATOM     25  O   UNL     1      11.612  14.364  18.997  0.00  0.00    +0.000 OA
ATOM     26  C   UNL     1      10.310  14.136  19.554  0.00  0.00    +0.000 C 
ATOM     27  C   UNL     1       9.322  13.573  18.512  0.00  0.00    +0.000 C 
ENDBRANCH  21  22
ENDBRANCH  20  21
ENDBRANCH   5  20
TORSDOF 7
ENDMDL
