MODEL 1
REMARK VINA RESULT:      -7.8      0.000      0.000
REMARK  Name = 
REMARK  2 active torsions:
REMARK  status: ('A' for Active; 'I' for Inactive)
REMARK    1  A    between atoms: C_5  and  C_6
REMARK    2  A    between atoms: C_6  and  N_7
REMARK                            x       y       z     vdW  Elec       q    Type
REMARK                         _______ _______ _______ _____ _____    ______ ____
ROOT
ATOM      1  N   UNL     1       3.079   4.531  19.012  0.00  0.00    +0.000 N 
ATOM      2  C   UNL     1       2.114   3.902  19.769  0.00  0.00    +0.000 A 
ATOM      3 BR   UNL     1       0.948   2.574  19.118  0.00  0.00    +0.000 Br
ATOM      4  N   UNL     1       1.805   4.639  20.811  0.00  0.00    +0.000 NA
ATOM      5  C   UNL     1       2.057   5.904  20.370  0.00  0.00    +0.000 A 
ATOM      6  C   UNL     1       1.533   7.094  20.877  0.00  0.00    +0.000 A 
ATOM      7  C   UNL     1       1.491   8.192  20.019  0.00  0.00    +0.000 A 
ATOM      8 CL   UNL     1       0.443   9.492  20.481  0.00  0.00    +0.000 Cl
ATOM      9  C   UNL     1       2.165   8.156  18.785  0.00  0.00    +0.000 A 
ATOM     10 CL   UNL     1       2.008   9.457  17.647  0.00  0.00    +0.000 Cl
ATOM     11  C   UNL     1       2.918   7.033  18.375  0.00  0.00    +0.000 A 
ATOM     12  C   UNL     1       2.776   5.881  19.168  0.00  0.00    +0.000 A 
ENDROOT
BRANCH   1  13
ATOM     13  C   UNL     1       4.419   3.943  18.934  0.00  0.00    +0.000 C 
BRANCH  13  18
ATOM     14 CL   UNL     1       7.488   5.095  13.837  0.00  0.00    +0.000 Cl
ATOM     15  C   UNL     1       6.611   4.755  15.280  0.00  0.00    +0.000 A 
ATOM     16  C   UNL     1       5.298   4.319  15.200  0.00  0.00    +0.000 A 
ATOM     17  C   UNL     1       4.572   4.043  16.372  0.00  0.00    +0.000 A 
ATOM     18  C   UNL     1       5.176   4.186  17.638  0.00  0.00    +0.000 A 
ATOM     19  C   UNL     1       6.504   4.643  17.689  0.00  0.00    +0.000 A 
ATOM     20  C   UNL     1       7.229   4.918  16.517  0.00  0.00    +0.000 A 
ENDBRANCH  13  18
ENDBRANCH   1  13
TORSDOF 2
ENDMDL
MODEL 2
REMARK VINA RESULT:      -7.8      0.073      1.081
REMARK  Name = 
REMARK  2 active torsions:
REMARK  status: ('A' for Active; 'I' for Inactive)
REMARK    1  A    between atoms: C_5  and  C_6
REMARK    2  A    between atoms: C_6  and  N_7
REMARK                            x       y       z     vdW  Elec       q    Type
REMARK                         _______ _______ _______ _____ _____    ______ ____
ROOT
ATOM      1  N   UNL     1       3.114   4.544  18.973  0.00  0.00    +0.000 N 
ATOM      2  C   UNL     1       2.151   3.895  19.715  0.00  0.00    +0.000 A 
ATOM      3 BR   UNL     1       1.000   2.567  19.038  0.00  0.00    +0.000 Br
ATOM      4  N   UNL     1       1.831   4.613  20.767  0.00  0.00    +0.000 NA
ATOM      5  C   UNL     1       2.073   5.887  20.347  0.00  0.00    +0.000 A 
ATOM      6  C   UNL     1       1.537   7.064  20.870  0.00  0.00    +0.000 A 
ATOM      7  C   UNL     1       1.489   8.175  20.029  0.00  0.00    +0.000 A 
ATOM      8 CL   UNL     1       0.426   9.458  20.506  0.00  0.00    +0.000 Cl
ATOM      9  C   UNL     1       2.168   8.164  18.797  0.00  0.00    +0.000 A 
ATOM     10 CL   UNL     1       2.005   9.481  17.679  0.00  0.00    +0.000 Cl
ATOM     11  C   UNL     1       2.934   7.054  18.374  0.00  0.00    +0.000 A 
ATOM     12  C   UNL     1       2.798   5.889  19.147  0.00  0.00    +0.000 A 
ENDROOT
BRANCH   1  13
ATOM     13  C   UNL     1       4.459   3.970  18.891  0.00  0.00    +0.000 C 
BRANCH  13  18
ATOM     14 CL   UNL     1       7.495   5.008  13.751  0.00  0.00    +0.000 Cl
ATOM     15  C   UNL     1       6.637   4.724  15.217  0.00  0.00    +0.000 A 
ATOM     16  C   UNL     1       7.291   4.855  16.432  0.00  0.00    +0.000 A 
ATOM     17  C   UNL     1       6.602   4.622  17.635  0.00  0.00    +0.000 A 
ATOM     18  C   UNL     1       5.236   4.274  17.620  0.00  0.00    +0.000 A 
ATOM     19  C   UNL     1       4.602   4.136  16.373  0.00  0.00    +0.000 A 
ATOM     20  C   UNL     1       5.292   4.369  15.172  0.00  0.00    +0.000 A 
ENDBRANCH  13  18
ENDBRANCH   1  13
TORSDOF 2
ENDMDL
MODEL 3
REMARK VINA RESULT:      -7.2      3.822      5.989
REMARK  Name = 
REMARK  2 active torsions:
REMARK  status: ('A' for Active; 'I' for Inactive)
REMARK    1  A    between atoms: C_5  and  C_6
REMARK    2  A    between atoms: C_6  and  N_7
REMARK                            x       y       z     vdW  Elec       q    Type
REMARK                         _______ _______ _______ _____ _____    ______ ____
ROOT
ATOM      1  N   UNL     1       5.230   4.157  16.150  0.00  0.00    +0.000 N 
ATOM      2  C   UNL     1       5.503   4.772  14.947  0.00  0.00    +0.000 A 
ATOM      3 BR   UNL     1       6.290   3.915  13.466  0.00  0.00    +0.000 Br
ATOM      4  N   UNL     1       5.580   6.073  15.112  0.00  0.00    +0.000 NA
ATOM      5  C   UNL     1       5.996   6.188  16.405  0.00  0.00    +0.000 A 
ATOM      6  C   UNL     1       6.636   7.280  16.991  0.00  0.00    +0.000 A 
ATOM      7  C   UNL     1       7.414   7.035  18.122  0.00  0.00    +0.000 A 
ATOM      8 CL   UNL     1       8.552   8.267  18.557  0.00  0.00    +0.000 Cl
ATOM      9  C   UNL     1       7.356   5.787  18.769  0.00  0.00    +0.000 A 
ATOM     10 CL   UNL     1       8.418   5.419  20.090  0.00  0.00    +0.000 Cl
ATOM     11  C   UNL     1       6.505   4.751  18.322  0.00  0.00    +0.000 A 
ATOM     12  C   UNL     1       5.890   4.962  17.075  0.00  0.00    +0.000 A 
ENDROOT
BRANCH   1  13
ATOM     13  C   UNL     1       3.936   3.497  16.337  0.00  0.00    +0.000 C 
BRANCH  13  18
ATOM     14 CL   UNL     1       1.761   3.180  21.984  0.00  0.00    +0.000 Cl
ATOM     15  C   UNL     1       2.383   3.283  20.381  0.00  0.00    +0.000 A 
ATOM     16  C   UNL     1       2.032   4.354  19.575  0.00  0.00    +0.000 A 
ATOM     17  C   UNL     1       2.529   4.447  18.264  0.00  0.00    +0.000 A 
ATOM     18  C   UNL     1       3.407   3.464  17.762  0.00  0.00    +0.000 A 
ATOM     19  C   UNL     1       3.735   2.382  18.597  0.00  0.00    +0.000 A 
ATOM     20  C   UNL     1       3.237   2.291  19.907  0.00  0.00    +0.000 A 
ENDBRANCH  13  18
ENDBRANCH   1  13
TORSDOF 2
ENDMDL
MODEL 4
REMARK VINA RESULT:      -7.1      1.037      1.648
REMARK  Name = 
REMARK  2 active torsions:
REMARK  status: ('A' for Active; 'I' for Inactive)
REMARK    1  A    between atoms: C_5  and  C_6
REMARK    2  A    between atoms: C_6  and  N_7
REMARK                            x       y       z     vdW  Elec       q    Type
REMARK                         _______ _______ _______ _____ _____    ______ ____
ROOT
ATOM      1  N   UNL     1       3.984   4.737  18.110  0.00  0.00    +0.000 N 
ATOM      2  C   UNL     1       3.216   3.825  18.800  0.00  0.00    +0.000 A 
ATOM      3 BR   UNL     1       2.269   2.407  18.000  0.00  0.00    +0.000 Br
ATOM      4  N   UNL     1       2.860   4.322  19.963  0.00  0.00    +0.000 NA
ATOM      5  C   UNL     1       2.836   5.664  19.722  0.00  0.00    +0.000 A 
ATOM      6  C   UNL     1       2.142   6.637  20.441  0.00  0.00    +0.000 A 
ATOM      7  C   UNL     1       1.829   7.822  19.777  0.00  0.00    +0.000 A 
ATOM      8 CL   UNL     1       0.597   8.807  20.495  0.00  0.00    +0.000 Cl
ATOM      9  C   UNL     1       2.397   8.105  18.521  0.00  0.00    +0.000 A 
ATOM     10 CL   UNL     1       1.910   9.505  17.620  0.00  0.00    +0.000 Cl
ATOM     11  C   UNL     1       3.311   7.226  17.897  0.00  0.00    +0.000 A 
ATOM     12  C   UNL     1       3.448   5.963  18.498  0.00  0.00    +0.000 A 
ENDROOT
BRANCH   1  13
ATOM     13  C   UNL     1       5.399   4.443  17.871  0.00  0.00    +0.000 C 
BRANCH  13  18
ATOM     14 CL   UNL     1       7.185   4.508  12.080  0.00  0.00    +0.000 Cl
ATOM     15  C   UNL     1       6.680   4.503  13.727  0.00  0.00    +0.000 A 
ATOM     16  C   UNL     1       7.501   5.055  14.699  0.00  0.00    +0.000 A 
ATOM     17  C   UNL     1       7.101   5.052  16.047  0.00  0.00    +0.000 A 
ATOM     18  C   UNL     1       5.856   4.509  16.422  0.00  0.00    +0.000 A 
ATOM     19  C   UNL     1       5.051   3.944  15.417  0.00  0.00    +0.000 A 
ATOM     20  C   UNL     1       5.452   3.947  14.071  0.00  0.00    +0.000 A 
ENDBRANCH  13  18
ENDBRANCH   1  13
TORSDOF 2
ENDMDL
MODEL 5
REMARK VINA RESULT:      -7.1      1.060      1.306
REMARK  Name = 
REMARK  2 active torsions:
REMARK  status: ('A' for Active; 'I' for Inactive)
REMARK    1  A    between atoms: C_5  and  C_6
REMARK    2  A    between atoms: C_6  and  N_7
REMARK                            x       y       z     vdW  Elec       q    Type
REMARK                         _______ _______ _______ _____ _____    ______ ____
ROOT
ATOM      1  N   UNL     1       3.989   4.894  18.085  0.00  0.00    +0.000 N 
ATOM      2  C   UNL     1       3.237   3.943  18.741  0.00  0.00    +0.000 A 
ATOM      3 BR   UNL     1       2.331   2.528  17.889  0.00  0.00    +0.000 Br
ATOM      4  N   UNL     1       2.860   4.395  19.915  0.00  0.00    +0.000 NA
ATOM      5  C   UNL     1       2.806   5.743  19.715  0.00  0.00    +0.000 A 
ATOM      6  C   UNL     1       2.083   6.677  20.457  0.00  0.00    +0.000 A 
ATOM      7  C   UNL     1       1.747   7.874  19.827  0.00  0.00    +0.000 A 
ATOM      8 CL   UNL     1       0.486   8.807  20.564  0.00  0.00    +0.000 Cl
ATOM      9  C   UNL     1       2.318   8.209  18.586  0.00  0.00    +0.000 A 
ATOM     10 CL   UNL     1       1.805   9.625  17.724  0.00  0.00    +0.000 Cl
ATOM     11  C   UNL     1       3.258   7.372  17.943  0.00  0.00    +0.000 A 
ATOM     12  C   UNL     1       3.421   6.094  18.506  0.00  0.00    +0.000 A 
ENDROOT
BRANCH   1  13
ATOM     13  C   UNL     1       5.412   4.640  17.850  0.00  0.00    +0.000 C 
BRANCH  13  18
ATOM     14 CL   UNL     1       7.133   4.307  12.049  0.00  0.00    +0.000 Cl
ATOM     15  C   UNL     1       6.640   4.388  13.697  0.00  0.00    +0.000 A 
ATOM     16  C   UNL     1       5.384   3.930  14.062  0.00  0.00    +0.000 A 
ATOM     17  C   UNL     1       4.969   3.996  15.404  0.00  0.00    +0.000 A 
ATOM     18  C   UNL     1       5.831   4.508  16.394  0.00  0.00    +0.000 A 
ATOM     19  C   UNL     1       7.094   4.978  15.993  0.00  0.00    +0.000 A 
ATOM     20  C   UNL     1       7.507   4.912  14.652  0.00  0.00    +0.000 A 
ENDBRANCH  13  18
ENDBRANCH   1  13
TORSDOF 2
ENDMDL
MODEL 6
REMARK VINA RESULT:      -7.1      3.814      5.997
REMARK  Name = 
REMARK  2 active torsions:
REMARK  status: ('A' for Active; 'I' for Inactive)
REMARK    1  A    between atoms: C_5  and  C_6
REMARK    2  A    between atoms: C_6  and  N_7
REMARK                            x       y       z     vdW  Elec       q    Type
REMARK                         _______ _______ _______ _____ _____    ______ ____
ROOT
ATOM      1  N   UNL     1       5.242   4.172  16.134  0.00  0.00    +0.000 N 
ATOM      2  C   UNL     1       5.518   4.794  14.936  0.00  0.00    +0.000 A 
ATOM      3 BR   UNL     1       6.307   3.945  13.451  0.00  0.00    +0.000 Br
ATOM      4  N   UNL     1       5.598   6.093  15.109  0.00  0.00    +0.000 NA
ATOM      5  C   UNL     1       6.012   6.199  16.404  0.00  0.00    +0.000 A 
ATOM      6  C   UNL     1       6.653   7.286  16.999  0.00  0.00    +0.000 A 
ATOM      7  C   UNL     1       7.428   7.032  18.129  0.00  0.00    +0.000 A 
ATOM      8 CL   UNL     1       8.568   8.259  18.575  0.00  0.00    +0.000 Cl
ATOM      9  C   UNL     1       7.366   5.780  18.768  0.00  0.00    +0.000 A 
ATOM     10 CL   UNL     1       8.425   5.401  20.088  0.00  0.00    +0.000 Cl
ATOM     11  C   UNL     1       6.514   4.749  18.312  0.00  0.00    +0.000 A 
ATOM     12  C   UNL     1       5.902   4.969  17.066  0.00  0.00    +0.000 A 
ENDROOT
BRANCH   1  13
ATOM     13  C   UNL     1       3.946   3.513  16.314  0.00  0.00    +0.000 C 
BRANCH  13  18
ATOM     14 CL   UNL     1       2.005   3.327  22.051  0.00  0.00    +0.000 Cl
ATOM     15  C   UNL     1       2.552   3.367  20.418  0.00  0.00    +0.000 A 
ATOM     16  C   UNL     1       3.332   2.331  19.930  0.00  0.00    +0.000 A 
ATOM     17  C   UNL     1       3.789   2.355  18.600  0.00  0.00    +0.000 A 
ATOM     18  C   UNL     1       3.441   3.420  17.745  0.00  0.00    +0.000 A 
ATOM     19  C   UNL     1       2.660   4.463  18.271  0.00  0.00    +0.000 A 
ATOM     20  C   UNL     1       2.205   4.438  19.600  0.00  0.00    +0.000 A 
ENDBRANCH  13  18
ENDBRANCH   1  13
TORSDOF 2
ENDMDL
MODEL 7
REMARK VINA RESULT:      -7.1      1.335      1.554
REMARK  Name = 
REMARK  2 active torsions:
REMARK  status: ('A' for Active; 'I' for Inactive)
REMARK    1  A    between atoms: C_5  and  C_6
REMARK    2  A    between atoms: C_6  and  N_7
REMARK                            x       y       z     vdW  Elec       q    Type
REMARK                         _______ _______ _______ _____ _____    ______ ____
ROOT
ATOM      1  N   UNL     1       3.029   6.043  18.846  0.00  0.00    +0.000 N 
ATOM      2  C   UNL     1       2.289   5.120  19.552  0.00  0.00    +0.000 A 
ATOM      3 BR   UNL     1       1.405   3.647  18.779  0.00  0.00    +0.000 Br
ATOM      4  N   UNL     1       1.901   5.633  20.698  0.00  0.00    +0.000 NA
ATOM      5  C   UNL     1       1.828   6.966  20.422  0.00  0.00    +0.000 A 
ATOM      6  C   UNL     1       1.090   7.930  21.108  0.00  0.00    +0.000 A 
ATOM      7  C   UNL     1       0.739   9.085  20.410  0.00  0.00    +0.000 A 
ATOM      8 CL   UNL     1      -0.537  10.040  21.090  0.00  0.00    +0.000 Cl
ATOM      9  C   UNL     1       1.311   9.357  19.154  0.00  0.00    +0.000 A 
ATOM     10 CL   UNL     1       0.782  10.715  18.212  0.00  0.00    +0.000 Cl
ATOM     11  C   UNL     1       2.264   8.498  18.563  0.00  0.00    +0.000 A 
ATOM     12  C   UNL     1       2.443   7.257  19.197  0.00  0.00    +0.000 A 
ENDROOT
BRANCH   1  13
ATOM     13  C   UNL     1       4.457   5.797  18.629  0.00  0.00    +0.000 C 
BRANCH  13  18
ATOM     14 CL   UNL     1       6.154   3.776  13.174  0.00  0.00    +0.000 Cl
ATOM     15  C   UNL     1       5.661   4.358  14.719  0.00  0.00    +0.000 A 
ATOM     16  C   UNL     1       5.472   5.717  14.913  0.00  0.00    +0.000 A 
ATOM     17  C   UNL     1       5.075   6.204  16.171  0.00  0.00    +0.000 A 
ATOM     18  C   UNL     1       4.845   5.315  17.240  0.00  0.00    +0.000 A 
ATOM     19  C   UNL     1       5.057   3.944  17.018  0.00  0.00    +0.000 A 
ATOM     20  C   UNL     1       5.454   3.459  15.761  0.00  0.00    +0.000 A 
ENDBRANCH  13  18
ENDBRANCH   1  13
TORSDOF 2
ENDMDL
MODEL 8
REMARK VINA RESULT:      -7.0      1.276      1.432
REMARK  Name = 
REMARK  2 active torsions:
REMARK  status: ('A' for Active; 'I' for Inactive)
REMARK    1  A    between atoms: C_5  and  C_6
REMARK    2  A    between atoms: C_6  and  N_7
REMARK                            x       y       z     vdW  Elec       q    Type
REMARK                         _______ _______ _______ _____ _____    ______ ____
ROOT
ATOM      1  N   UNL     1       3.063   5.905  18.951  0.00  0.00    +0.000 N 
ATOM      2  C   UNL     1       2.286   5.031  19.679  0.00  0.00    +0.000 A 
ATOM      3 BR   UNL     1       1.396   3.538  18.954  0.00  0.00    +0.000 Br
ATOM      4  N   UNL     1       1.877   5.605  20.787  0.00  0.00    +0.000 NA
ATOM      5  C   UNL     1       1.838   6.924  20.445  0.00  0.00    +0.000 A 
ATOM      6  C   UNL     1       1.100   7.934  21.064  0.00  0.00    +0.000 A 
ATOM      7  C   UNL     1       0.790   9.060  20.301  0.00  0.00    +0.000 A 
ATOM      8 CL   UNL     1      -0.486  10.069  20.898  0.00  0.00    +0.000 Cl
ATOM      9  C   UNL     1       1.400   9.260  19.049  0.00  0.00    +0.000 A 
ATOM     10 CL   UNL     1       0.923  10.579  18.028  0.00  0.00    +0.000 Cl
ATOM     11  C   UNL     1       2.353   8.357  18.527  0.00  0.00    +0.000 A 
ATOM     12  C   UNL     1       2.490   7.145  19.225  0.00  0.00    +0.000 A 
ENDROOT
BRANCH   1  13
ATOM     13  C   UNL     1       4.491   5.623  18.786  0.00  0.00    +0.000 C 
BRANCH  13  18
ATOM     14 CL   UNL     1       6.061   3.910  13.189  0.00  0.00    +0.000 Cl
ATOM     15  C   UNL     1       5.624   4.389  14.785  0.00  0.00    +0.000 A 
ATOM     16  C   UNL     1       5.437   3.426  15.764  0.00  0.00    +0.000 A 
ATOM     17  C   UNL     1       5.076   3.805  17.069  0.00  0.00    +0.000 A 
ATOM     18  C   UNL     1       4.922   5.166  17.401  0.00  0.00    +0.000 A 
ATOM     19  C   UNL     1       5.106   6.120  16.385  0.00  0.00    +0.000 A 
ATOM     20  C   UNL     1       5.466   5.740  15.081  0.00  0.00    +0.000 A 
ENDBRANCH  13  18
ENDBRANCH   1  13
TORSDOF 2
ENDMDL
MODEL 9
REMARK VINA RESULT:      -6.8      2.123      2.544
REMARK  Name = 
REMARK  2 active torsions:
REMARK  status: ('A' for Active; 'I' for Inactive)
REMARK    1  A    between atoms: C_5  and  C_6
REMARK    2  A    between atoms: C_6  and  N_7
REMARK                            x       y       z     vdW  Elec       q    Type
REMARK                         _______ _______ _______ _____ _____    ______ ____
ROOT
ATOM      1  N   UNL     1       3.896   4.616  17.806  0.00  0.00    +0.000 N 
ATOM      2  C   UNL     1       3.370   3.608  18.584  0.00  0.00    +0.000 A 
ATOM      3 BR   UNL     1       2.393   2.143  17.915  0.00  0.00    +0.000 Br
ATOM      4  N   UNL     1       3.230   4.021  19.823  0.00  0.00    +0.000 NA
ATOM      5  C   UNL     1       3.046   5.363  19.675  0.00  0.00    +0.000 A 
ATOM      6  C   UNL     1       2.445   6.237  20.581  0.00  0.00    +0.000 A 
ATOM      7  C   UNL     1       1.901   7.415  20.069  0.00  0.00    +0.000 A 
ATOM      8 CL   UNL     1       0.774   8.251  21.087  0.00  0.00    +0.000 Cl
ATOM      9  C   UNL     1       2.163   7.802  18.742  0.00  0.00    +0.000 A 
ATOM     10 CL   UNL     1       1.383   9.188  18.049  0.00  0.00    +0.000 Cl
ATOM     11  C   UNL     1       2.992   7.039  17.890  0.00  0.00    +0.000 A 
ATOM     12  C   UNL     1       3.357   5.769  18.370  0.00  0.00    +0.000 A 
ENDROOT
BRANCH   1  13
ATOM     13  C   UNL     1       5.247   4.464  17.259  0.00  0.00    +0.000 C 
BRANCH  13  18
ATOM     14 CL   UNL     1       9.072   8.931  18.720  0.00  0.00    +0.000 Cl
ATOM     15  C   UNL     1       7.989   7.662  18.292  0.00  0.00    +0.000 A 
ATOM     16  C   UNL     1       7.147   7.816  17.202  0.00  0.00    +0.000 A 
ATOM     17  C   UNL     1       6.255   6.789  16.846  0.00  0.00    +0.000 A 
ATOM     18  C   UNL     1       6.223   5.585  17.578  0.00  0.00    +0.000 A 
ATOM     19  C   UNL     1       7.079   5.462  18.686  0.00  0.00    +0.000 A 
ATOM     20  C   UNL     1       7.968   6.489  19.041  0.00  0.00    +0.000 A 
ENDBRANCH  13  18
ENDBRANCH   1  13
TORSDOF 2
ENDMDL
