MODEL 1
REMARK VINA RESULT:      -8.0      0.000      0.000
REMARK  Name = 
REMARK  4 active torsions:
REMARK  status: ('A' for Active; 'I' for Inactive)
REMARK    1  A    between atoms: C_1  and  C_2
REMARK    2  A    between atoms: C_6  and  N_7
REMARK    3  A    between atoms: N_13  and  C_14
REMARK    4  A    between atoms: C_14  and  C_15
REMARK                            x       y       z     vdW  Elec       q    Type
REMARK                         _______ _______ _______ _____ _____    ______ ____
ROOT
ATOM      1  N   UNL     1       1.033   8.034  20.364  0.00  0.00    +0.000 N 
ATOM      2  C   UNL     1       1.366   6.840  21.136  0.00  0.00    +0.000 C 
ATOM      3  C   UNL     1       1.399   5.661  20.156  0.00  0.00    +0.000 C 
ATOM      4  C   UNL     1       2.354   5.881  18.941  0.00  0.00    +0.000 C 
ATOM      5  C   UNL     1       3.840   5.820  19.375  0.00  0.00    +0.000 C 
ATOM      6  C   UNL     1       4.377   4.400  19.559  0.00  0.00    +0.000 C 
ATOM      7  N   UNL     1       4.188   3.540  18.388  0.00  0.00    +0.000 NA
ATOM      8  C   UNL     1       2.768   3.470  18.040  0.00  0.00    +0.000 C 
ATOM      9  C   UNL     1       2.066   4.817  17.847  0.00  0.00    +0.000 C 
ATOM     10  C   UNL     1       2.072   7.288  18.331  0.00  0.00    +0.000 C 
ATOM     11  C   UNL     1       2.043   8.401  19.375  0.00  0.00    +0.000 C 
ENDROOT
BRANCH   1  17
ATOM     12  C   UNL     1       0.013  12.721  20.682  0.00  0.00    +0.000 C 
ATOM     13  C   UNL     1      -0.037  11.352  21.294  0.00  0.00    +0.000 A 
ATOM     14  C   UNL     1      -0.605  11.155  22.547  0.00  0.00    +0.000 A 
ATOM     15  C   UNL     1      -0.657   9.867  23.057  0.00  0.00    +0.000 A 
ATOM     16  C   UNL     1      -0.145   8.823  22.293  0.00  0.00    +0.000 A 
ATOM     17  C   UNL     1       0.424   9.083  21.045  0.00  0.00    +0.000 A 
ATOM     18  N   UNL     1       0.476  10.339  20.552  0.00  0.00    +0.000 NA
ENDBRANCH   1  17
BRANCH   7  19
ATOM     19  C   UNL     1       5.056   3.910  17.249  0.00  0.00    +0.000 C 
BRANCH  19  20
ATOM     20  C   UNL     1       6.113   4.957  17.591  0.00  0.00    +0.000 A 
ATOM     21  C   UNL     1       6.070   6.215  16.983  0.00  0.00    +0.000 A 
ATOM     22  C   UNL     1       7.002   7.181  17.350  0.00  0.00    +0.000 A 
ATOM     23  C   UNL     1       7.958   6.878  18.311  0.00  0.00    +0.000 A 
ATOM     24  C   UNL     1       7.938   5.609  18.865  0.00  0.00    +0.000 A 
ATOM     25  N   UNL     1       7.046   4.645  18.530  0.00  0.00    +0.000 NA
ENDBRANCH  19  20
ENDBRANCH   7  19
TORSDOF 3
ENDMDL
MODEL 2
REMARK VINA RESULT:      -7.6      2.966      9.065
REMARK  Name = 
REMARK  4 active torsions:
REMARK  status: ('A' for Active; 'I' for Inactive)
REMARK    1  A    between atoms: C_1  and  C_2
REMARK    2  A    between atoms: C_6  and  N_7
REMARK    3  A    between atoms: N_13  and  C_14
REMARK    4  A    between atoms: C_14  and  C_15
REMARK                            x       y       z     vdW  Elec       q    Type
REMARK                         _______ _______ _______ _____ _____    ______ ____
ROOT
ATOM      1  N   UNL     1       1.736   7.802  19.505  0.00  0.00    +0.000 N 
ATOM      2  C   UNL     1       2.100   8.610  18.345  0.00  0.00    +0.000 C 
ATOM      3  C   UNL     1       0.899   9.507  18.022  0.00  0.00    +0.000 C 
ATOM      4  C   UNL     1       0.417  10.369  19.231  0.00  0.00    +0.000 C 
ATOM      5  C   UNL     1       1.427  11.498  19.556  0.00  0.00    +0.000 C 
ATOM      6  C   UNL     1       1.323  12.711  18.630  0.00  0.00    +0.000 C 
ATOM      7  N   UNL     1      -0.023  13.284  18.555  0.00  0.00    +0.000 NA
ATOM      8  C   UNL     1      -0.979  12.267  18.114  0.00  0.00    +0.000 C 
ATOM      9  C   UNL     1      -0.983  10.967  18.923  0.00  0.00    +0.000 C 
ATOM     10  C   UNL     1       0.283   9.447  20.481  0.00  0.00    +0.000 C 
ATOM     11  C   UNL     1       1.514   8.579  20.723  0.00  0.00    +0.000 C 
ENDROOT
BRANCH   1  17
ATOM     12  C   UNL     1       5.143   4.719  18.090  0.00  0.00    +0.000 C 
ATOM     13  C   UNL     1       3.965   5.015  18.971  0.00  0.00    +0.000 A 
ATOM     14  C   UNL     1       3.486   4.060  19.859  0.00  0.00    +0.000 A 
ATOM     15  C   UNL     1       2.415   4.391  20.676  0.00  0.00    +0.000 A 
ATOM     16  C   UNL     1       1.867   5.666  20.578  0.00  0.00    +0.000 A 
ATOM     17  C   UNL     1       2.384   6.581  19.660  0.00  0.00    +0.000 A 
ATOM     18  N   UNL     1       3.425   6.255  18.863  0.00  0.00    +0.000 NA
ENDBRANCH   1  17
BRANCH   7  19
ATOM     19  C   UNL     1      -0.431  13.976  19.798  0.00  0.00    +0.000 C 
BRANCH  19  20
ATOM     20  C   UNL     1      -0.874  15.421  19.584  0.00  0.00    +0.000 A 
ATOM     21  C   UNL     1      -0.329  16.169  18.536  0.00  0.00    +0.000 A 
ATOM     22  C   UNL     1      -0.787  17.465  18.314  0.00  0.00    +0.000 A 
ATOM     23  C   UNL     1      -1.774  17.991  19.138  0.00  0.00    +0.000 A 
ATOM     24  C   UNL     1      -2.262  17.189  20.157  0.00  0.00    +0.000 A 
ATOM     25  N   UNL     1      -1.838  15.925  20.400  0.00  0.00    +0.000 NA
ENDBRANCH  19  20
ENDBRANCH   7  19
TORSDOF 3
ENDMDL
MODEL 3
REMARK VINA RESULT:      -7.5      2.541      9.406
REMARK  Name = 
REMARK  4 active torsions:
REMARK  status: ('A' for Active; 'I' for Inactive)
REMARK    1  A    between atoms: C_1  and  C_2
REMARK    2  A    between atoms: C_6  and  N_7
REMARK    3  A    between atoms: N_13  and  C_14
REMARK    4  A    between atoms: C_14  and  C_15
REMARK                            x       y       z     vdW  Elec       q    Type
REMARK                         _______ _______ _______ _____ _____    ______ ____
ROOT
ATOM      1  N   UNL     1       1.841   8.041  18.722  0.00  0.00    +0.000 N 
ATOM      2  C   UNL     1       1.887   9.347  18.070  0.00  0.00    +0.000 C 
ATOM      3  C   UNL     1       0.586  10.076  18.425  0.00  0.00    +0.000 C 
ATOM      4  C   UNL     1       0.320  10.175  19.960  0.00  0.00    +0.000 C 
ATOM      5  C   UNL     1       1.297  11.170  20.637  0.00  0.00    +0.000 C 
ATOM      6  C   UNL     1       0.910  12.639  20.460  0.00  0.00    +0.000 C 
ATOM      7  N   UNL     1      -0.456  12.947  20.890  0.00  0.00    +0.000 NA
ATOM      8  C   UNL     1      -1.413  12.113  20.161  0.00  0.00    +0.000 C 
ATOM      9  C   UNL     1      -1.151  10.605  20.212  0.00  0.00    +0.000 C 
ATOM     10  C   UNL     1       0.527   8.767  20.596  0.00  0.00    +0.000 C 
ATOM     11  C   UNL     1       1.838   8.106  20.181  0.00  0.00    +0.000 C 
ENDROOT
BRANCH   1  17
ATOM     12  C   UNL     1       2.435   3.356  17.819  0.00  0.00    +0.000 C 
ATOM     13  C   UNL     1       2.972   4.755  17.747  0.00  0.00    +0.000 A 
ATOM     14  C   UNL     1       4.222   5.008  17.196  0.00  0.00    +0.000 A 
ATOM     15  C   UNL     1       4.661   6.321  17.122  0.00  0.00    +0.000 A 
ATOM     16  C   UNL     1       3.833   7.333  17.596  0.00  0.00    +0.000 A 
ATOM     17  C   UNL     1       2.590   7.018  18.149  0.00  0.00    +0.000 A 
ATOM     18  N   UNL     1       2.166   5.738  18.223  0.00  0.00    +0.000 NA
ENDBRANCH   1  17
BRANCH   7  19
ATOM     19  C   UNL     1      -0.629  12.895  22.359  0.00  0.00    +0.000 C 
BRANCH  19  20
ATOM     20  C   UNL     1      -2.039  13.249  22.827  0.00  0.00    +0.000 A 
ATOM     21  C   UNL     1      -2.829  12.281  23.453  0.00  0.00    +0.000 A 
ATOM     22  C   UNL     1      -4.088  12.632  23.931  0.00  0.00    +0.000 A 
ATOM     23  C   UNL     1      -4.537  13.938  23.775  0.00  0.00    +0.000 A 
ATOM     24  C   UNL     1      -3.697  14.839  23.141  0.00  0.00    +0.000 A 
ATOM     25  N   UNL     1      -2.467  14.529  22.664  0.00  0.00    +0.000 NA
ENDBRANCH  19  20
ENDBRANCH   7  19
TORSDOF 3
ENDMDL
MODEL 4
REMARK VINA RESULT:      -7.5      0.672      1.020
REMARK  Name = 
REMARK  4 active torsions:
REMARK  status: ('A' for Active; 'I' for Inactive)
REMARK    1  A    between atoms: C_1  and  C_2
REMARK    2  A    between atoms: C_6  and  N_7
REMARK    3  A    between atoms: N_13  and  C_14
REMARK    4  A    between atoms: C_14  and  C_15
REMARK                            x       y       z     vdW  Elec       q    Type
REMARK                         _______ _______ _______ _____ _____    ______ ____
ROOT
ATOM      1  N   UNL     1       1.000   7.974  20.370  0.00  0.00    +0.000 N 
ATOM      2  C   UNL     1       1.375   6.779  21.122  0.00  0.00    +0.000 C 
ATOM      3  C   UNL     1       1.470   5.625  20.117  0.00  0.00    +0.000 C 
ATOM      4  C   UNL     1       2.431   5.912  18.920  0.00  0.00    +0.000 C 
ATOM      5  C   UNL     1       3.912   5.905  19.373  0.00  0.00    +0.000 C 
ATOM      6  C   UNL     1       4.507   4.506  19.534  0.00  0.00    +0.000 C 
ATOM      7  N   UNL     1       4.371   3.665  18.342  0.00  0.00    +0.000 NA
ATOM      8  C   UNL     1       2.959   3.541  17.973  0.00  0.00    +0.000 C 
ATOM      9  C   UNL     1       2.202   4.861  17.800  0.00  0.00    +0.000 C 
ATOM     10  C   UNL     1       2.096   7.318  18.337  0.00  0.00    +0.000 C 
ATOM     11  C   UNL     1       2.006   8.406  19.403  0.00  0.00    +0.000 C 
ENDROOT
BRANCH   1  17
ATOM     12  C   UNL     1      -0.986  12.353  20.416  0.00  0.00    +0.000 C 
ATOM     13  C   UNL     1      -0.570  11.124  21.170  0.00  0.00    +0.000 A 
ATOM     14  C   UNL     1      -0.770  11.031  22.542  0.00  0.00    +0.000 A 
ATOM     15  C   UNL     1      -0.399   9.863  23.189  0.00  0.00    +0.000 A 
ATOM     16  C   UNL     1       0.152   8.827  22.440  0.00  0.00    +0.000 A 
ATOM     17  C   UNL     1       0.338   8.981  21.065  0.00  0.00    +0.000 A 
ATOM     18  N   UNL     1      -0.021  10.122  20.438  0.00  0.00    +0.000 NA
ENDBRANCH   1  17
BRANCH   7  19
ATOM     19  C   UNL     1       5.236   4.096  17.223  0.00  0.00    +0.000 C 
BRANCH  19  20
ATOM     20  C   UNL     1       6.167   5.254  17.572  0.00  0.00    +0.000 A 
ATOM     21  C   UNL     1       7.218   5.057  18.472  0.00  0.00    +0.000 A 
ATOM     22  C   UNL     1       8.097   6.104  18.734  0.00  0.00    +0.000 A 
ATOM     23  C   UNL     1       7.913   7.325  18.099  0.00  0.00    +0.000 A 
ATOM     24  C   UNL     1       6.846   7.444  17.223  0.00  0.00    +0.000 A 
ATOM     25  N   UNL     1       5.972   6.446  16.946  0.00  0.00    +0.000 NA
ENDBRANCH  19  20
ENDBRANCH   7  19
TORSDOF 3
ENDMDL
MODEL 5
REMARK VINA RESULT:      -7.5      2.975      9.114
REMARK  Name = 
REMARK  4 active torsions:
REMARK  status: ('A' for Active; 'I' for Inactive)
REMARK    1  A    between atoms: C_1  and  C_2
REMARK    2  A    between atoms: C_6  and  N_7
REMARK    3  A    between atoms: N_13  and  C_14
REMARK    4  A    between atoms: C_14  and  C_15
REMARK                            x       y       z     vdW  Elec       q    Type
REMARK                         _______ _______ _______ _____ _____    ______ ____
ROOT
ATOM      1  N   UNL     1       1.654   7.764  19.356  0.00  0.00    +0.000 N 
ATOM      2  C   UNL     1       1.990   8.586  18.197  0.00  0.00    +0.000 C 
ATOM      3  C   UNL     1       0.803   9.524  17.948  0.00  0.00    +0.000 C 
ATOM      4  C   UNL     1       0.401  10.373  19.195  0.00  0.00    +0.000 C 
ATOM      5  C   UNL     1       1.458  11.464  19.496  0.00  0.00    +0.000 C 
ATOM      6  C   UNL     1       1.349  12.700  18.602  0.00  0.00    +0.000 C 
ATOM      7  N   UNL     1       0.019  13.314  18.601  0.00  0.00    +0.000 NA
ATOM      8  C   UNL     1      -0.986  12.335  18.183  0.00  0.00    +0.000 C 
ATOM      9  C   UNL     1      -0.993  11.018  18.964  0.00  0.00    +0.000 C 
ATOM     10  C   UNL     1       0.297   9.428  20.430  0.00  0.00    +0.000 C 
ATOM     11  C   UNL     1       1.511   8.519  20.598  0.00  0.00    +0.000 C 
ENDROOT
BRANCH   1  17
ATOM     12  C   UNL     1       2.077   3.519  21.575  0.00  0.00    +0.000 C 
ATOM     13  C   UNL     1       2.576   4.480  20.536  0.00  0.00    +0.000 A 
ATOM     14  C   UNL     1       3.679   4.167  19.751  0.00  0.00    +0.000 A 
ATOM     15  C   UNL     1       4.083   5.073  18.783  0.00  0.00    +0.000 A 
ATOM     16  C   UNL     1       3.366   6.256  18.630  0.00  0.00    +0.000 A 
ATOM     17  C   UNL     1       2.272   6.521  19.455  0.00  0.00    +0.000 A 
ATOM     18  N   UNL     1       1.882   5.638  20.400  0.00  0.00    +0.000 NA
ENDBRANCH   1  17
BRANCH   7  19
ATOM     19  C   UNL     1      -0.312  13.990  19.874  0.00  0.00    +0.000 C 
BRANCH  19  20
ATOM     20  C   UNL     1      -0.853  15.406  19.700  0.00  0.00    +0.000 A 
ATOM     21  C   UNL     1      -0.353  16.224  18.683  0.00  0.00    +0.000 A 
ATOM     22  C   UNL     1      -0.899  17.490  18.496  0.00  0.00    +0.000 A 
ATOM     23  C   UNL     1      -1.929  17.919  19.324  0.00  0.00    +0.000 A 
ATOM     24  C   UNL     1      -2.369  17.052  20.311  0.00  0.00    +0.000 A 
ATOM     25  N   UNL     1      -1.858  15.814  20.521  0.00  0.00    +0.000 NA
ENDBRANCH  19  20
ENDBRANCH   7  19
TORSDOF 3
ENDMDL
MODEL 6
REMARK VINA RESULT:      -7.4      2.512      9.291
REMARK  Name = 
REMARK  4 active torsions:
REMARK  status: ('A' for Active; 'I' for Inactive)
REMARK    1  A    between atoms: C_1  and  C_2
REMARK    2  A    between atoms: C_6  and  N_7
REMARK    3  A    between atoms: N_13  and  C_14
REMARK    4  A    between atoms: C_14  and  C_15
REMARK                            x       y       z     vdW  Elec       q    Type
REMARK                         _______ _______ _______ _____ _____    ______ ____
ROOT
ATOM      1  N   UNL     1       1.933   7.878  18.876  0.00  0.00    +0.000 N 
ATOM      2  C   UNL     1       2.030   9.158  18.180  0.00  0.00    +0.000 C 
ATOM      3  C   UNL     1       0.728   9.922  18.453  0.00  0.00    +0.000 C 
ATOM      4  C   UNL     1       0.402  10.081  19.972  0.00  0.00    +0.000 C 
ATOM      5  C   UNL     1       1.367  11.084  20.652  0.00  0.00    +0.000 C 
ATOM      6  C   UNL     1       1.015  12.552  20.407  0.00  0.00    +0.000 C 
ATOM      7  N   UNL     1      -0.362  12.898  20.768  0.00  0.00    +0.000 NA
ATOM      8  C   UNL     1      -1.303  12.054  20.030  0.00  0.00    +0.000 C 
ATOM      9  C   UNL     1      -1.071  10.545  20.146  0.00  0.00    +0.000 C 
ATOM     10  C   UNL     1       0.556   8.694  20.666  0.00  0.00    +0.000 C 
ATOM     11  C   UNL     1       1.871   7.996  20.330  0.00  0.00    +0.000 C 
ENDROOT
BRANCH   1  17
ATOM     12  C   UNL     1       5.676   6.332  16.283  0.00  0.00    +0.000 C 
ATOM     13  C   UNL     1       4.437   6.012  17.067  0.00  0.00    +0.000 A 
ATOM     14  C   UNL     1       4.011   4.697  17.214  0.00  0.00    +0.000 A 
ATOM     15  C   UNL     1       2.879   4.448  17.974  0.00  0.00    +0.000 A 
ATOM     16  C   UNL     1       2.217   5.521  18.564  0.00  0.00    +0.000 A 
ATOM     17  C   UNL     1       2.686   6.822  18.372  0.00  0.00    +0.000 A 
ATOM     18  N   UNL     1       3.788   7.063  17.629  0.00  0.00    +0.000 NA
ENDBRANCH   1  17
BRANCH   7  19
ATOM     19  C   UNL     1      -0.597  12.903  22.229  0.00  0.00    +0.000 C 
BRANCH  19  20
ATOM     20  C   UNL     1      -2.031  13.247  22.623  0.00  0.00    +0.000 A 
ATOM     21  C   UNL     1      -2.795  12.326  23.345  0.00  0.00    +0.000 A 
ATOM     22  C   UNL     1      -4.079  12.677  23.751  0.00  0.00    +0.000 A 
ATOM     23  C   UNL     1      -4.579  13.933  23.430  0.00  0.00    +0.000 A 
ATOM     24  C   UNL     1      -3.762  14.788  22.709  0.00  0.00    +0.000 A 
ATOM     25  N   UNL     1      -2.508  14.478  22.298  0.00  0.00    +0.000 NA
ENDBRANCH  19  20
ENDBRANCH   7  19
TORSDOF 3
ENDMDL
MODEL 7
REMARK VINA RESULT:      -7.4      0.791      1.417
REMARK  Name = 
REMARK  4 active torsions:
REMARK  status: ('A' for Active; 'I' for Inactive)
REMARK    1  A    between atoms: C_1  and  C_2
REMARK    2  A    between atoms: C_6  and  N_7
REMARK    3  A    between atoms: N_13  and  C_14
REMARK    4  A    between atoms: C_14  and  C_15
REMARK                            x       y       z     vdW  Elec       q    Type
REMARK                         _______ _______ _______ _____ _____    ______ ____
ROOT
ATOM      1  N   UNL     1       1.174   8.666  19.871  0.00  0.00    +0.000 N 
ATOM      2  C   UNL     1       1.425   7.612  20.849  0.00  0.00    +0.000 C 
ATOM      3  C   UNL     1       1.367   6.275  20.099  0.00  0.00    +0.000 C 
ATOM      4  C   UNL     1       2.329   6.203  18.871  0.00  0.00    +0.000 C 
ATOM      5  C   UNL     1       3.809   6.116  19.321  0.00  0.00    +0.000 C 
ATOM      6  C   UNL     1       4.244   4.718  19.763  0.00  0.00    +0.000 C 
ATOM      7  N   UNL     1       3.988   3.676  18.766  0.00  0.00    +0.000 NA
ATOM      8  C   UNL     1       2.564   3.644  18.425  0.00  0.00    +0.000 C 
ATOM      9  C   UNL     1       1.959   4.981  17.986  0.00  0.00    +0.000 C 
ATOM     10  C   UNL     1       2.145   7.492  18.015  0.00  0.00    +0.000 C 
ATOM     11  C   UNL     1       2.202   8.775  18.839  0.00  0.00    +0.000 C 
ENDROOT
BRANCH   1  17
ATOM     12  C   UNL     1      -1.391  11.030  23.180  0.00  0.00    +0.000 C 
ATOM     13  C   UNL     1      -0.652  11.049  21.875  0.00  0.00    +0.000 A 
ATOM     14  C   UNL     1      -0.570  12.215  21.123  0.00  0.00    +0.000 A 
ATOM     15  C   UNL     1       0.152  12.191  19.939  0.00  0.00    +0.000 A 
ATOM     16  C   UNL     1       0.770  11.005  19.554  0.00  0.00    +0.000 A 
ATOM     17  C   UNL     1       0.645   9.862  20.346  0.00  0.00    +0.000 A 
ATOM     18  N   UNL     1      -0.062   9.886  21.497  0.00  0.00    +0.000 NA
ENDBRANCH   1  17
BRANCH   7  19
ATOM     19  C   UNL     1       4.873   3.769  17.584  0.00  0.00    +0.000 C 
BRANCH  19  20
ATOM     20  C   UNL     1       5.967   4.826  17.715  0.00  0.00    +0.000 A 
ATOM     21  C   UNL     1       5.935   5.966  16.908  0.00  0.00    +0.000 A 
ATOM     22  C   UNL     1       6.904   6.951  17.080  0.00  0.00    +0.000 A 
ATOM     23  C   UNL     1       7.886   6.781  18.048  0.00  0.00    +0.000 A 
ATOM     24  C   UNL     1       7.853   5.622  18.806  0.00  0.00    +0.000 A 
ATOM     25  N   UNL     1       6.925   4.644  18.663  0.00  0.00    +0.000 NA
ENDBRANCH  19  20
ENDBRANCH   7  19
TORSDOF 3
ENDMDL
MODEL 8
REMARK VINA RESULT:      -7.3      2.882      8.820
REMARK  Name = 
REMARK  4 active torsions:
REMARK  status: ('A' for Active; 'I' for Inactive)
REMARK    1  A    between atoms: C_1  and  C_2
REMARK    2  A    between atoms: C_6  and  N_7
REMARK    3  A    between atoms: N_13  and  C_14
REMARK    4  A    between atoms: C_14  and  C_15
REMARK                            x       y       z     vdW  Elec       q    Type
REMARK                         _______ _______ _______ _____ _____    ______ ____
ROOT
ATOM      1  N   UNL     1       1.633   7.871  19.585  0.00  0.00    +0.000 N 
ATOM      2  C   UNL     1       2.005   8.667  18.418  0.00  0.00    +0.000 C 
ATOM      3  C   UNL     1       0.786   9.518  18.044  0.00  0.00    +0.000 C 
ATOM      4  C   UNL     1       0.241  10.387  19.221  0.00  0.00    +0.000 C 
ATOM      5  C   UNL     1       1.205  11.555  19.551  0.00  0.00    +0.000 C 
ATOM      6  C   UNL     1       1.089  12.746  18.598  0.00  0.00    +0.000 C 
ATOM      7  N   UNL     1      -0.272  13.273  18.474  0.00  0.00    +0.000 NA
ATOM      8  C   UNL     1      -1.182  12.217  18.027  0.00  0.00    +0.000 C 
ATOM      9  C   UNL     1      -1.168  10.933  18.862  0.00  0.00    +0.000 C 
ATOM     10  C   UNL     1       0.101   9.486  20.485  0.00  0.00    +0.000 C 
ATOM     11  C   UNL     1       1.352   8.663  20.779  0.00  0.00    +0.000 C 
ENDROOT
BRANCH   1  17
ATOM     12  C   UNL     1       5.307   4.973  18.479  0.00  0.00    +0.000 C 
ATOM     13  C   UNL     1       4.030   5.195  19.234  0.00  0.00    +0.000 A 
ATOM     14  C   UNL     1       3.502   4.198  20.045  0.00  0.00    +0.000 A 
ATOM     15  C   UNL     1       2.337   4.462  20.749  0.00  0.00    +0.000 A 
ATOM     16  C   UNL     1       1.745   5.715  20.620  0.00  0.00    +0.000 A 
ATOM     17  C   UNL     1       2.316   6.675  19.782  0.00  0.00    +0.000 A 
ATOM     18  N   UNL     1       3.449   6.414  19.095  0.00  0.00    +0.000 NA
ENDBRANCH   1  17
BRANCH   7  19
ATOM     19  C   UNL     1      -0.738  13.975  19.690  0.00  0.00    +0.000 C 
BRANCH  19  20
ATOM     20  C   UNL     1      -0.332  15.445  19.749  0.00  0.00    +0.000 A 
ATOM     21  C   UNL     1       0.142  15.991  20.945  0.00  0.00    +0.000 A 
ATOM     22  C   UNL     1       0.567  17.316  20.969  0.00  0.00    +0.000 A 
ATOM     23  C   UNL     1       0.511  18.073  19.805  0.00  0.00    +0.000 A 
ATOM     24  C   UNL     1       0.025  17.462  18.660  0.00  0.00    +0.000 A 
ATOM     25  N   UNL     1      -0.397  16.175  18.603  0.00  0.00    +0.000 NA
ENDBRANCH  19  20
ENDBRANCH   7  19
TORSDOF 3
ENDMDL
MODEL 9
REMARK VINA RESULT:      -7.2      2.696      9.366
REMARK  Name = 
REMARK  4 active torsions:
REMARK  status: ('A' for Active; 'I' for Inactive)
REMARK    1  A    between atoms: C_1  and  C_2
REMARK    2  A    between atoms: C_6  and  N_7
REMARK    3  A    between atoms: N_13  and  C_14
REMARK    4  A    between atoms: C_14  and  C_15
REMARK                            x       y       z     vdW  Elec       q    Type
REMARK                         _______ _______ _______ _____ _____    ______ ____
ROOT
ATOM      1  N   UNL     1       1.924   7.929  18.932  0.00  0.00    +0.000 N 
ATOM      2  C   UNL     1       2.052   9.076  18.037  0.00  0.00    +0.000 C 
ATOM      3  C   UNL     1       0.717   9.830  18.074  0.00  0.00    +0.000 C 
ATOM      4  C   UNL     1       0.263  10.232  19.513  0.00  0.00    +0.000 C 
ATOM      5  C   UNL     1       1.148  11.367  20.085  0.00  0.00    +0.000 C 
ATOM      6  C   UNL     1       0.788  12.760  19.565  0.00  0.00    +0.000 C 
ATOM      7  N   UNL     1      -0.621  13.115  19.754  0.00  0.00    +0.000 NA
ATOM      8  C   UNL     1      -1.481  12.127  19.099  0.00  0.00    +0.000 C 
ATOM      9  C   UNL     1      -1.228  10.668  19.490  0.00  0.00    +0.000 C 
ATOM     10  C   UNL     1       0.387   8.988  20.443  0.00  0.00    +0.000 C 
ATOM     11  C   UNL     1       1.739   8.289  20.336  0.00  0.00    +0.000 C 
ENDROOT
BRANCH   1  17
ATOM     12  C   UNL     1       3.318   3.466  20.052  0.00  0.00    +0.000 C 
ATOM     13  C   UNL     1       3.508   4.699  19.219  0.00  0.00    +0.000 A 
ATOM     14  C   UNL     1       4.525   4.767  18.274  0.00  0.00    +0.000 A 
ATOM     15  C   UNL     1       4.641   5.916  17.506  0.00  0.00    +0.000 A 
ATOM     16  C   UNL     1       3.733   6.951  17.706  0.00  0.00    +0.000 A 
ATOM     17  C   UNL     1       2.737   6.829  18.677  0.00  0.00    +0.000 A 
ATOM     18  N   UNL     1       2.628   5.711  19.427  0.00  0.00    +0.000 NA
ENDBRANCH   1  17
BRANCH   7  19
ATOM     19  C   UNL     1      -0.976  13.359  21.169  0.00  0.00    +0.000 C 
BRANCH  19  20
ATOM     20  C   UNL     1      -2.468  13.582  21.402  0.00  0.00    +0.000 A 
ATOM     21  C   UNL     1      -3.198  12.670  22.170  0.00  0.00    +0.000 A 
ATOM     22  C   UNL     1      -4.543  12.918  22.427  0.00  0.00    +0.000 A 
ATOM     23  C   UNL     1      -5.136  14.065  21.914  0.00  0.00    +0.000 A 
ATOM     24  C   UNL     1      -4.348  14.919  21.160  0.00  0.00    +0.000 A 
ATOM     25  N   UNL     1      -3.036  14.706  20.891  0.00  0.00    +0.000 NA
ENDBRANCH  19  20
ENDBRANCH   7  19
TORSDOF 3
ENDMDL
