MODEL 1
REMARK VINA RESULT:      -7.1      0.000      0.000
REMARK  Name = 
REMARK  4 active torsions:
REMARK  status: ('A' for Active; 'I' for Inactive)
REMARK    1  A    between atoms: N_1  and  S_2
REMARK    2  A    between atoms: S_2  and  C_5
REMARK    3  A    between atoms: C_10  and  C_12
REMARK    4  A    between atoms: C_12  and  C_13
REMARK                            x       y       z     vdW  Elec       q    Type
REMARK                         _______ _______ _______ _____ _____    ______ ____
ROOT
ATOM      1  C   UNL     1       6.590   5.315  17.325  0.00  0.00    +0.000 A 
ATOM      2  N   UNL     1       6.999   4.764  18.451  0.00  0.00    +0.000 NA
ATOM      3  N   UNL     1       7.817   5.630  19.158  0.00  0.00    +0.000 NA
ATOM      4  C   UNL     1       7.927   6.801  18.563  0.00  0.00    +0.000 A 
ATOM      5  N   UNL     1       8.671   7.831  19.085  0.00  0.00    +0.000 N 
ATOM      6  C   UNL     1       8.612   9.147  18.678  0.00  0.00    +0.000 C 
ATOM      7  O   UNL     1       7.858   9.612  17.826  0.00  0.00    +0.000 OA
ATOM      8  S   UNL     1       7.136   6.903  17.055  0.00  0.00    +0.000 S 
ATOM      9  H   UNL     1       9.164   7.595  19.937  0.00  0.00    +0.000 HD
ENDROOT
BRANCH   1  10
ATOM     10  S   UNL     1       5.533   4.588  16.127  0.00  0.00    +0.000 S 
ATOM     11  O   UNL     1       5.482   5.488  14.999  0.00  0.00    +0.000 OA
ATOM     12  O   UNL     1       4.339   4.178  16.837  0.00  0.00    +0.000 OA
BRANCH  10  13
ATOM     13  N   UNL     1       6.217   3.151  15.563  0.00  0.00    +0.000 NA
ATOM     14  H   UNL     1       6.092   3.097  14.552  0.00  0.00    +0.000 HD
ATOM     15  H   UNL     1       5.802   2.352  16.044  0.00  0.00    +0.000 HD
ENDBRANCH  10  13
ENDBRANCH   1  10
BRANCH   6  16
ATOM     16  C   UNL     1       9.582  10.052  19.417  0.00  0.00    +0.000 C 
BRANCH  16  17
ATOM     17  C   UNL     1       9.845  11.364  18.717  0.00  0.00    +0.000 A 
ATOM     18  C   UNL     1       9.088  12.501  19.036  0.00  0.00    +0.000 A 
ATOM     19  C   UNL     1       9.380  13.735  18.450  0.00  0.00    +0.000 A 
ATOM     20  C   UNL     1      10.429  13.841  17.541  0.00  0.00    +0.000 A 
ATOM     21 CL   UNL     1      10.808  15.371  16.849  0.00  0.00    +0.000 Cl
ATOM     22  C   UNL     1      11.183  12.720  17.203  0.00  0.00    +0.000 A 
ATOM     23  C   UNL     1      10.893  11.486  17.789  0.00  0.00    +0.000 A 
ENDBRANCH  16  17
ENDBRANCH   6  16
TORSDOF 4
ENDMDL
MODEL 2
REMARK VINA RESULT:      -6.9      0.842      1.007
REMARK  Name = 
REMARK  4 active torsions:
REMARK  status: ('A' for Active; 'I' for Inactive)
REMARK    1  A    between atoms: N_1  and  S_2
REMARK    2  A    between atoms: S_2  and  C_5
REMARK    3  A    between atoms: C_10  and  C_12
REMARK    4  A    between atoms: C_12  and  C_13
REMARK                            x       y       z     vdW  Elec       q    Type
REMARK                         _______ _______ _______ _____ _____    ______ ____
ROOT
ATOM      1  C   UNL     1       6.746   5.555  17.262  0.00  0.00    +0.000 A 
ATOM      2  N   UNL     1       7.150   5.002  18.388  0.00  0.00    +0.000 NA
ATOM      3  N   UNL     1       7.940   5.878  19.115  0.00  0.00    +0.000 NA
ATOM      4  C   UNL     1       8.033   7.057  18.532  0.00  0.00    +0.000 A 
ATOM      5  N   UNL     1       8.749   8.098  19.074  0.00  0.00    +0.000 N 
ATOM      6  C   UNL     1       8.666   9.416  18.678  0.00  0.00    +0.000 C 
ATOM      7  O   UNL     1       7.915   9.873  17.820  0.00  0.00    +0.000 OA
ATOM      8  S   UNL     1       7.261   7.157  17.014  0.00  0.00    +0.000 S 
ATOM      9  H   UNL     1       9.234   7.864  19.930  0.00  0.00    +0.000 HD
ENDROOT
BRANCH   1  10
ATOM     10  S   UNL     1       5.720   4.817  16.043  0.00  0.00    +0.000 S 
ATOM     11  O   UNL     1       6.337   3.568  15.664  0.00  0.00    +0.000 OA
ATOM     12  O   UNL     1       5.429   5.856  15.077  0.00  0.00    +0.000 OA
BRANCH  10  13
ATOM     13  N   UNL     1       4.224   4.426  16.722  0.00  0.00    +0.000 NA
ATOM     14  H   UNL     1       4.292   3.515  17.175  0.00  0.00    +0.000 HD
ATOM     15  H   UNL     1       3.497   4.444  16.005  0.00  0.00    +0.000 HD
ENDBRANCH  10  13
ENDBRANCH   1  10
BRANCH   6  16
ATOM     16  C   UNL     1       9.607  10.334  19.439  0.00  0.00    +0.000 C 
BRANCH  16  17
ATOM     17  C   UNL     1       9.917  11.623  18.716  0.00  0.00    +0.000 A 
ATOM     18  C   UNL     1       9.246  12.806  19.059  0.00  0.00    +0.000 A 
ATOM     19  C   UNL     1       9.585  14.016  18.449  0.00  0.00    +0.000 A 
ATOM     20  C   UNL     1      10.596  14.052  17.493  0.00  0.00    +0.000 A 
ATOM     21 CL   UNL     1      11.035  15.552  16.770  0.00  0.00    +0.000 Cl
ATOM     22  C   UNL     1      11.264  12.885  17.130  0.00  0.00    +0.000 A 
ATOM     23  C   UNL     1      10.927  11.675  17.741  0.00  0.00    +0.000 A 
ENDBRANCH  16  17
ENDBRANCH   6  16
TORSDOF 4
ENDMDL
MODEL 3
REMARK VINA RESULT:      -6.8      7.014      7.990
REMARK  Name = 
REMARK  4 active torsions:
REMARK  status: ('A' for Active; 'I' for Inactive)
REMARK    1  A    between atoms: N_1  and  S_2
REMARK    2  A    between atoms: S_2  and  C_5
REMARK    3  A    between atoms: C_10  and  C_12
REMARK    4  A    between atoms: C_12  and  C_13
REMARK                            x       y       z     vdW  Elec       q    Type
REMARK                         _______ _______ _______ _____ _____    ______ ____
ROOT
ATOM      1  C   UNL     1       3.733   3.918  18.643  0.00  0.00    +0.000 A 
ATOM      2  N   UNL     1       4.617   4.246  17.722  0.00  0.00    +0.000 NA
ATOM      3  N   UNL     1       4.417   5.545  17.284  0.00  0.00    +0.000 NA
ATOM      4  C   UNL     1       3.443   6.142  17.940  0.00  0.00    +0.000 A 
ATOM      5  N   UNL     1       3.072   7.443  17.695  0.00  0.00    +0.000 N 
ATOM      6  C   UNL     1       2.270   8.213  18.511  0.00  0.00    +0.000 C 
ATOM      7  O   UNL     1       1.804   7.880  19.598  0.00  0.00    +0.000 OA
ATOM      8  S   UNL     1       2.630   5.144  19.059  0.00  0.00    +0.000 S 
ATOM      9  H   UNL     1       3.578   7.881  16.937  0.00  0.00    +0.000 HD
ENDROOT
BRANCH   1  10
ATOM     10  S   UNL     1       3.618   2.381  19.484  0.00  0.00    +0.000 S 
ATOM     11  O   UNL     1       3.332   1.372  18.492  0.00  0.00    +0.000 OA
ATOM     12  O   UNL     1       2.753   2.607  20.623  0.00  0.00    +0.000 OA
BRANCH  10  13
ATOM     13  N   UNL     1       5.118   1.985  20.151  0.00  0.00    +0.000 NA
ATOM     14  H   UNL     1       5.856   2.304  19.523  0.00  0.00    +0.000 HD
ATOM     15  H   UNL     1       5.171   0.981  20.325  0.00  0.00    +0.000 HD
ENDBRANCH  10  13
ENDBRANCH   1  10
BRANCH   6  16
ATOM     16  C   UNL     1       2.004   9.602  17.958  0.00  0.00    +0.000 C 
BRANCH  16  17
ATOM     17  C   UNL     1       0.737  10.234  18.483  0.00  0.00    +0.000 A 
ATOM     18  C   UNL     1       0.792  11.169  19.526  0.00  0.00    +0.000 A 
ATOM     19  C   UNL     1      -0.367  11.816  19.962  0.00  0.00    +0.000 A 
ATOM     20  C   UNL     1      -1.589  11.532  19.357  0.00  0.00    +0.000 A 
ATOM     21 CL   UNL     1      -3.008  12.358  19.872  0.00  0.00    +0.000 Cl
ATOM     22  C   UNL     1      -1.664  10.597  18.328  0.00  0.00    +0.000 A 
ATOM     23  C   UNL     1      -0.506   9.951  17.891  0.00  0.00    +0.000 A 
ENDBRANCH  16  17
ENDBRANCH   6  16
TORSDOF 4
ENDMDL
MODEL 4
REMARK VINA RESULT:      -6.8      7.651      8.655
REMARK  Name = 
REMARK  4 active torsions:
REMARK  status: ('A' for Active; 'I' for Inactive)
REMARK    1  A    between atoms: N_1  and  S_2
REMARK    2  A    between atoms: S_2  and  C_5
REMARK    3  A    between atoms: C_10  and  C_12
REMARK    4  A    between atoms: C_12  and  C_13
REMARK                            x       y       z     vdW  Elec       q    Type
REMARK                         _______ _______ _______ _____ _____    ______ ____
ROOT
ATOM      1  C   UNL     1       3.528   5.231  18.662  0.00  0.00    +0.000 A 
ATOM      2  N   UNL     1       2.818   5.029  19.754  0.00  0.00    +0.000 NA
ATOM      3  N   UNL     1       2.143   6.179  20.128  0.00  0.00    +0.000 NA
ATOM      4  C   UNL     1       2.327   7.160  19.267  0.00  0.00    +0.000 A 
ATOM      5  N   UNL     1       1.742   8.395  19.413  0.00  0.00    +0.000 N 
ATOM      6  C   UNL     1       1.660   9.362  18.433  0.00  0.00    +0.000 C 
ATOM      7  O   UNL     1       2.049   9.257  17.272  0.00  0.00    +0.000 OA
ATOM      8  S   UNL     1       3.412   6.795  18.002  0.00  0.00    +0.000 S 
ATOM      9  H   UNL     1       1.201   8.498  20.261  0.00  0.00    +0.000 HD
ENDROOT
BRANCH   1  10
ATOM     10  S   UNL     1       4.526   4.053  17.829  0.00  0.00    +0.000 S 
ATOM     11  O   UNL     1       4.816   4.588  16.519  0.00  0.00    +0.000 OA
ATOM     12  O   UNL     1       3.876   2.772  18.008  0.00  0.00    +0.000 OA
BRANCH  10  13
ATOM     13  N   UNL     1       6.009   3.902  18.623  0.00  0.00    +0.000 NA
ATOM     14  H   UNL     1       6.648   4.617  18.275  0.00  0.00    +0.000 HD
ATOM     15  H   UNL     1       6.382   2.960  18.495  0.00  0.00    +0.000 HD
ENDBRANCH  10  13
ENDBRANCH   1  10
BRANCH   6  16
ATOM     16  C   UNL     1       0.989  10.640  18.902  0.00  0.00    +0.000 C 
BRANCH  16  17
ATOM     17  C   UNL     1      -0.489  10.702  18.595  0.00  0.00    +0.000 A 
ATOM     18  C   UNL     1      -1.302  11.659  19.217  0.00  0.00    +0.000 A 
ATOM     19  C   UNL     1      -2.653  11.772  18.876  0.00  0.00    +0.000 A 
ATOM     20  C   UNL     1      -3.198  10.928  17.912  0.00  0.00    +0.000 A 
ATOM     21 CL   UNL     1      -4.853  11.095  17.470  0.00  0.00    +0.000 Cl
ATOM     22  C   UNL     1      -2.408   9.963  17.293  0.00  0.00    +0.000 A 
ATOM     23  C   UNL     1      -1.058   9.851  17.632  0.00  0.00    +0.000 A 
ENDBRANCH  16  17
ENDBRANCH   6  16
TORSDOF 4
ENDMDL
MODEL 5
REMARK VINA RESULT:      -6.7      8.264     10.486
REMARK  Name = 
REMARK  4 active torsions:
REMARK  status: ('A' for Active; 'I' for Inactive)
REMARK    1  A    between atoms: N_1  and  S_2
REMARK    2  A    between atoms: S_2  and  C_5
REMARK    3  A    between atoms: C_10  and  C_12
REMARK    4  A    between atoms: C_12  and  C_13
REMARK                            x       y       z     vdW  Elec       q    Type
REMARK                         _______ _______ _______ _____ _____    ______ ____
ROOT
ATOM      1  C   UNL     1      -0.557  11.052  20.989  0.00  0.00    +0.000 A 
ATOM      2  N   UNL     1      -0.992  11.397  19.794  0.00  0.00    +0.000 NA
ATOM      3  N   UNL     1      -0.274  10.753  18.799  0.00  0.00    +0.000 NA
ATOM      4  C   UNL     1       0.612   9.914  19.296  0.00  0.00    +0.000 A 
ATOM      5  N   UNL     1       1.431   9.145  18.505  0.00  0.00    +0.000 N 
ATOM      6  C   UNL     1       2.171   8.063  18.933  0.00  0.00    +0.000 C 
ATOM      7  O   UNL     1       2.180   7.590  20.067  0.00  0.00    +0.000 OA
ATOM      8  S   UNL     1       0.714   9.922  20.999  0.00  0.00    +0.000 S 
ATOM      9  H   UNL     1       1.326   9.316  17.513  0.00  0.00    +0.000 HD
ENDROOT
BRANCH   1  10
ATOM     10  S   UNL     1      -1.180  11.612  22.532  0.00  0.00    +0.000 S 
ATOM     11  O   UNL     1      -0.853  10.606  23.515  0.00  0.00    +0.000 OA
ATOM     12  O   UNL     1      -2.544  12.033  22.289  0.00  0.00    +0.000 OA
BRANCH  10  13
ATOM     13  N   UNL     1      -0.367  13.017  22.996  0.00  0.00    +0.000 NA
ATOM     14  H   UNL     1      -0.306  13.046  24.013  0.00  0.00    +0.000 HD
ATOM     15  H   UNL     1      -0.841  13.839  22.617  0.00  0.00    +0.000 HD
ENDBRANCH  10  13
ENDBRANCH   1  10
BRANCH   6  16
ATOM     16  C   UNL     1       3.010   7.434  17.835  0.00  0.00    +0.000 C 
BRANCH  16  17
ATOM     17  C   UNL     1       3.123   5.931  17.940  0.00  0.00    +0.000 A 
ATOM     18  C   UNL     1       4.356   5.333  18.239  0.00  0.00    +0.000 A 
ATOM     19  C   UNL     1       4.449   3.950  18.415  0.00  0.00    +0.000 A 
ATOM     20  C   UNL     1       3.311   3.157  18.294  0.00  0.00    +0.000 A 
ATOM     21 CL   UNL     1       3.424   1.458  18.548  0.00  0.00    +0.000 Cl
ATOM     22  C   UNL     1       2.081   3.732  17.985  0.00  0.00    +0.000 A 
ATOM     23  C   UNL     1       1.986   5.115  17.810  0.00  0.00    +0.000 A 
ENDBRANCH  16  17
ENDBRANCH   6  16
TORSDOF 4
ENDMDL
MODEL 6
REMARK VINA RESULT:      -6.7      8.298     10.492
REMARK  Name = 
REMARK  4 active torsions:
REMARK  status: ('A' for Active; 'I' for Inactive)
REMARK    1  A    between atoms: N_1  and  S_2
REMARK    2  A    between atoms: S_2  and  C_5
REMARK    3  A    between atoms: C_10  and  C_12
REMARK    4  A    between atoms: C_12  and  C_13
REMARK                            x       y       z     vdW  Elec       q    Type
REMARK                         _______ _______ _______ _____ _____    ______ ____
ROOT
ATOM      1  C   UNL     1      -0.444  11.204  21.081  0.00  0.00    +0.000 A 
ATOM      2  N   UNL     1      -0.861  11.578  19.888  0.00  0.00    +0.000 NA
ATOM      3  N   UNL     1      -0.186  10.895  18.890  0.00  0.00    +0.000 NA
ATOM      4  C   UNL     1       0.650  10.002  19.381  0.00  0.00    +0.000 A 
ATOM      5  N   UNL     1       1.419   9.188  18.586  0.00  0.00    +0.000 N 
ATOM      6  C   UNL     1       2.093   8.062  19.009  0.00  0.00    +0.000 C 
ATOM      7  O   UNL     1       2.078   7.586  20.142  0.00  0.00    +0.000 OA
ATOM      8  S   UNL     1       0.757  10.000  21.084  0.00  0.00    +0.000 S 
ATOM      9  H   UNL     1       1.321   9.367  17.595  0.00  0.00    +0.000 HD
ENDROOT
BRANCH   1  10
ATOM     10  S   UNL     1      -1.027  11.796  22.627  0.00  0.00    +0.000 S 
ATOM     11  O   UNL     1      -0.270  12.984  22.943  0.00  0.00    +0.000 OA
ATOM     12  O   UNL     1      -1.063  10.650  23.512  0.00  0.00    +0.000 OA
BRANCH  10  13
ATOM     13  N   UNL     1      -2.638  12.280  22.479  0.00  0.00    +0.000 NA
ATOM     14  H   UNL     1      -3.210  11.468  22.251  0.00  0.00    +0.000 HD
ATOM     15  H   UNL     1      -2.720  13.017  21.776  0.00  0.00    +0.000 HD
ENDBRANCH  10  13
ENDBRANCH   1  10
BRANCH   6  16
ATOM     16  C   UNL     1       2.890   7.387  17.906  0.00  0.00    +0.000 C 
BRANCH  16  17
ATOM     17  C   UNL     1       3.043   5.895  18.091  0.00  0.00    +0.000 A 
ATOM     18  C   UNL     1       1.960   5.038  17.849  0.00  0.00    +0.000 A 
ATOM     19  C   UNL     1       2.118   3.653  17.942  0.00  0.00    +0.000 A 
ATOM     20  C   UNL     1       3.359   3.116  18.276  0.00  0.00    +0.000 A 
ATOM     21 CL   UNL     1       3.558   1.408  18.353  0.00  0.00    +0.000 Cl
ATOM     22  C   UNL     1       4.442   3.954  18.532  0.00  0.00    +0.000 A 
ATOM     23  C   UNL     1       4.285   5.338  18.438  0.00  0.00    +0.000 A 
ENDBRANCH  16  17
ENDBRANCH   6  16
TORSDOF 4
ENDMDL
MODEL 7
REMARK VINA RESULT:      -6.7      7.644      8.720
REMARK  Name = 
REMARK  4 active torsions:
REMARK  status: ('A' for Active; 'I' for Inactive)
REMARK    1  A    between atoms: N_1  and  S_2
REMARK    2  A    between atoms: S_2  and  C_5
REMARK    3  A    between atoms: C_10  and  C_12
REMARK    4  A    between atoms: C_12  and  C_13
REMARK                            x       y       z     vdW  Elec       q    Type
REMARK                         _______ _______ _______ _____ _____    ______ ____
ROOT
ATOM      1  C   UNL     1       3.146   4.903  19.240  0.00  0.00    +0.000 A 
ATOM      2  N   UNL     1       2.410   4.909  20.334  0.00  0.00    +0.000 NA
ATOM      3  N   UNL     1       1.860   6.161  20.555  0.00  0.00    +0.000 NA
ATOM      4  C   UNL     1       2.155   7.006  19.588  0.00  0.00    +0.000 A 
ATOM      5  N   UNL     1       1.706   8.305  19.575  0.00  0.00    +0.000 N 
ATOM      6  C   UNL     1       1.736   9.151  18.487  0.00  0.00    +0.000 C 
ATOM      7  O   UNL     1       2.121   8.868  17.355  0.00  0.00    +0.000 OA
ATOM      8  S   UNL     1       3.205   6.380  18.398  0.00  0.00    +0.000 S 
ATOM      9  H   UNL     1       1.173   8.566  20.395  0.00  0.00    +0.000 HD
ENDROOT
BRANCH   1  10
ATOM     10  S   UNL     1       4.018   3.534  18.572  0.00  0.00    +0.000 S 
ATOM     11  O   UNL     1       3.888   3.603  17.136  0.00  0.00    +0.000 OA
ATOM     12  O   UNL     1       3.591   2.374  19.327  0.00  0.00    +0.000 OA
BRANCH  10  13
ATOM     13  N   UNL     1       5.665   3.690  18.912  0.00  0.00    +0.000 NA
ATOM     14  H   UNL     1       6.164   3.906  18.049  0.00  0.00    +0.000 HD
ATOM     15  H   UNL     1       6.015   2.838  19.354  0.00  0.00    +0.000 HD
ENDBRANCH  10  13
ENDBRANCH   1  10
BRANCH   6  16
ATOM     16  C   UNL     1       1.203  10.541  18.788  0.00  0.00    +0.000 C 
BRANCH  16  17
ATOM     17  C   UNL     1      -0.269  10.705  18.494  0.00  0.00    +0.000 A 
ATOM     18  C   UNL     1      -0.922   9.817  17.628  0.00  0.00    +0.000 A 
ATOM     19  C   UNL     1      -2.299   9.917  17.414  0.00  0.00    +0.000 A 
ATOM     20  C   UNL     1      -3.033  10.905  18.067  0.00  0.00    +0.000 A 
ATOM     21 CL   UNL     1      -4.735  11.001  17.829  0.00  0.00    +0.000 Cl
ATOM     22  C   UNL     1      -2.399  11.803  18.921  0.00  0.00    +0.000 A 
ATOM     23  C   UNL     1      -1.022  11.703  19.136  0.00  0.00    +0.000 A 
ENDBRANCH  16  17
ENDBRANCH   6  16
TORSDOF 4
ENDMDL
MODEL 8
REMARK VINA RESULT:      -6.7      6.963      7.866
REMARK  Name = 
REMARK  4 active torsions:
REMARK  status: ('A' for Active; 'I' for Inactive)
REMARK    1  A    between atoms: N_1  and  S_2
REMARK    2  A    between atoms: S_2  and  C_5
REMARK    3  A    between atoms: C_10  and  C_12
REMARK    4  A    between atoms: C_12  and  C_13
REMARK                            x       y       z     vdW  Elec       q    Type
REMARK                         _______ _______ _______ _____ _____    ______ ____
ROOT
ATOM      1  C   UNL     1       3.724   3.941  18.568  0.00  0.00    +0.000 A 
ATOM      2  N   UNL     1       4.591   4.251  17.625  0.00  0.00    +0.000 NA
ATOM      3  N   UNL     1       4.398   5.550  17.183  0.00  0.00    +0.000 NA
ATOM      4  C   UNL     1       3.447   6.164  17.857  0.00  0.00    +0.000 A 
ATOM      5  N   UNL     1       3.088   7.468  17.612  0.00  0.00    +0.000 N 
ATOM      6  C   UNL     1       2.315   8.254  18.441  0.00  0.00    +0.000 C 
ATOM      7  O   UNL     1       1.869   7.933  19.540  0.00  0.00    +0.000 OA
ATOM      8  S   UNL     1       2.646   5.184  19.000  0.00  0.00    +0.000 S 
ATOM      9  H   UNL     1       3.583   7.895  16.840  0.00  0.00    +0.000 HD
ENDROOT
BRANCH   1  10
ATOM     10  S   UNL     1       3.608   2.411  19.421  0.00  0.00    +0.000 S 
ATOM     11  O   UNL     1       3.324   1.393  18.436  0.00  0.00    +0.000 OA
ATOM     12  O   UNL     1       2.739   2.645  20.555  0.00  0.00    +0.000 OA
BRANCH  10  13
ATOM     13  N   UNL     1       5.106   2.021  20.094  0.00  0.00    +0.000 NA
ATOM     14  H   UNL     1       5.011   1.172  20.651  0.00  0.00    +0.000 HD
ATOM     15  H   UNL     1       5.457   2.805  20.648  0.00  0.00    +0.000 HD
ENDBRANCH  10  13
ENDBRANCH   1  10
BRANCH   6  16
ATOM     16  C   UNL     1       2.055   9.643  17.885  0.00  0.00    +0.000 C 
BRANCH  16  17
ATOM     17  C   UNL     1       0.910  10.363  18.556  0.00  0.00    +0.000 A 
ATOM     18  C   UNL     1      -0.414  10.087  18.185  0.00  0.00    +0.000 A 
ATOM     19  C   UNL     1      -1.480  10.692  18.857  0.00  0.00    +0.000 A 
ATOM     20  C   UNL     1      -1.228  11.575  19.905  0.00  0.00    +0.000 A 
ATOM     21 CL   UNL     1      -2.545  12.289  20.753  0.00  0.00    +0.000 Cl
ATOM     22  C   UNL     1       0.080  11.869  20.278  0.00  0.00    +0.000 A 
ATOM     23  C   UNL     1       1.146  11.264  19.608  0.00  0.00    +0.000 A 
ENDBRANCH  16  17
ENDBRANCH   6  16
TORSDOF 4
ENDMDL
MODEL 9
REMARK VINA RESULT:      -6.6      6.329      8.044
REMARK  Name = 
REMARK  4 active torsions:
REMARK  status: ('A' for Active; 'I' for Inactive)
REMARK    1  A    between atoms: N_1  and  S_2
REMARK    2  A    between atoms: S_2  and  C_5
REMARK    3  A    between atoms: C_10  and  C_12
REMARK    4  A    between atoms: C_12  and  C_13
REMARK                            x       y       z     vdW  Elec       q    Type
REMARK                         _______ _______ _______ _____ _____    ______ ____
ROOT
ATOM      1  C   UNL     1       3.121   3.686  20.037  0.00  0.00    +0.000 A 
ATOM      2  N   UNL     1       4.109   2.851  20.290  0.00  0.00    +0.000 NA
ATOM      3  N   UNL     1       5.145   3.020  19.386  0.00  0.00    +0.000 NA
ATOM      4  C   UNL     1       4.911   4.009  18.548  0.00  0.00    +0.000 A 
ATOM      5  N   UNL     1       5.803   4.380  17.570  0.00  0.00    +0.000 N 
ATOM      6  C   UNL     1       5.758   5.556  16.852  0.00  0.00    +0.000 C 
ATOM      7  O   UNL     1       4.951   6.471  17.001  0.00  0.00    +0.000 OA
ATOM      8  S   UNL     1       3.377   4.736  18.724  0.00  0.00    +0.000 S 
ATOM      9  H   UNL     1       6.628   3.797  17.521  0.00  0.00    +0.000 HD
ENDROOT
BRANCH   1  10
ATOM     10  S   UNL     1       1.617   3.831  20.932  0.00  0.00    +0.000 S 
ATOM     11  O   UNL     1       1.254   5.228  20.933  0.00  0.00    +0.000 OA
ATOM     12  O   UNL     1       1.803   3.084  22.158  0.00  0.00    +0.000 OA
BRANCH  10  13
ATOM     13  N   UNL     1       0.387   3.017  20.110  0.00  0.00    +0.000 NA
ATOM     14  H   UNL     1      -0.458   3.588  20.126  0.00  0.00    +0.000 HD
ATOM     15  H   UNL     1       0.236   2.097  20.526  0.00  0.00    +0.000 HD
ENDBRANCH  10  13
ENDBRANCH   1  10
BRANCH   6  16
ATOM     16  C   UNL     1       6.859   5.670  15.812  0.00  0.00    +0.000 C 
BRANCH  16  17
ATOM     17  C   UNL     1       6.580   4.900  14.543  0.00  0.00    +0.000 A 
ATOM     18  C   UNL     1       7.549   4.828  13.531  0.00  0.00    +0.000 A 
ATOM     19  C   UNL     1       7.328   4.052  12.391  0.00  0.00    +0.000 A 
ATOM     20  C   UNL     1       6.137   3.343  12.254  0.00  0.00    +0.000 A 
ATOM     21 CL   UNL     1       5.883   2.360  10.864  0.00  0.00    +0.000 Cl
ATOM     22  C   UNL     1       5.159   3.413  13.243  0.00  0.00    +0.000 A 
ATOM     23  C   UNL     1       5.380   4.187  14.385  0.00  0.00    +0.000 A 
ENDBRANCH  16  17
ENDBRANCH   6  16
TORSDOF 4
ENDMDL
