MODEL 1
REMARK VINA RESULT:      -8.3      0.000      0.000
REMARK  Name = 
REMARK  5 active torsions:
REMARK  status: ('A' for Active; 'I' for Inactive)
REMARK    1  A    between atoms: C_1  and  C_2
REMARK    2  A    between atoms: C_5  and  C_6
REMARK    3  A    between atoms: C_8  and  C_9
REMARK    4  A    between atoms: N_14  and  C_15
REMARK    5  A    between atoms: C_18  and  O_19
REMARK                            x       y       z     vdW  Elec       q    Type
REMARK                         _______ _______ _______ _____ _____    ______ ____
ROOT
ATOM      1  C   UNL     1      -2.215  10.857  18.478  0.00  0.00    +0.000 A 
ATOM      2  C   UNL     1      -1.379   9.952  19.112  0.00  0.00    +0.000 A 
ATOM      3  C   UNL     1      -0.806  10.296  20.348  0.00  0.00    +0.000 A 
ATOM      4  C   UNL     1      -1.051  11.579  20.887  0.00  0.00    +0.000 A 
ATOM      5  C   UNL     1      -0.380  12.146  21.992  0.00  0.00    +0.000 A 
ATOM      6  C   UNL     1      -0.851  13.294  22.620  0.00  0.00    +0.000 A 
ATOM      7  C   UNL     1      -1.917  13.978  22.059  0.00  0.00    +0.000 A 
ATOM      8  C   UNL     1      -2.459  13.529  20.856  0.00  0.00    +0.000 A 
ATOM      9  C   UNL     1      -2.040  12.347  20.256  0.00  0.00    +0.000 A 
ATOM     10  N   UNL     1      -2.595  12.003  19.092  0.00  0.00    +0.000 NA
ENDROOT
BRANCH   3  11
ATOM     11  C   UNL     1       0.107   9.273  20.944  0.00  0.00    +0.000 C 
ATOM     12  O   UNL     1      -0.185   8.882  22.070  0.00  0.00    +0.000 OA
ATOM     13  N   UNL     1       1.222   8.778  20.268  0.00  0.00    +0.000 N 
ATOM     14  C   UNL     1       1.927   7.630  20.858  0.00  0.00    +0.000 C 
ATOM     15  C   UNL     1       2.136   6.533  19.802  0.00  0.00    +0.000 C 
ATOM     16  N   UNL     1       2.903   7.087  18.668  0.00  0.00    +0.000 N 
ATOM     17  C   UNL     1       2.286   8.284  18.044  0.00  0.00    +0.000 C 
ATOM     18  C   UNL     1       1.947   9.356  19.118  0.00  0.00    +0.000 C 
BRANCH  16  19
ATOM     19  C   UNL     1       3.556   6.210  17.802  0.00  0.00    +0.000 A 
ATOM     20  C   UNL     1       3.336   4.824  17.789  0.00  0.00    +0.000 A 
ATOM     21  C   UNL     1       4.083   3.972  16.963  0.00  0.00    +0.000 A 
ATOM     22  C   UNL     1       5.061   4.509  16.134  0.00  0.00    +0.000 A 
ATOM     23  C   UNL     1       5.292   5.873  16.112  0.00  0.00    +0.000 A 
ATOM     24  C   UNL     1       4.541   6.714  16.936  0.00  0.00    +0.000 A 
BRANCH  22  25
ATOM     25  O   UNL     1       5.828   3.719  15.331  0.00  0.00    +0.000 OA
ATOM     26  H   UNL     1       6.156   2.971  15.855  0.00  0.00    +0.000 HD
ENDBRANCH  22  25
ENDBRANCH  16  19
ENDBRANCH   3  11
BRANCH   1  31
ATOM     27  C   UNL     1      -4.280   9.974  13.109  0.00  0.00    +0.000 C 
ATOM     28  C   UNL     1      -3.727  10.225  14.480  0.00  0.00    +0.000 A 
ATOM     29  C   UNL     1      -2.589   9.552  14.929  0.00  0.00    +0.000 A 
ATOM     30  C   UNL     1      -2.094   9.783  16.218  0.00  0.00    +0.000 A 
ATOM     31  C   UNL     1      -2.714  10.690  17.097  0.00  0.00    +0.000 A 
ATOM     32  C   UNL     1      -3.859  11.356  16.627  0.00  0.00    +0.000 A 
ATOM     33  C   UNL     1      -4.358  11.130  15.338  0.00  0.00    +0.000 A 
ENDBRANCH   1  31
TORSDOF 4
ENDMDL
MODEL 2
REMARK VINA RESULT:      -8.2      3.587     10.063
REMARK  Name = 
REMARK  5 active torsions:
REMARK  status: ('A' for Active; 'I' for Inactive)
REMARK    1  A    between atoms: C_1  and  C_2
REMARK    2  A    between atoms: C_5  and  C_6
REMARK    3  A    between atoms: C_8  and  C_9
REMARK    4  A    between atoms: N_14  and  C_15
REMARK    5  A    between atoms: C_18  and  O_19
REMARK                            x       y       z     vdW  Elec       q    Type
REMARK                         _______ _______ _______ _____ _____    ______ ____
ROOT
ATOM      1  C   UNL     1       7.165   7.337  17.556  0.00  0.00    +0.000 A 
ATOM      2  C   UNL     1       6.098   6.837  18.285  0.00  0.00    +0.000 A 
ATOM      3  C   UNL     1       5.342   5.777  17.756  0.00  0.00    +0.000 A 
ATOM      4  C   UNL     1       5.653   5.286  16.468  0.00  0.00    +0.000 A 
ATOM      5  C   UNL     1       4.859   4.390  15.720  0.00  0.00    +0.000 A 
ATOM      6  C   UNL     1       5.352   3.754  14.585  0.00  0.00    +0.000 A 
ATOM      7  C   UNL     1       6.596   4.120  14.095  0.00  0.00    +0.000 A 
ATOM      8  C   UNL     1       7.300   5.146  14.721  0.00  0.00    +0.000 A 
ATOM      9  C   UNL     1       6.847   5.741  15.893  0.00  0.00    +0.000 A 
ATOM     10  N   UNL     1       7.571   6.735  16.413  0.00  0.00    +0.000 NA
ENDROOT
BRANCH   3  11
ATOM     11  C   UNL     1       4.191   5.322  18.595  0.00  0.00    +0.000 C 
ATOM     12  O   UNL     1       4.272   4.185  19.049  0.00  0.00    +0.000 OA
ATOM     13  N   UNL     1       3.089   6.135  18.862  0.00  0.00    +0.000 N 
ATOM     14  C   UNL     1       2.119   5.668  19.863  0.00  0.00    +0.000 C 
ATOM     15  C   UNL     1       1.833   6.777  20.887  0.00  0.00    +0.000 C 
ATOM     16  N   UNL     1       1.319   7.970  20.183  0.00  0.00    +0.000 N 
ATOM     17  C   UNL     1       2.217   8.480  19.117  0.00  0.00    +0.000 C 
ATOM     18  C   UNL     1       2.623   7.338  18.142  0.00  0.00    +0.000 C 
BRANCH  16  19
ATOM     19  C   UNL     1       0.619   8.934  20.909  0.00  0.00    +0.000 A 
ATOM     20  C   UNL     1       0.268  10.191  20.393  0.00  0.00    +0.000 A 
ATOM     21  C   UNL     1      -0.356  11.161  21.192  0.00  0.00    +0.000 A 
ATOM     22  C   UNL     1      -0.637  10.873  22.522  0.00  0.00    +0.000 A 
ATOM     23  C   UNL     1      -0.317   9.638  23.056  0.00  0.00    +0.000 A 
ATOM     24  C   UNL     1       0.301   8.677  22.253  0.00  0.00    +0.000 A 
BRANCH  22  25
ATOM     25  O   UNL     1      -1.220  11.792  23.342  0.00  0.00    +0.000 OA
ATOM     26  H   UNL     1      -0.563  12.470  23.565  0.00  0.00    +0.000 HD
ENDBRANCH  22  25
ENDBRANCH  16  19
ENDBRANCH   3  11
BRANCH   1  31
ATOM     27  C   UNL     1       9.861  12.261  19.091  0.00  0.00    +0.000 C 
ATOM     28  C   UNL     1       9.190  10.987  18.671  0.00  0.00    +0.000 A 
ATOM     29  C   UNL     1       8.267  10.973  17.625  0.00  0.00    +0.000 A 
ATOM     30  C   UNL     1       7.635   9.780  17.256  0.00  0.00    +0.000 A 
ATOM     31  C   UNL     1       7.903   8.566  17.915  0.00  0.00    +0.000 A 
ATOM     32  C   UNL     1       8.834   8.601  18.968  0.00  0.00    +0.000 A 
ATOM     33  C   UNL     1       9.472   9.792  19.339  0.00  0.00    +0.000 A 
ENDBRANCH   1  31
TORSDOF 4
ENDMDL
MODEL 3
REMARK VINA RESULT:      -7.8      1.229      1.527
REMARK  Name = 
REMARK  5 active torsions:
REMARK  status: ('A' for Active; 'I' for Inactive)
REMARK    1  A    between atoms: C_1  and  C_2
REMARK    2  A    between atoms: C_5  and  C_6
REMARK    3  A    between atoms: C_8  and  C_9
REMARK    4  A    between atoms: N_14  and  C_15
REMARK    5  A    between atoms: C_18  and  O_19
REMARK                            x       y       z     vdW  Elec       q    Type
REMARK                         _______ _______ _______ _____ _____    ______ ____
ROOT
ATOM      1  C   UNL     1      -2.256  11.230  18.839  0.00  0.00    +0.000 A 
ATOM      2  C   UNL     1      -1.440  10.424  19.616  0.00  0.00    +0.000 A 
ATOM      3  C   UNL     1      -0.869  10.951  20.787  0.00  0.00    +0.000 A 
ATOM      4  C   UNL     1      -1.094  12.307  21.112  0.00  0.00    +0.000 A 
ATOM      5  C   UNL     1      -0.419  13.032  22.118  0.00  0.00    +0.000 A 
ATOM      6  C   UNL     1      -0.874  14.273  22.551  0.00  0.00    +0.000 A 
ATOM      7  C   UNL     1      -1.925  14.877  21.879  0.00  0.00    +0.000 A 
ATOM      8  C   UNL     1      -2.467  14.251  20.759  0.00  0.00    +0.000 A 
ATOM      9  C   UNL     1      -2.065  12.982  20.358  0.00  0.00    +0.000 A 
ATOM     10  N   UNL     1      -2.619  12.466  19.259  0.00  0.00    +0.000 NA
ENDROOT
BRANCH   3  11
ATOM     11  C   UNL     1       0.022  10.022  21.546  0.00  0.00    +0.000 C 
ATOM     12  O   UNL     1      -0.178   9.951  22.754  0.00  0.00    +0.000 OA
ATOM     13  N   UNL     1       1.021   9.267  20.928  0.00  0.00    +0.000 N 
ATOM     14  C   UNL     1       1.696   8.237  21.731  0.00  0.00    +0.000 C 
ATOM     15  C   UNL     1       1.710   6.898  20.976  0.00  0.00    +0.000 C 
ATOM     16  N   UNL     1       2.393   7.077  19.678  0.00  0.00    +0.000 N 
ATOM     17  C   UNL     1       1.806   8.138  18.823  0.00  0.00    +0.000 C 
ATOM     18  C   UNL     1       1.662   9.470  19.613  0.00  0.00    +0.000 C 
BRANCH  16  19
ATOM     19  C   UNL     1       2.884   5.954  19.013  0.00  0.00    +0.000 A 
ATOM     20  C   UNL     1       2.137   5.214  18.082  0.00  0.00    +0.000 A 
ATOM     21  C   UNL     1       2.642   4.039  17.507  0.00  0.00    +0.000 A 
ATOM     22  C   UNL     1       3.910   3.595  17.862  0.00  0.00    +0.000 A 
ATOM     23  C   UNL     1       4.678   4.309  18.764  0.00  0.00    +0.000 A 
ATOM     24  C   UNL     1       4.168   5.481  19.329  0.00  0.00    +0.000 A 
BRANCH  22  25
ATOM     25  O   UNL     1       4.433   2.447  17.347  0.00  0.00    +0.000 OA
ATOM     26  H   UNL     1       5.196   2.185  17.887  0.00  0.00    +0.000 HD
ENDBRANCH  22  25
ENDBRANCH  16  19
ENDBRANCH   3  11
BRANCH   1  31
ATOM     27  C   UNL     1      -4.096   9.964  13.465  0.00  0.00    +0.000 C 
ATOM     28  C   UNL     1      -3.644  10.267  14.862  0.00  0.00    +0.000 A 
ATOM     29  C   UNL     1      -4.311  11.213  15.642  0.00  0.00    +0.000 A 
ATOM     30  C   UNL     1      -3.867  11.499  16.939  0.00  0.00    +0.000 A 
ATOM     31  C   UNL     1      -2.750  10.853  17.497  0.00  0.00    +0.000 A 
ATOM     32  C   UNL     1      -2.090   9.905  16.695  0.00  0.00    +0.000 A 
ATOM     33  C   UNL     1      -2.531   9.613  15.399  0.00  0.00    +0.000 A 
ENDBRANCH   1  31
TORSDOF 4
ENDMDL
MODEL 4
REMARK VINA RESULT:      -7.7      1.850      2.191
REMARK  Name = 
REMARK  5 active torsions:
REMARK  status: ('A' for Active; 'I' for Inactive)
REMARK    1  A    between atoms: C_1  and  C_2
REMARK    2  A    between atoms: C_5  and  C_6
REMARK    3  A    between atoms: C_8  and  C_9
REMARK    4  A    between atoms: N_14  and  C_15
REMARK    5  A    between atoms: C_18  and  O_19
REMARK                            x       y       z     vdW  Elec       q    Type
REMARK                         _______ _______ _______ _____ _____    ______ ____
ROOT
ATOM      1  C   UNL     1      -1.625  11.140  17.945  0.00  0.00    +0.000 A 
ATOM      2  C   UNL     1      -1.131  10.254  18.888  0.00  0.00    +0.000 A 
ATOM      3  C   UNL     1      -0.216  10.714  19.850  0.00  0.00    +0.000 A 
ATOM      4  C   UNL     1       0.222  12.057  19.796  0.00  0.00    +0.000 A 
ATOM      5  C   UNL     1       1.290  12.601  20.542  0.00  0.00    +0.000 A 
ATOM      6  C   UNL     1       1.490  13.975  20.631  0.00  0.00    +0.000 A 
ATOM      7  C   UNL     1       0.716  14.819  19.851  0.00  0.00    +0.000 A 
ATOM      8  C   UNL     1      -0.208  14.272  18.964  0.00  0.00    +0.000 A 
ATOM      9  C   UNL     1      -0.463  12.907  18.916  0.00  0.00    +0.000 A 
ATOM     10  N   UNL     1      -1.347  12.464  18.019  0.00  0.00    +0.000 NA
ENDROOT
BRANCH   3  11
ATOM     11  C   UNL     1       0.289   9.683  20.807  0.00  0.00    +0.000 C 
ATOM     12  O   UNL     1      -0.174   9.731  21.943  0.00  0.00    +0.000 OA
ATOM     13  N   UNL     1       1.224   8.713  20.443  0.00  0.00    +0.000 N 
ATOM     14  C   UNL     1       1.492   7.628  21.397  0.00  0.00    +0.000 C 
ATOM     15  C   UNL     1       1.398   6.265  20.693  0.00  0.00    +0.000 C 
ATOM     16  N   UNL     1       2.363   6.225  19.575  0.00  0.00    +0.000 N 
ATOM     17  C   UNL     1       2.195   7.320  18.588  0.00  0.00    +0.000 C 
ATOM     18  C   UNL     1       2.157   8.704  19.298  0.00  0.00    +0.000 C 
BRANCH  16  19
ATOM     19  C   UNL     1       2.748   4.987  19.060  0.00  0.00    +0.000 A 
ATOM     20  C   UNL     1       2.347   4.511  17.801  0.00  0.00    +0.000 A 
ATOM     21  C   UNL     1       2.686   3.222  17.365  0.00  0.00    +0.000 A 
ATOM     22  C   UNL     1       3.438   2.397  18.192  0.00  0.00    +0.000 A 
ATOM     23  C   UNL     1       3.862   2.842  19.431  0.00  0.00    +0.000 A 
ATOM     24  C   UNL     1       3.522   4.128  19.856  0.00  0.00    +0.000 A 
BRANCH  22  25
ATOM     25  O   UNL     1       3.772   1.129  17.820  0.00  0.00    +0.000 OA
ATOM     26  H   UNL     1       4.721   1.000  17.974  0.00  0.00    +0.000 HD
ENDBRANCH  22  25
ENDBRANCH  16  19
ENDBRANCH   3  11
BRANCH   1  31
ATOM     27  C   UNL     1      -4.705   9.740  13.209  0.00  0.00    +0.000 C 
ATOM     28  C   UNL     1      -3.932  10.081  14.448  0.00  0.00    +0.000 A 
ATOM     29  C   UNL     1      -4.334  11.127  15.280  0.00  0.00    +0.000 A 
ATOM     30  C   UNL     1      -3.592  11.446  16.423  0.00  0.00    +0.000 A 
ATOM     31  C   UNL     1      -2.431  10.733  16.774  0.00  0.00    +0.000 A 
ATOM     32  C   UNL     1      -2.041   9.684  15.924  0.00  0.00    +0.000 A 
ATOM     33  C   UNL     1      -2.781   9.359  14.779  0.00  0.00    +0.000 A 
ENDBRANCH   1  31
TORSDOF 4
ENDMDL
MODEL 5
REMARK VINA RESULT:      -7.7      2.310      4.738
REMARK  Name = 
REMARK  5 active torsions:
REMARK  status: ('A' for Active; 'I' for Inactive)
REMARK    1  A    between atoms: C_1  and  C_2
REMARK    2  A    between atoms: C_5  and  C_6
REMARK    3  A    between atoms: C_8  and  C_9
REMARK    4  A    between atoms: N_14  and  C_15
REMARK    5  A    between atoms: C_18  and  O_19
REMARK                            x       y       z     vdW  Elec       q    Type
REMARK                         _______ _______ _______ _____ _____    ______ ____
ROOT
ATOM      1  C   UNL     1      -0.079  13.066  18.850  0.00  0.00    +0.000 A 
ATOM      2  C   UNL     1       0.422  11.942  19.486  0.00  0.00    +0.000 A 
ATOM      3  C   UNL     1      -0.199  10.700  19.274  0.00  0.00    +0.000 A 
ATOM      4  C   UNL     1      -1.354  10.638  18.463  0.00  0.00    +0.000 A 
ATOM      5  C   UNL     1      -2.207   9.520  18.336  0.00  0.00    +0.000 A 
ATOM      6  C   UNL     1      -3.165   9.445  17.329  0.00  0.00    +0.000 A 
ATOM      7  C   UNL     1      -3.385  10.553  16.526  0.00  0.00    +0.000 A 
ATOM      8  C   UNL     1      -2.679  11.728  16.777  0.00  0.00    +0.000 A 
ATOM      9  C   UNL     1      -1.675  11.792  17.735  0.00  0.00    +0.000 A 
ATOM     10  N   UNL     1      -1.066  12.964  17.928  0.00  0.00    +0.000 NA
ENDROOT
BRANCH   3  11
ATOM     11  C   UNL     1       0.388   9.548  20.024  0.00  0.00    +0.000 C 
ATOM     12  O   UNL     1      -0.184   9.235  21.064  0.00  0.00    +0.000 OA
ATOM     13  N   UNL     1       1.513   8.855  19.575  0.00  0.00    +0.000 N 
ATOM     14  C   UNL     1       1.879   7.615  20.276  0.00  0.00    +0.000 C 
ATOM     15  C   UNL     1       2.100   6.478  19.266  0.00  0.00    +0.000 C 
ATOM     16  N   UNL     1       3.160   6.870  18.315  0.00  0.00    +0.000 N 
ATOM     17  C   UNL     1       2.895   8.142  17.599  0.00  0.00    +0.000 C 
ATOM     18  C   UNL     1       2.539   9.277  18.600  0.00  0.00    +0.000 C 
BRANCH  16  19
ATOM     19  C   UNL     1       3.811   5.877  17.582  0.00  0.00    +0.000 A 
ATOM     20  C   UNL     1       3.603   4.502  17.782  0.00  0.00    +0.000 A 
ATOM     21  C   UNL     1       4.349   3.541  17.083  0.00  0.00    +0.000 A 
ATOM     22  C   UNL     1       5.311   3.954  16.170  0.00  0.00    +0.000 A 
ATOM     23  C   UNL     1       5.529   5.301  15.940  0.00  0.00    +0.000 A 
ATOM     24  C   UNL     1       4.780   6.251  16.637  0.00  0.00    +0.000 A 
BRANCH  22  25
ATOM     25  O   UNL     1       6.075   3.057  15.485  0.00  0.00    +0.000 OA
ATOM     26  H   UNL     1       6.971   3.066  15.858  0.00  0.00    +0.000 HD
ENDBRANCH  22  25
ENDBRANCH  16  19
ENDBRANCH   3  11
BRANCH   1  31
ATOM     27  C   UNL     1       1.453  18.524  20.168  0.00  0.00    +0.000 C 
ATOM     28  C   UNL     1       1.079  17.119  19.801  0.00  0.00    +0.000 A 
ATOM     29  C   UNL     1       0.059  16.864  18.884  0.00  0.00    +0.000 A 
ATOM     30  C   UNL     1      -0.291  15.547  18.565  0.00  0.00    +0.000 A 
ATOM     31  C   UNL     1       0.363  14.446  19.147  0.00  0.00    +0.000 A 
ATOM     32  C   UNL     1       1.387  14.723  20.069  0.00  0.00    +0.000 A 
ATOM     33  C   UNL     1       1.743  16.039  20.391  0.00  0.00    +0.000 A 
ENDBRANCH   1  31
TORSDOF 4
ENDMDL
MODEL 6
REMARK VINA RESULT:      -7.4      2.641      4.798
REMARK  Name = 
REMARK  5 active torsions:
REMARK  status: ('A' for Active; 'I' for Inactive)
REMARK    1  A    between atoms: C_1  and  C_2
REMARK    2  A    between atoms: C_5  and  C_6
REMARK    3  A    between atoms: C_8  and  C_9
REMARK    4  A    between atoms: N_14  and  C_15
REMARK    5  A    between atoms: C_18  and  O_19
REMARK                            x       y       z     vdW  Elec       q    Type
REMARK                         _______ _______ _______ _____ _____    ______ ____
ROOT
ATOM      1  C   UNL     1      -0.184  13.095  18.834  0.00  0.00    +0.000 A 
ATOM      2  C   UNL     1       0.197  12.081  19.698  0.00  0.00    +0.000 A 
ATOM      3  C   UNL     1      -0.436  10.829  19.608  0.00  0.00    +0.000 A 
ATOM      4  C   UNL     1      -1.484  10.654  18.677  0.00  0.00    +0.000 A 
ATOM      5  C   UNL     1      -2.353   9.542  18.622  0.00  0.00    +0.000 A 
ATOM      6  C   UNL     1      -3.182   9.319  17.527  0.00  0.00    +0.000 A 
ATOM      7  C   UNL     1      -3.264  10.286  16.538  0.00  0.00    +0.000 A 
ATOM      8  C   UNL     1      -2.555  11.476  16.687  0.00  0.00    +0.000 A 
ATOM      9  C   UNL     1      -1.674  11.681  17.742  0.00  0.00    +0.000 A 
ATOM     10  N   UNL     1      -1.053  12.860  17.822  0.00  0.00    +0.000 NA
ENDROOT
BRANCH   3  11
ATOM     11  C   UNL     1       0.016   9.805  20.598  0.00  0.00    +0.000 C 
ATOM     12  O   UNL     1      -0.571   9.803  21.676  0.00  0.00    +0.000 OA
ATOM     13  N   UNL     1       1.036   8.893  20.324  0.00  0.00    +0.000 N 
ATOM     14  C   UNL     1       1.256   7.801  21.283  0.00  0.00    +0.000 C 
ATOM     15  C   UNL     1       1.313   6.452  20.551  0.00  0.00    +0.000 C 
ATOM     16  N   UNL     1       2.395   6.487  19.546  0.00  0.00    +0.000 N 
ATOM     17  C   UNL     1       2.279   7.594  18.565  0.00  0.00    +0.000 C 
ATOM     18  C   UNL     1       2.088   8.957  19.289  0.00  0.00    +0.000 C 
BRANCH  16  19
ATOM     19  C   UNL     1       2.902   5.283  19.056  0.00  0.00    +0.000 A 
ATOM     20  C   UNL     1       3.428   5.131  17.763  0.00  0.00    +0.000 A 
ATOM     21  C   UNL     1       3.840   3.879  17.284  0.00  0.00    +0.000 A 
ATOM     22  C   UNL     1       3.731   2.763  18.106  0.00  0.00    +0.000 A 
ATOM     23  C   UNL     1       3.231   2.882  19.390  0.00  0.00    +0.000 A 
ATOM     24  C   UNL     1       2.825   4.134  19.860  0.00  0.00    +0.000 A 
BRANCH  22  25
ATOM     25  O   UNL     1       4.098   1.523  17.676  0.00  0.00    +0.000 OA
ATOM     26  H   UNL     1       5.056   1.519  17.521  0.00  0.00    +0.000 HD
ENDBRANCH  22  25
ENDBRANCH  16  19
ENDBRANCH   3  11
BRANCH   1  31
ATOM     27  C   UNL     1       1.598  18.630  19.082  0.00  0.00    +0.000 C 
ATOM     28  C   UNL     1       1.147  17.200  19.050  0.00  0.00    +0.000 A 
ATOM     29  C   UNL     1       2.051  16.168  18.792  0.00  0.00    +0.000 A 
ATOM     30  C   UNL     1       1.613  14.840  18.748  0.00  0.00    +0.000 A 
ATOM     31  C   UNL     1       0.265  14.498  18.962  0.00  0.00    +0.000 A 
ATOM     32  C   UNL     1      -0.630  15.551  19.219  0.00  0.00    +0.000 A 
ATOM     33  C   UNL     1      -0.197  16.882  19.267  0.00  0.00    +0.000 A 
ENDBRANCH   1  31
TORSDOF 4
ENDMDL
MODEL 7
REMARK VINA RESULT:      -7.4      2.631      4.908
REMARK  Name = 
REMARK  5 active torsions:
REMARK  status: ('A' for Active; 'I' for Inactive)
REMARK    1  A    between atoms: C_1  and  C_2
REMARK    2  A    between atoms: C_5  and  C_6
REMARK    3  A    between atoms: C_8  and  C_9
REMARK    4  A    between atoms: N_14  and  C_15
REMARK    5  A    between atoms: C_18  and  O_19
REMARK                            x       y       z     vdW  Elec       q    Type
REMARK                         _______ _______ _______ _____ _____    ______ ____
ROOT
ATOM      1  C   UNL     1      -0.063  13.132  18.856  0.00  0.00    +0.000 A 
ATOM      2  C   UNL     1       0.311  12.114  19.719  0.00  0.00    +0.000 A 
ATOM      3  C   UNL     1      -0.304  10.856  19.604  0.00  0.00    +0.000 A 
ATOM      4  C   UNL     1      -1.330  10.676  18.649  0.00  0.00    +0.000 A 
ATOM      5  C   UNL     1      -2.184   9.555  18.565  0.00  0.00    +0.000 A 
ATOM      6  C   UNL     1      -2.986   9.333  17.450  0.00  0.00    +0.000 A 
ATOM      7  C   UNL     1      -3.058  10.307  16.468  0.00  0.00    +0.000 A 
ATOM      8  C   UNL     1      -2.367  11.504  16.643  0.00  0.00    +0.000 A 
ATOM      9  C   UNL     1      -1.511  11.709  17.719  0.00  0.00    +0.000 A 
ATOM     10  N   UNL     1      -0.907  12.895  17.823  0.00  0.00    +0.000 NA
ENDROOT
BRANCH   3  11
ATOM     11  C   UNL     1       0.138   9.828  20.595  0.00  0.00    +0.000 C 
ATOM     12  O   UNL     1      -0.377   9.897  21.707  0.00  0.00    +0.000 OA
ATOM     13  N   UNL     1       1.072   8.839  20.285  0.00  0.00    +0.000 N 
ATOM     14  C   UNL     1       1.277   7.760  21.262  0.00  0.00    +0.000 C 
ATOM     15  C   UNL     1       1.193   6.391  20.569  0.00  0.00    +0.000 C 
ATOM     16  N   UNL     1       2.209   6.323  19.499  0.00  0.00    +0.000 N 
ATOM     17  C   UNL     1       2.106   7.410  18.493  0.00  0.00    +0.000 C 
ATOM     18  C   UNL     1       2.058   8.801  19.186  0.00  0.00    +0.000 C 
BRANCH  16  19
ATOM     19  C   UNL     1       2.597   5.073  19.015  0.00  0.00    +0.000 A 
ATOM     20  C   UNL     1       2.138   3.858  19.546  0.00  0.00    +0.000 A 
ATOM     21  C   UNL     1       2.627   2.627  19.086  0.00  0.00    +0.000 A 
ATOM     22  C   UNL     1       3.585   2.606  18.080  0.00  0.00    +0.000 A 
ATOM     23  C   UNL     1       4.047   3.786  17.525  0.00  0.00    +0.000 A 
ATOM     24  C   UNL     1       3.552   5.007  17.987  0.00  0.00    +0.000 A 
BRANCH  22  25
ATOM     25  O   UNL     1       4.107   1.435  17.617  0.00  0.00    +0.000 OA
ATOM     26  H   UNL     1       4.233   0.834  18.368  0.00  0.00    +0.000 HD
ENDBRANCH  22  25
ENDBRANCH  16  19
ENDBRANCH   3  11
BRANCH   1  31
ATOM     27  C   UNL     1       1.644  18.631  19.701  0.00  0.00    +0.000 C 
ATOM     28  C   UNL     1       1.192  17.223  19.453  0.00  0.00    +0.000 A 
ATOM     29  C   UNL     1      -0.113  16.826  19.746  0.00  0.00    +0.000 A 
ATOM     30  C   UNL     1      -0.515  15.503  19.525  0.00  0.00    +0.000 A 
ATOM     31  C   UNL     1       0.366  14.538  19.006  0.00  0.00    +0.000 A 
ATOM     32  C   UNL     1       1.677  14.957  18.719  0.00  0.00    +0.000 A 
ATOM     33  C   UNL     1       2.085  16.280  18.935  0.00  0.00    +0.000 A 
ENDBRANCH   1  31
TORSDOF 4
ENDMDL
MODEL 8
REMARK VINA RESULT:      -7.4      1.263      4.964
REMARK  Name = 
REMARK  5 active torsions:
REMARK  status: ('A' for Active; 'I' for Inactive)
REMARK    1  A    between atoms: C_1  and  C_2
REMARK    2  A    between atoms: C_5  and  C_6
REMARK    3  A    between atoms: C_8  and  C_9
REMARK    4  A    between atoms: N_14  and  C_15
REMARK    5  A    between atoms: C_18  and  O_19
REMARK                            x       y       z     vdW  Elec       q    Type
REMARK                         _______ _______ _______ _____ _____    ______ ____
ROOT
ATOM      1  C   UNL     1      -1.470  12.501  21.107  0.00  0.00    +0.000 A 
ATOM      2  C   UNL     1      -0.798  11.343  21.462  0.00  0.00    +0.000 A 
ATOM      3  C   UNL     1      -0.673  10.305  20.523  0.00  0.00    +0.000 A 
ATOM      4  C   UNL     1      -1.286  10.446  19.257  0.00  0.00    +0.000 A 
ATOM      5  C   UNL     1      -1.438   9.418  18.302  0.00  0.00    +0.000 A 
ATOM      6  C   UNL     1      -1.812   9.692  16.990  0.00  0.00    +0.000 A 
ATOM      7  C   UNL     1      -2.186  10.983  16.653  0.00  0.00    +0.000 A 
ATOM      8  C   UNL     1      -2.225  11.962  17.644  0.00  0.00    +0.000 A 
ATOM      9  C   UNL     1      -1.791  11.715  18.941  0.00  0.00    +0.000 A 
ATOM     10  N   UNL     1      -1.887  12.702  19.834  0.00  0.00    +0.000 NA
ENDROOT
BRANCH   3  11
ATOM     11  C   UNL     1       0.039   9.082  21.001  0.00  0.00    +0.000 C 
ATOM     12  O   UNL     1      -0.443   8.528  21.985  0.00  0.00    +0.000 OA
ATOM     13  N   UNL     1       1.181   8.583  20.373  0.00  0.00    +0.000 N 
ATOM     14  C   UNL     1       1.677   7.266  20.796  0.00  0.00    +0.000 C 
ATOM     15  C   UNL     1       1.915   6.367  19.573  0.00  0.00    +0.000 C 
ATOM     16  N   UNL     1       2.884   7.021  18.669  0.00  0.00    +0.000 N 
ATOM     17  C   UNL     1       2.485   8.381  18.232  0.00  0.00    +0.000 C 
ATOM     18  C   UNL     1       2.112   9.268  19.454  0.00  0.00    +0.000 C 
BRANCH  16  19
ATOM     19  C   UNL     1       3.557   6.245  17.725  0.00  0.00    +0.000 A 
ATOM     20  C   UNL     1       3.428   4.850  17.632  0.00  0.00    +0.000 A 
ATOM     21  C   UNL     1       4.195   4.103  16.726  0.00  0.00    +0.000 A 
ATOM     22  C   UNL     1       5.099   4.755  15.897  0.00  0.00    +0.000 A 
ATOM     23  C   UNL     1       5.238   6.130  15.953  0.00  0.00    +0.000 A 
ATOM     24  C   UNL     1       4.468   6.866  16.856  0.00  0.00    +0.000 A 
BRANCH  22  25
ATOM     25  O   UNL     1       5.882   4.070  15.017  0.00  0.00    +0.000 OA
ATOM     26  H   UNL     1       5.420   4.020  14.165  0.00  0.00    +0.000 HD
ENDBRANCH  22  25
ENDBRANCH  16  19
ENDBRANCH   3  11
BRANCH   1  31
ATOM     27  C   UNL     1      -3.105  16.567  24.936  0.00  0.00    +0.000 C 
ATOM     28  C   UNL     1      -2.663  15.542  23.934  0.00  0.00    +0.000 A 
ATOM     29  C   UNL     1      -3.304  15.422  22.700  0.00  0.00    +0.000 A 
ATOM     30  C   UNL     1      -2.893  14.449  21.782  0.00  0.00    +0.000 A 
ATOM     31  C   UNL     1      -1.832  13.569  22.062  0.00  0.00    +0.000 A 
ATOM     32  C   UNL     1      -1.201  13.704  23.311  0.00  0.00    +0.000 A 
ATOM     33  C   UNL     1      -1.606  14.677  24.233  0.00  0.00    +0.000 A 
ENDBRANCH   1  31
TORSDOF 4
ENDMDL
MODEL 9
REMARK VINA RESULT:      -7.3      6.452      7.995
REMARK  Name = 
REMARK  5 active torsions:
REMARK  status: ('A' for Active; 'I' for Inactive)
REMARK    1  A    between atoms: C_1  and  C_2
REMARK    2  A    between atoms: C_5  and  C_6
REMARK    3  A    between atoms: C_8  and  C_9
REMARK    4  A    between atoms: N_14  and  C_15
REMARK    5  A    between atoms: C_18  and  O_19
REMARK                            x       y       z     vdW  Elec       q    Type
REMARK                         _______ _______ _______ _____ _____    ______ ____
ROOT
ATOM      1  C   UNL     1       1.025  14.137  20.308  0.00  0.00    +0.000 A 
ATOM      2  C   UNL     1       2.228  14.757  20.605  0.00  0.00    +0.000 A 
ATOM      3  C   UNL     1       2.521  16.002  20.023  0.00  0.00    +0.000 A 
ATOM      4  C   UNL     1       1.607  16.564  19.104  0.00  0.00    +0.000 A 
ATOM      5  C   UNL     1       1.857  17.682  18.280  0.00  0.00    +0.000 A 
ATOM      6  C   UNL     1       0.830  18.330  17.600  0.00  0.00    +0.000 A 
ATOM      7  C   UNL     1      -0.441  17.778  17.616  0.00  0.00    +0.000 A 
ATOM      8  C   UNL     1      -0.649  16.564  18.268  0.00  0.00    +0.000 A 
ATOM      9  C   UNL     1       0.354  15.944  19.005  0.00  0.00    +0.000 A 
ATOM     10  N   UNL     1       0.076  14.771  19.578  0.00  0.00    +0.000 NA
ENDROOT
BRANCH   3  11
ATOM     11  C   UNL     1       3.853  16.582  20.375  0.00  0.00    +0.000 C 
ATOM     12  O   UNL     1       3.867  17.364  21.320  0.00  0.00    +0.000 OA
ATOM     13  N   UNL     1       5.020  16.256  19.683  0.00  0.00    +0.000 N 
ATOM     14  C   UNL     1       6.299  16.720  20.240  0.00  0.00    +0.000 C 
ATOM     15  C   UNL     1       7.299  15.555  20.321  0.00  0.00    +0.000 C 
ATOM     16  N   UNL     1       7.495  14.986  18.972  0.00  0.00    +0.000 N 
ATOM     17  C   UNL     1       6.244  14.538  18.313  0.00  0.00    +0.000 C 
ATOM     18  C   UNL     1       5.171  15.664  18.338  0.00  0.00    +0.000 C 
BRANCH  16  19
ATOM     19  C   UNL     1       8.630  14.214  18.723  0.00  0.00    +0.000 A 
ATOM     20  C   UNL     1       9.888  14.477  19.291  0.00  0.00    +0.000 A 
ATOM     21  C   UNL     1      11.020  13.727  18.939  0.00  0.00    +0.000 A 
ATOM     22  C   UNL     1      10.897  12.700  18.012  0.00  0.00    +0.000 A 
ATOM     23  C   UNL     1       9.670  12.406  17.446  0.00  0.00    +0.000 A 
ATOM     24  C   UNL     1       8.547  13.156  17.805  0.00  0.00    +0.000 A 
BRANCH  22  25
ATOM     25  O   UNL     1      11.974  11.960  17.622  0.00  0.00    +0.000 OA
ATOM     26  H   UNL     1      12.411  12.414  16.885  0.00  0.00    +0.000 HD
ENDBRANCH  22  25
ENDBRANCH  16  19
ENDBRANCH   3  11
BRANCH   1  31
ATOM     27  C   UNL     1      -0.511   8.712  21.748  0.00  0.00    +0.000 C 
ATOM     28  C   UNL     1      -0.090  10.108  21.399  0.00  0.00    +0.000 A 
ATOM     29  C   UNL     1      -0.529  11.199  22.149  0.00  0.00    +0.000 A 
ATOM     30  C   UNL     1      -0.142  12.498  21.801  0.00  0.00    +0.000 A 
ATOM     31  C   UNL     1       0.695  12.750  20.699  0.00  0.00    +0.000 A 
ATOM     32  C   UNL     1       1.126  11.638  19.955  0.00  0.00    +0.000 A 
ATOM     33  C   UNL     1       0.743  10.336  20.300  0.00  0.00    +0.000 A 
ENDBRANCH   1  31
TORSDOF 4
ENDMDL
