MODEL 1
REMARK VINA RESULT:      -7.2      0.000      0.000
REMARK  Name = 
REMARK  7 active torsions:
REMARK  status: ('A' for Active; 'I' for Inactive)
REMARK    1  A    between atoms: C_1  and  C_2
REMARK    2  A    between atoms: C_2  and  C_3
REMARK    3  A    between atoms: C_3  and  C_4
REMARK    4  A    between atoms: C_4  and  C_5
REMARK    5  A    between atoms: C_5  and  N_6
REMARK    6  A    between atoms: N_6  and  C_7
REMARK    7  A    between atoms: C_12  and  C_13
REMARK                            x       y       z     vdW  Elec       q    Type
REMARK                         _______ _______ _______ _____ _____    ______ ____
ROOT
ATOM      1  C   UNL     1       7.815   7.225  17.888  0.00  0.00    +0.000 C 
ATOM      2  C   UNL     1       6.841   6.370  17.549  0.00  0.00    +0.000 C 
ATOM      3  C   UNL     1       5.543   6.834  17.003  0.00  0.00    +0.000 C 
ATOM      4  O   UNL     1       4.965   7.833  17.429  0.00  0.00    +0.000 OA
ATOM      5  C   UNL     1       5.016   6.059  15.826  0.00  0.00    +0.000 C 
ATOM      6  C   UNL     1       5.136   4.541  16.040  0.00  0.00    +0.000 C 
ATOM      7  C   UNL     1       6.592   4.153  16.338  0.00  0.00    +0.000 C 
ATOM      8  C   UNL     1       7.173   4.925  17.501  0.00  0.00    +0.000 C 
ATOM      9  O   UNL     1       7.947   4.404  18.300  0.00  0.00    +0.000 OA
ENDROOT
BRANCH   6  10
ATOM     10  C   UNL     1       4.101   4.029  17.038  0.00  0.00    +0.000 A 
ATOM     11  C   UNL     1       4.217   2.714  17.523  0.00  0.00    +0.000 A 
ATOM     12  C   UNL     1       3.275   2.186  18.412  0.00  0.00    +0.000 A 
ATOM     13  C   UNL     1       2.236   2.982  18.862  0.00  0.00    +0.000 A 
ATOM     14  C   UNL     1       2.112   4.294  18.420  0.00  0.00    +0.000 A 
ATOM     15  C   UNL     1       3.042   4.820  17.524  0.00  0.00    +0.000 A 
ENDBRANCH   6  10
BRANCH   1  16
ATOM     16  N   UNL     1       7.873   8.602  17.746  0.00  0.00    +0.000 N 
ATOM     17  H   UNL     1       6.939   9.009  17.830  0.00  0.00    +0.000 HD
BRANCH  16  18
ATOM     18  C   UNL     1       8.738   9.386  18.632  0.00  0.00    +0.000 C 
BRANCH  18  19
ATOM     19  C   UNL     1       8.850  10.784  18.048  0.00  0.00    +0.000 C 
BRANCH  19  20
ATOM     20  C   UNL     1      10.256  11.345  18.194  0.00  0.00    +0.000 C 
BRANCH  20  22
ATOM     21  C   UNL     1      11.477  12.607  19.989  0.00  0.00    +0.000 C 
ATOM     22  C   UNL     1      10.679  11.360  19.663  0.00  0.00    +0.000 C 
ENDBRANCH  20  22
ENDBRANCH  19  20
ENDBRANCH  18  19
ENDBRANCH  16  18
ENDBRANCH   1  16
TORSDOF 6
ENDMDL
MODEL 2
REMARK VINA RESULT:      -7.2      4.220      6.763
REMARK  Name = 
REMARK  7 active torsions:
REMARK  status: ('A' for Active; 'I' for Inactive)
REMARK    1  A    between atoms: C_1  and  C_2
REMARK    2  A    between atoms: C_2  and  C_3
REMARK    3  A    between atoms: C_3  and  C_4
REMARK    4  A    between atoms: C_4  and  C_5
REMARK    5  A    between atoms: C_5  and  N_6
REMARK    6  A    between atoms: N_6  and  C_7
REMARK    7  A    between atoms: C_12  and  C_13
REMARK                            x       y       z     vdW  Elec       q    Type
REMARK                         _______ _______ _______ _____ _____    ______ ____
ROOT
ATOM      1  C   UNL     1       4.534   3.097  20.147  0.00  0.00    +0.000 C 
ATOM      2  C   UNL     1       4.683   3.738  18.980  0.00  0.00    +0.000 C 
ATOM      3  C   UNL     1       3.726   3.567  17.862  0.00  0.00    +0.000 C 
ATOM      4  O   UNL     1       3.234   2.476  17.573  0.00  0.00    +0.000 OA
ATOM      5  C   UNL     1       3.316   4.829  17.154  0.00  0.00    +0.000 C 
ATOM      6  C   UNL     1       4.522   5.735  16.856  0.00  0.00    +0.000 C 
ATOM      7  C   UNL     1       5.284   6.060  18.149  0.00  0.00    +0.000 C 
ATOM      8  C   UNL     1       5.696   4.820  18.909  0.00  0.00    +0.000 C 
ATOM      9  O   UNL     1       6.768   4.753  19.506  0.00  0.00    +0.000 OA
ENDROOT
BRANCH   6  10
ATOM     10  C   UNL     1       5.371   5.186  15.712  0.00  0.00    +0.000 A 
ATOM     11  C   UNL     1       6.744   5.489  15.678  0.00  0.00    +0.000 A 
ATOM     12  C   UNL     1       7.558   5.039  14.634  0.00  0.00    +0.000 A 
ATOM     13  C   UNL     1       7.018   4.242  13.639  0.00  0.00    +0.000 A 
ATOM     14  C   UNL     1       5.671   3.904  13.662  0.00  0.00    +0.000 A 
ATOM     15  C   UNL     1       4.852   4.361  14.696  0.00  0.00    +0.000 A 
ENDBRANCH   6  10
BRANCH   1  16
ATOM     16  N   UNL     1       3.510   2.268  20.578  0.00  0.00    +0.000 N 
ATOM     17  H   UNL     1       3.889   1.384  20.923  0.00  0.00    +0.000 HD
BRANCH  16  18
ATOM     18  C   UNL     1       2.579   2.741  21.606  0.00  0.00    +0.000 C 
BRANCH  18  19
ATOM     19  C   UNL     1       1.200   2.826  20.973  0.00  0.00    +0.000 C 
BRANCH  19  20
ATOM     20  C   UNL     1       1.072   4.035  20.059  0.00  0.00    +0.000 C 
BRANCH  20  22
ATOM     21  C   UNL     1       2.195   6.281  20.054  0.00  0.00    +0.000 C 
ATOM     22  C   UNL     1       1.317   5.327  20.840  0.00  0.00    +0.000 C 
ENDBRANCH  20  22
ENDBRANCH  19  20
ENDBRANCH  18  19
ENDBRANCH  16  18
ENDBRANCH   1  16
TORSDOF 6
ENDMDL
MODEL 3
REMARK VINA RESULT:      -7.1      0.270      1.085
REMARK  Name = 
REMARK  7 active torsions:
REMARK  status: ('A' for Active; 'I' for Inactive)
REMARK    1  A    between atoms: C_1  and  C_2
REMARK    2  A    between atoms: C_2  and  C_3
REMARK    3  A    between atoms: C_3  and  C_4
REMARK    4  A    between atoms: C_4  and  C_5
REMARK    5  A    between atoms: C_5  and  N_6
REMARK    6  A    between atoms: N_6  and  C_7
REMARK    7  A    between atoms: C_12  and  C_13
REMARK                            x       y       z     vdW  Elec       q    Type
REMARK                         _______ _______ _______ _____ _____    ______ ____
ROOT
ATOM      1  C   UNL     1       7.823   7.250  17.906  0.00  0.00    +0.000 C 
ATOM      2  C   UNL     1       6.848   6.393  17.575  0.00  0.00    +0.000 C 
ATOM      3  C   UNL     1       5.540   6.855  17.054  0.00  0.00    +0.000 C 
ATOM      4  O   UNL     1       4.964   7.847  17.498  0.00  0.00    +0.000 OA
ATOM      5  C   UNL     1       4.998   6.087  15.880  0.00  0.00    +0.000 C 
ATOM      6  C   UNL     1       5.129   4.569  16.078  0.00  0.00    +0.000 C 
ATOM      7  C   UNL     1       6.591   4.185  16.350  0.00  0.00    +0.000 C 
ATOM      8  C   UNL     1       7.187   4.951  17.509  0.00  0.00    +0.000 C 
ATOM      9  O   UNL     1       7.977   4.427  18.292  0.00  0.00    +0.000 OA
ENDROOT
BRANCH   6  10
ATOM     10  C   UNL     1       4.112   4.042  17.088  0.00  0.00    +0.000 A 
ATOM     11  C   UNL     1       3.058   4.881  17.491  0.00  0.00    +0.000 A 
ATOM     12  C   UNL     1       2.120   4.460  18.439  0.00  0.00    +0.000 A 
ATOM     13  C   UNL     1       2.198   3.178  18.957  0.00  0.00    +0.000 A 
ATOM     14  C   UNL     1       3.214   2.318  18.556  0.00  0.00    +0.000 A 
ATOM     15  C   UNL     1       4.159   2.740  17.620  0.00  0.00    +0.000 A 
ENDBRANCH   6  10
BRANCH   1  16
ATOM     16  N   UNL     1       7.872   8.629  17.776  0.00  0.00    +0.000 N 
ATOM     17  H   UNL     1       6.939   9.031  17.889  0.00  0.00    +0.000 HD
BRANCH  16  18
ATOM     18  C   UNL     1       8.759   9.409  18.644  0.00  0.00    +0.000 C 
BRANCH  18  19
ATOM     19  C   UNL     1       8.823  10.821  18.087  0.00  0.00    +0.000 C 
BRANCH  19  20
ATOM     20  C   UNL     1      10.208  11.429  18.252  0.00  0.00    +0.000 C 
BRANCH  20  22
ATOM     21  C   UNL     1      10.518  12.356  20.564  0.00  0.00    +0.000 C 
ATOM     22  C   UNL     1      10.748  11.164  19.657  0.00  0.00    +0.000 C 
ENDBRANCH  20  22
ENDBRANCH  19  20
ENDBRANCH  18  19
ENDBRANCH  16  18
ENDBRANCH   1  16
TORSDOF 6
ENDMDL
MODEL 4
REMARK VINA RESULT:      -7.0      3.625      5.982
REMARK  Name = 
REMARK  7 active torsions:
REMARK  status: ('A' for Active; 'I' for Inactive)
REMARK    1  A    between atoms: C_1  and  C_2
REMARK    2  A    between atoms: C_2  and  C_3
REMARK    3  A    between atoms: C_3  and  C_4
REMARK    4  A    between atoms: C_4  and  C_5
REMARK    5  A    between atoms: C_5  and  N_6
REMARK    6  A    between atoms: N_6  and  C_7
REMARK    7  A    between atoms: C_12  and  C_13
REMARK                            x       y       z     vdW  Elec       q    Type
REMARK                         _______ _______ _______ _____ _____    ______ ____
ROOT
ATOM      1  C   UNL     1       7.133   5.591  17.178  0.00  0.00    +0.000 C 
ATOM      2  C   UNL     1       5.897   5.595  17.695  0.00  0.00    +0.000 C 
ATOM      3  C   UNL     1       4.693   5.781  16.852  0.00  0.00    +0.000 C 
ATOM      4  O   UNL     1       4.656   6.581  15.917  0.00  0.00    +0.000 OA
ATOM      5  C   UNL     1       3.539   4.862  17.149  0.00  0.00    +0.000 C 
ATOM      6  C   UNL     1       3.275   4.746  18.659  0.00  0.00    +0.000 C 
ATOM      7  C   UNL     1       4.542   4.284  19.394  0.00  0.00    +0.000 C 
ATOM      8  C   UNL     1       5.736   5.165  19.106  0.00  0.00    +0.000 C 
ATOM      9  O   UNL     1       6.568   5.429  19.970  0.00  0.00    +0.000 OA
ENDROOT
BRANCH   6  10
ATOM     10  C   UNL     1       2.615   6.005  19.214  0.00  0.00    +0.000 A 
ATOM     11  C   UNL     1       2.526   7.144  18.394  0.00  0.00    +0.000 A 
ATOM     12  C   UNL     1       1.962   8.334  18.866  0.00  0.00    +0.000 A 
ATOM     13  C   UNL     1       1.436   8.381  20.147  0.00  0.00    +0.000 A 
ATOM     14  C   UNL     1       1.484   7.262  20.969  0.00  0.00    +0.000 A 
ATOM     15  C   UNL     1       2.058   6.078  20.506  0.00  0.00    +0.000 A 
ENDBRANCH   6  10
BRANCH   1  16
ATOM     16  N   UNL     1       7.539   5.667  15.855  0.00  0.00    +0.000 N 
ATOM     17  H   UNL     1       8.492   6.031  15.795  0.00  0.00    +0.000 HD
BRANCH  16  18
ATOM     18  C   UNL     1       7.509   4.465  15.017  0.00  0.00    +0.000 C 
BRANCH  18  19
ATOM     19  C   UNL     1       6.774   4.817  13.734  0.00  0.00    +0.000 C 
BRANCH  19  20
ATOM     20  C   UNL     1       5.571   3.914  13.507  0.00  0.00    +0.000 C 
BRANCH  20  22
ATOM     21  C   UNL     1       4.288   3.269  11.448  0.00  0.00    +0.000 C 
ATOM     22  C   UNL     1       5.643   3.258  12.129  0.00  0.00    +0.000 C 
ENDBRANCH  20  22
ENDBRANCH  19  20
ENDBRANCH  18  19
ENDBRANCH  16  18
ENDBRANCH   1  16
TORSDOF 6
ENDMDL
MODEL 5
REMARK VINA RESULT:      -6.9      3.754      6.032
REMARK  Name = 
REMARK  7 active torsions:
REMARK  status: ('A' for Active; 'I' for Inactive)
REMARK    1  A    between atoms: C_1  and  C_2
REMARK    2  A    between atoms: C_2  and  C_3
REMARK    3  A    between atoms: C_3  and  C_4
REMARK    4  A    between atoms: C_4  and  C_5
REMARK    5  A    between atoms: C_5  and  N_6
REMARK    6  A    between atoms: N_6  and  C_7
REMARK    7  A    between atoms: C_12  and  C_13
REMARK                            x       y       z     vdW  Elec       q    Type
REMARK                         _______ _______ _______ _____ _____    ______ ____
ROOT
ATOM      1  C   UNL     1       7.149   5.328  17.074  0.00  0.00    +0.000 C 
ATOM      2  C   UNL     1       5.916   5.420  17.591  0.00  0.00    +0.000 C 
ATOM      3  C   UNL     1       4.717   5.590  16.737  0.00  0.00    +0.000 C 
ATOM      4  O   UNL     1       4.708   6.319  15.746  0.00  0.00    +0.000 OA
ATOM      5  C   UNL     1       3.529   4.743  17.103  0.00  0.00    +0.000 C 
ATOM      6  C   UNL     1       3.266   4.749  18.618  0.00  0.00    +0.000 C 
ATOM      7  C   UNL     1       4.517   4.293  19.384  0.00  0.00    +0.000 C 
ATOM      8  C   UNL     1       5.744   5.102  19.030  0.00  0.00    +0.000 C 
ATOM      9  O   UNL     1       6.589   5.396  19.871  0.00  0.00    +0.000 OA
ENDROOT
BRANCH   6  10
ATOM     10  C   UNL     1       2.659   6.072  19.079  0.00  0.00    +0.000 A 
ATOM     11  C   UNL     1       2.144   6.166  20.384  0.00  0.00    +0.000 A 
ATOM     12  C   UNL     1       1.547   7.344  20.843  0.00  0.00    +0.000 A 
ATOM     13  C   UNL     1       1.501   8.455  20.019  0.00  0.00    +0.000 A 
ATOM     14  C   UNL     1       2.026   8.400  18.733  0.00  0.00    +0.000 A 
ATOM     15  C   UNL     1       2.612   7.222  18.267  0.00  0.00    +0.000 A 
ENDBRANCH   6  10
BRANCH   1  16
ATOM     16  N   UNL     1       7.552   5.289  15.748  0.00  0.00    +0.000 N 
ATOM     17  H   UNL     1       8.572   5.323  15.685  0.00  0.00    +0.000 HD
BRANCH  16  18
ATOM     18  C   UNL     1       7.129   4.176  14.894  0.00  0.00    +0.000 C 
BRANCH  18  19
ATOM     19  C   UNL     1       6.974   4.713  13.481  0.00  0.00    +0.000 C 
BRANCH  19  20
ATOM     20  C   UNL     1       6.413   3.661  12.536  0.00  0.00    +0.000 C 
BRANCH  20  22
ATOM     21  C   UNL     1       4.299   3.165  11.276  0.00  0.00    +0.000 C 
ATOM     22  C   UNL     1       4.886   3.654  12.586  0.00  0.00    +0.000 C 
ENDBRANCH  20  22
ENDBRANCH  19  20
ENDBRANCH  18  19
ENDBRANCH  16  18
ENDBRANCH   1  16
TORSDOF 6
ENDMDL
MODEL 6
REMARK VINA RESULT:      -6.8      3.720      6.810
REMARK  Name = 
REMARK  7 active torsions:
REMARK  status: ('A' for Active; 'I' for Inactive)
REMARK    1  A    between atoms: C_1  and  C_2
REMARK    2  A    between atoms: C_2  and  C_3
REMARK    3  A    between atoms: C_3  and  C_4
REMARK    4  A    between atoms: C_4  and  C_5
REMARK    5  A    between atoms: C_5  and  N_6
REMARK    6  A    between atoms: N_6  and  C_7
REMARK    7  A    between atoms: C_12  and  C_13
REMARK                            x       y       z     vdW  Elec       q    Type
REMARK                         _______ _______ _______ _____ _____    ______ ____
ROOT
ATOM      1  C   UNL     1       5.640   3.884  19.079  0.00  0.00    +0.000 C 
ATOM      2  C   UNL     1       5.818   4.340  17.832  0.00  0.00    +0.000 C 
ATOM      3  C   UNL     1       4.677   4.693  16.955  0.00  0.00    +0.000 C 
ATOM      4  O   UNL     1       3.642   4.028  16.914  0.00  0.00    +0.000 OA
ATOM      5  C   UNL     1       4.821   5.975  16.181  0.00  0.00    +0.000 C 
ATOM      6  C   UNL     1       6.211   6.101  15.536  0.00  0.00    +0.000 C 
ATOM      7  C   UNL     1       7.312   5.982  16.601  0.00  0.00    +0.000 C 
ATOM      8  C   UNL     1       7.192   4.718  17.422  0.00  0.00    +0.000 C 
ATOM      9  O   UNL     1       8.183   4.098  17.801  0.00  0.00    +0.000 OA
ENDROOT
BRANCH   6  10
ATOM     10  C   UNL     1       6.359   5.175  14.331  0.00  0.00    +0.000 A 
ATOM     11  C   UNL     1       7.509   5.283  13.529  0.00  0.00    +0.000 A 
ATOM     12  C   UNL     1       7.677   4.483  12.394  0.00  0.00    +0.000 A 
ATOM     13  C   UNL     1       6.720   3.534  12.077  0.00  0.00    +0.000 A 
ATOM     14  C   UNL     1       5.586   3.387  12.868  0.00  0.00    +0.000 A 
ATOM     15  C   UNL     1       5.409   4.192  13.994  0.00  0.00    +0.000 A 
ENDBRANCH   6  10
BRANCH   1  16
ATOM     16  N   UNL     1       4.471   3.729  19.807  0.00  0.00    +0.000 N 
ATOM     17  H   UNL     1       3.689   4.176  19.325  0.00  0.00    +0.000 HD
BRANCH  16  18
ATOM     18  C   UNL     1       4.013   2.383  20.165  0.00  0.00    +0.000 C 
BRANCH  18  19
ATOM     19  C   UNL     1       2.568   2.254  19.713  0.00  0.00    +0.000 C 
BRANCH  19  20
ATOM     20  C   UNL     1       1.600   2.774  20.766  0.00  0.00    +0.000 C 
BRANCH  20  22
ATOM     21  C   UNL     1       1.623   5.284  20.708  0.00  0.00    +0.000 C 
ATOM     22  C   UNL     1       0.889   4.032  20.267  0.00  0.00    +0.000 C 
ENDBRANCH  20  22
ENDBRANCH  19  20
ENDBRANCH  18  19
ENDBRANCH  16  18
ENDBRANCH   1  16
TORSDOF 6
ENDMDL
MODEL 7
REMARK VINA RESULT:      -6.8      0.946      1.115
REMARK  Name = 
REMARK  7 active torsions:
REMARK  status: ('A' for Active; 'I' for Inactive)
REMARK    1  A    between atoms: C_1  and  C_2
REMARK    2  A    between atoms: C_2  and  C_3
REMARK    3  A    between atoms: C_3  and  C_4
REMARK    4  A    between atoms: C_4  and  C_5
REMARK    5  A    between atoms: C_5  and  N_6
REMARK    6  A    between atoms: N_6  and  C_7
REMARK    7  A    between atoms: C_12  and  C_13
REMARK                            x       y       z     vdW  Elec       q    Type
REMARK                         _______ _______ _______ _____ _____    ______ ____
ROOT
ATOM      1  C   UNL     1       8.111   7.448  18.179  0.00  0.00    +0.000 C 
ATOM      2  C   UNL     1       7.155   6.572  17.841  0.00  0.00    +0.000 C 
ATOM      3  C   UNL     1       5.885   7.000  17.209  0.00  0.00    +0.000 C 
ATOM      4  O   UNL     1       5.285   8.019  17.552  0.00  0.00    +0.000 OA
ATOM      5  C   UNL     1       5.416   6.161  16.052  0.00  0.00    +0.000 C 
ATOM      6  C   UNL     1       5.528   4.658  16.353  0.00  0.00    +0.000 C 
ATOM      7  C   UNL     1       6.969   4.292  16.741  0.00  0.00    +0.000 C 
ATOM      8  C   UNL     1       7.493   5.128  17.886  0.00  0.00    +0.000 C 
ATOM      9  O   UNL     1       8.228   4.655  18.749  0.00  0.00    +0.000 OA
ENDROOT
BRANCH   6  10
ATOM     10  C   UNL     1       4.447   4.195  17.326  0.00  0.00    +0.000 A 
ATOM     11  C   UNL     1       4.821   3.816  18.628  0.00  0.00    +0.000 A 
ATOM     12  C   UNL     1       3.874   3.353  19.547  0.00  0.00    +0.000 A 
ATOM     13  C   UNL     1       2.537   3.310  19.189  0.00  0.00    +0.000 A 
ATOM     14  C   UNL     1       2.135   3.705  17.919  0.00  0.00    +0.000 A 
ATOM     15  C   UNL     1       3.079   4.156  16.995  0.00  0.00    +0.000 A 
ENDBRANCH   6  10
BRANCH   1  16
ATOM     16  N   UNL     1       8.173   8.816  17.967  0.00  0.00    +0.000 N 
ATOM     17  H   UNL     1       7.232   9.211  17.905  0.00  0.00    +0.000 HD
BRANCH  16  18
ATOM     18  C   UNL     1       8.909   9.664  18.910  0.00  0.00    +0.000 C 
BRANCH  18  19
ATOM     19  C   UNL     1       9.410  10.877  18.144  0.00  0.00    +0.000 C 
BRANCH  19  20
ATOM     20  C   UNL     1      10.620  11.508  18.818  0.00  0.00    +0.000 C 
BRANCH  20  22
ATOM     21  C   UNL     1      10.909  13.115  16.911  0.00  0.00    +0.000 C 
ATOM     22  C   UNL     1      11.585  12.068  17.773  0.00  0.00    +0.000 C 
ENDBRANCH  20  22
ENDBRANCH  19  20
ENDBRANCH  18  19
ENDBRANCH  16  18
ENDBRANCH   1  16
TORSDOF 6
ENDMDL
MODEL 8
REMARK VINA RESULT:      -6.7      3.786      6.992
REMARK  Name = 
REMARK  7 active torsions:
REMARK  status: ('A' for Active; 'I' for Inactive)
REMARK    1  A    between atoms: C_1  and  C_2
REMARK    2  A    between atoms: C_2  and  C_3
REMARK    3  A    between atoms: C_3  and  C_4
REMARK    4  A    between atoms: C_4  and  C_5
REMARK    5  A    between atoms: C_5  and  N_6
REMARK    6  A    between atoms: N_6  and  C_7
REMARK    7  A    between atoms: C_12  and  C_13
REMARK                            x       y       z     vdW  Elec       q    Type
REMARK                         _______ _______ _______ _____ _____    ______ ____
ROOT
ATOM      1  C   UNL     1       5.292   3.799  19.207  0.00  0.00    +0.000 C 
ATOM      2  C   UNL     1       5.509   4.292  17.981  0.00  0.00    +0.000 C 
ATOM      3  C   UNL     1       4.400   4.576  17.040  0.00  0.00    +0.000 C 
ATOM      4  O   UNL     1       3.425   3.834  16.924  0.00  0.00    +0.000 OA
ATOM      5  C   UNL     1       4.491   5.881  16.298  0.00  0.00    +0.000 C 
ATOM      6  C   UNL     1       5.904   6.126  15.744  0.00  0.00    +0.000 C 
ATOM      7  C   UNL     1       6.943   6.070  16.873  0.00  0.00    +0.000 C 
ATOM      8  C   UNL     1       6.873   4.783  17.664  0.00  0.00    +0.000 C 
ATOM      9  O   UNL     1       7.883   4.233  18.095  0.00  0.00    +0.000 OA
ENDROOT
BRANCH   6  10
ATOM     10  C   UNL     1       6.197   5.241  14.535  0.00  0.00    +0.000 A 
ATOM     11  C   UNL     1       7.434   5.373  13.880  0.00  0.00    +0.000 A 
ATOM     12  C   UNL     1       7.738   4.610  12.748  0.00  0.00    +0.000 A 
ATOM     13  C   UNL     1       6.828   3.673  12.288  0.00  0.00    +0.000 A 
ATOM     14  C   UNL     1       5.609   3.502  12.933  0.00  0.00    +0.000 A 
ATOM     15  C   UNL     1       5.297   4.270  14.055  0.00  0.00    +0.000 A 
ENDBRANCH   6  10
BRANCH   1  16
ATOM     16  N   UNL     1       4.096   3.539  19.858  0.00  0.00    +0.000 N 
ATOM     17  H   UNL     1       4.261   2.974  20.694  0.00  0.00    +0.000 HD
BRANCH  16  18
ATOM     18  C   UNL     1       3.244   4.654  20.282  0.00  0.00    +0.000 C 
BRANCH  18  19
ATOM     19  C   UNL     1       2.356   4.152  21.408  0.00  0.00    +0.000 C 
BRANCH  19  20
ATOM     20  C   UNL     1       1.598   2.895  21.011  0.00  0.00    +0.000 C 
BRANCH  20  22
ATOM     21  C   UNL     1       0.828   2.254  18.709  0.00  0.00    +0.000 C 
ATOM     22  C   UNL     1       0.615   3.194  19.879  0.00  0.00    +0.000 C 
ENDBRANCH  20  22
ENDBRANCH  19  20
ENDBRANCH  18  19
ENDBRANCH  16  18
ENDBRANCH   1  16
TORSDOF 6
ENDMDL
MODEL 9
REMARK VINA RESULT:      -6.7      3.784      6.941
REMARK  Name = 
REMARK  7 active torsions:
REMARK  status: ('A' for Active; 'I' for Inactive)
REMARK    1  A    between atoms: C_1  and  C_2
REMARK    2  A    between atoms: C_2  and  C_3
REMARK    3  A    between atoms: C_3  and  C_4
REMARK    4  A    between atoms: C_4  and  C_5
REMARK    5  A    between atoms: C_5  and  N_6
REMARK    6  A    between atoms: N_6  and  C_7
REMARK    7  A    between atoms: C_12  and  C_13
REMARK                            x       y       z     vdW  Elec       q    Type
REMARK                         _______ _______ _______ _____ _____    ______ ____
ROOT
ATOM      1  C   UNL     1       5.826   4.733  14.138  0.00  0.00    +0.000 C 
ATOM      2  C   UNL     1       5.576   4.969  15.433  0.00  0.00    +0.000 C 
ATOM      3  C   UNL     1       5.707   3.912  16.463  0.00  0.00    +0.000 C 
ATOM      4  O   UNL     1       5.350   2.751  16.269  0.00  0.00    +0.000 OA
ATOM      5  C   UNL     1       6.393   4.324  17.737  0.00  0.00    +0.000 C 
ATOM      6  C   UNL     1       5.886   5.682  18.247  0.00  0.00    +0.000 C 
ATOM      7  C   UNL     1       6.052   6.761  17.166  0.00  0.00    +0.000 C 
ATOM      8  C   UNL     1       5.398   6.379  15.858  0.00  0.00    +0.000 C 
ATOM      9  O   UNL     1       4.835   7.211  15.150  0.00  0.00    +0.000 OA
ENDROOT
BRANCH   6  10
ATOM     10  C   UNL     1       4.489   5.570  18.854  0.00  0.00    +0.000 A 
ATOM     11  C   UNL     1       4.178   4.444  19.638  0.00  0.00    +0.000 A 
ATOM     12  C   UNL     1       2.903   4.277  20.189  0.00  0.00    +0.000 A 
ATOM     13  C   UNL     1       1.942   5.256  20.002  0.00  0.00    +0.000 A 
ATOM     14  C   UNL     1       2.231   6.392  19.255  0.00  0.00    +0.000 A 
ATOM     15  C   UNL     1       3.498   6.556  18.693  0.00  0.00    +0.000 A 
ENDBRANCH   6  10
BRANCH   1  16
ATOM     16  N   UNL     1       6.300   3.586  13.522  0.00  0.00    +0.000 N 
ATOM     17  H   UNL     1       5.802   2.764  13.870  0.00  0.00    +0.000 HD
BRANCH  16  18
ATOM     18  C   UNL     1       6.279   3.486  12.059  0.00  0.00    +0.000 C 
BRANCH  18  19
ATOM     19  C   UNL     1       5.497   2.235  11.695  0.00  0.00    +0.000 C 
BRANCH  19  20
ATOM     20  C   UNL     1       4.089   2.568  11.224  0.00  0.00    +0.000 C 
BRANCH  20  22
ATOM     21  C   UNL     1       2.979   4.153   9.624  0.00  0.00    +0.000 C 
ATOM     22  C   UNL     1       4.018   4.009  10.718  0.00  0.00    +0.000 C 
ENDBRANCH  20  22
ENDBRANCH  19  20
ENDBRANCH  18  19
ENDBRANCH  16  18
ENDBRANCH   1  16
TORSDOF 6
ENDMDL
