MODEL 1
REMARK VINA RESULT:      -7.2      0.000      0.000
REMARK  Name = 
REMARK  5 active torsions:
REMARK  status: ('A' for Active; 'I' for Inactive)
REMARK    1  A    between atoms: C_1  and  N_2
REMARK    2  A    between atoms: C_3  and  C_5
REMARK    3  A    between atoms: C_5  and  O_6
REMARK    4  A    between atoms: C_5  and  C_14
REMARK    5  A    between atoms: O_6  and  C_7
REMARK                            x       y       z     vdW  Elec       q    Type
REMARK                         _______ _______ _______ _____ _____    ______ ____
ROOT
ATOM      1  C   UNL     1       6.006   4.582  16.575  0.00  0.00    +0.000 C 
ENDROOT
BRANCH   1   4
ATOM      2  C   UNL     1       8.091   7.182  18.486  0.00  0.00    +0.000 C 
ATOM      3  N   UNL     1       7.137   6.526  17.631  0.00  0.00    +0.000 N 
ATOM      4  C   UNL     1       7.101   5.153  17.506  0.00  0.00    +0.000 C 
ATOM      5  O   UNL     1       7.882   4.413  18.108  0.00  0.00    +0.000 OA
ATOM      6  H   UNL     1       6.470   7.081  17.101  0.00  0.00    +0.000 HD
ENDBRANCH   1   4
BRANCH   1   7
ATOM      7  C   UNL     1       6.508   4.636  15.158  0.00  0.00    +0.000 A 
ATOM      8  C   UNL     1       6.061   3.858  14.101  0.00  0.00    +0.000 A 
ATOM      9  S   UNL     1       6.995   4.272  12.724  0.00  0.00    +0.000 S 
ATOM     10  N   UNL     1       7.880   5.421  13.555  0.00  0.00    +0.000 NA
ATOM     11  N   UNL     1       7.524   5.528  14.824  0.00  0.00    +0.000 NA
ENDBRANCH   1   7
BRANCH   1  12
ATOM     12  O   UNL     1       4.738   5.236  16.687  0.00  0.00    +0.000 OA
BRANCH  12  13
ATOM     13  C   UNL     1       3.714   4.506  17.240  0.00  0.00    +0.000 A 
ATOM     14  C   UNL     1       3.597   3.116  17.112  0.00  0.00    +0.000 A 
ATOM     15  C   UNL     1       2.571   2.424  17.760  0.00  0.00    +0.000 A 
ATOM     16  C   UNL     1       1.658   3.105  18.554  0.00  0.00    +0.000 A 
ATOM     17  C   UNL     1       1.753   4.490  18.685  0.00  0.00    +0.000 A 
ATOM     18  C   UNL     1       2.773   5.187  18.027  0.00  0.00    +0.000 A 
ATOM     19 BR   UNL     1       2.802   7.079  18.195  0.00  0.00    +0.000 Br
ENDBRANCH  12  13
ENDBRANCH   1  12
TORSDOF 4
ENDMDL
MODEL 2
REMARK VINA RESULT:      -7.0      1.662      1.782
REMARK  Name = 
REMARK  5 active torsions:
REMARK  status: ('A' for Active; 'I' for Inactive)
REMARK    1  A    between atoms: C_1  and  N_2
REMARK    2  A    between atoms: C_3  and  C_5
REMARK    3  A    between atoms: C_5  and  O_6
REMARK    4  A    between atoms: C_5  and  C_14
REMARK    5  A    between atoms: O_6  and  C_7
REMARK                            x       y       z     vdW  Elec       q    Type
REMARK                         _______ _______ _______ _____ _____    ______ ____
ROOT
ATOM      1  C   UNL     1       6.065   5.690  17.597  0.00  0.00    +0.000 C 
ENDROOT
BRANCH   1   4
ATOM      2  C   UNL     1       8.182   8.892  17.768  0.00  0.00    +0.000 C 
ATOM      3  N   UNL     1       7.197   7.896  17.435  0.00  0.00    +0.000 N 
ATOM      4  C   UNL     1       7.199   6.649  18.027  0.00  0.00    +0.000 C 
ATOM      5  O   UNL     1       8.042   6.315  18.861  0.00  0.00    +0.000 OA
ATOM      6  H   UNL     1       6.478   8.108  16.749  0.00  0.00    +0.000 HD
ENDBRANCH   1   4
BRANCH   1   7
ATOM      7  C   UNL     1       6.337   5.229  16.191  0.00  0.00    +0.000 A 
ATOM      8  C   UNL     1       5.578   4.324  15.465  0.00  0.00    +0.000 A 
ATOM      9  S   UNL     1       6.347   4.106  13.948  0.00  0.00    +0.000 S 
ATOM     10  N   UNL     1       7.569   5.189  14.307  0.00  0.00    +0.000 NA
ATOM     11  N   UNL     1       7.448   5.723  15.510  0.00  0.00    +0.000 NA
ENDBRANCH   1   7
BRANCH   1  12
ATOM     12  O   UNL     1       4.751   6.246  17.702  0.00  0.00    +0.000 OA
BRANCH  12  13
ATOM     13  C   UNL     1       3.914   5.680  18.632  0.00  0.00    +0.000 A 
ATOM     14  C   UNL     1       4.143   4.430  19.221  0.00  0.00    +0.000 A 
ATOM     15  C   UNL     1       3.291   3.943  20.215  0.00  0.00    +0.000 A 
ATOM     16  C   UNL     1       2.209   4.700  20.645  0.00  0.00    +0.000 A 
ATOM     17  C   UNL     1       1.959   5.942  20.063  0.00  0.00    +0.000 A 
ATOM     18  C   UNL     1       2.805   6.427  19.058  0.00  0.00    +0.000 A 
ATOM     19 BR   UNL     1       2.367   8.096  18.264  0.00  0.00    +0.000 Br
ENDBRANCH  12  13
ENDBRANCH   1  12
TORSDOF 4
ENDMDL
MODEL 3
REMARK VINA RESULT:      -6.8      1.118      1.149
REMARK  Name = 
REMARK  5 active torsions:
REMARK  status: ('A' for Active; 'I' for Inactive)
REMARK    1  A    between atoms: C_1  and  N_2
REMARK    2  A    between atoms: C_3  and  C_5
REMARK    3  A    between atoms: C_5  and  O_6
REMARK    4  A    between atoms: C_5  and  C_14
REMARK    5  A    between atoms: O_6  and  C_7
REMARK                            x       y       z     vdW  Elec       q    Type
REMARK                         _______ _______ _______ _____ _____    ______ ____
ROOT
ATOM      1  C   UNL     1       6.076   4.576  17.136  0.00  0.00    +0.000 C 
ENDROOT
BRANCH   1   4
ATOM      2  C   UNL     1       8.208   7.451  18.535  0.00  0.00    +0.000 C 
ATOM      3  N   UNL     1       7.227   6.666  17.832  0.00  0.00    +0.000 N 
ATOM      4  C   UNL     1       7.202   5.289  17.921  0.00  0.00    +0.000 C 
ATOM      5  O   UNL     1       8.016   4.656  18.596  0.00  0.00    +0.000 OA
ATOM      6  H   UNL     1       6.532   7.129  17.253  0.00  0.00    +0.000 HD
ENDBRANCH   1   4
BRANCH   1   7
ATOM      7  C   UNL     1       6.437   4.578  15.677  0.00  0.00    +0.000 A 
ATOM      8  C   UNL     1       5.865   3.789  14.691  0.00  0.00    +0.000 A 
ATOM      9  S   UNL     1       6.669   4.139  13.218  0.00  0.00    +0.000 S 
ATOM     10  N   UNL     1       7.665   5.281  13.925  0.00  0.00    +0.000 NA
ATOM     11  N   UNL     1       7.440   5.431  15.219  0.00  0.00    +0.000 NA
ENDBRANCH   1   7
BRANCH   1  12
ATOM     12  O   UNL     1       4.775   5.135  17.337  0.00  0.00    +0.000 OA
BRANCH  12  13
ATOM     13  C   UNL     1       4.041   4.631  18.384  0.00  0.00    +0.000 A 
ATOM     14  C   UNL     1       4.229   3.349  18.915  0.00  0.00    +0.000 A 
ATOM     15  C   UNL     1       3.500   2.925  20.028  0.00  0.00    +0.000 A 
ATOM     16  C   UNL     1       2.586   3.776  20.635  0.00  0.00    +0.000 A 
ATOM     17  C   UNL     1       2.379   5.053  20.114  0.00  0.00    +0.000 A 
ATOM     18  C   UNL     1       3.099   5.476  18.991  0.00  0.00    +0.000 A 
ATOM     19 BR   UNL     1       2.718   7.202  18.295  0.00  0.00    +0.000 Br
ENDBRANCH  12  13
ENDBRANCH   1  12
TORSDOF 4
ENDMDL
MODEL 4
REMARK VINA RESULT:      -6.7      1.583      1.831
REMARK  Name = 
REMARK  5 active torsions:
REMARK  status: ('A' for Active; 'I' for Inactive)
REMARK    1  A    between atoms: C_1  and  N_2
REMARK    2  A    between atoms: C_3  and  C_5
REMARK    3  A    between atoms: C_5  and  O_6
REMARK    4  A    between atoms: C_5  and  C_14
REMARK    5  A    between atoms: O_6  and  C_7
REMARK                            x       y       z     vdW  Elec       q    Type
REMARK                         _______ _______ _______ _____ _____    ______ ____
ROOT
ATOM      1  C   UNL     1       4.668   4.069  17.393  0.00  0.00    +0.000 C 
ENDROOT
BRANCH   1   4
ATOM      2  C   UNL     1       7.481   5.738  19.408  0.00  0.00    +0.000 C 
ATOM      3  N   UNL     1       6.541   5.367  18.383  0.00  0.00    +0.000 N 
ATOM      4  C   UNL     1       5.637   4.341  18.567  0.00  0.00    +0.000 C 
ATOM      5  O   UNL     1       5.587   3.682  19.608  0.00  0.00    +0.000 OA
ATOM      6  H   UNL     1       6.537   5.867  17.498  0.00  0.00    +0.000 HD
ENDBRANCH   1   4
BRANCH   1   7
ATOM      7  C   UNL     1       5.361   4.429  16.108  0.00  0.00    +0.000 A 
ATOM      8  C   UNL     1       6.042   3.558  15.273  0.00  0.00    +0.000 A 
ATOM      9  S   UNL     1       6.689   4.480  13.981  0.00  0.00    +0.000 S 
ATOM     10  N   UNL     1       6.041   5.910  14.554  0.00  0.00    +0.000 NA
ATOM     11  N   UNL     1       5.355   5.753  15.673  0.00  0.00    +0.000 NA
ENDBRANCH   1   7
BRANCH   1  12
ATOM     12  O   UNL     1       3.412   4.747  17.497  0.00  0.00    +0.000 OA
BRANCH  12  13
ATOM     13  C   UNL     1       2.458   4.159  18.292  0.00  0.00    +0.000 A 
ATOM     14  C   UNL     1       1.980   2.857  18.094  0.00  0.00    +0.000 A 
ATOM     15  C   UNL     1       1.062   2.292  18.982  0.00  0.00    +0.000 A 
ATOM     16  C   UNL     1       0.619   3.010  20.086  0.00  0.00    +0.000 A 
ATOM     17  C   UNL     1       1.076   4.311  20.293  0.00  0.00    +0.000 A 
ATOM     18  C   UNL     1       1.987   4.884  19.398  0.00  0.00    +0.000 A 
ATOM     19 BR   UNL     1       2.516   6.682  19.705  0.00  0.00    +0.000 Br
ENDBRANCH  12  13
ENDBRANCH   1  12
TORSDOF 4
ENDMDL
MODEL 5
REMARK VINA RESULT:      -6.7      1.140      1.153
REMARK  Name = 
REMARK  5 active torsions:
REMARK  status: ('A' for Active; 'I' for Inactive)
REMARK    1  A    between atoms: C_1  and  N_2
REMARK    2  A    between atoms: C_3  and  C_5
REMARK    3  A    between atoms: C_5  and  O_6
REMARK    4  A    between atoms: C_5  and  C_14
REMARK    5  A    between atoms: O_6  and  C_7
REMARK                            x       y       z     vdW  Elec       q    Type
REMARK                         _______ _______ _______ _____ _____    ______ ____
ROOT
ATOM      1  C   UNL     1       5.616   4.380  16.768  0.00  0.00    +0.000 C 
ENDROOT
BRANCH   1   4
ATOM      2  C   UNL     1       8.050   5.654  19.454  0.00  0.00    +0.000 C 
ATOM      3  N   UNL     1       7.329   4.844  18.507  0.00  0.00    +0.000 N 
ATOM      4  C   UNL     1       6.280   5.354  17.769  0.00  0.00    +0.000 C 
ATOM      5  O   UNL     1       5.897   6.520  17.882  0.00  0.00    +0.000 OA
ATOM      6  H   UNL     1       7.592   3.872  18.372  0.00  0.00    +0.000 HD
ENDBRANCH   1   4
BRANCH   1   7
ATOM      7  C   UNL     1       6.279   4.547  15.428  0.00  0.00    +0.000 A 
ATOM      8  C   UNL     1       5.909   3.922  14.248  0.00  0.00    +0.000 A 
ATOM      9  S   UNL     1       7.018   4.410  13.035  0.00  0.00    +0.000 S 
ATOM     10  N   UNL     1       7.871   5.396  14.080  0.00  0.00    +0.000 NA
ATOM     11  N   UNL     1       7.380   5.393  15.308  0.00  0.00    +0.000 NA
ENDBRANCH   1   7
BRANCH   1  12
ATOM     12  O   UNL     1       4.198   4.531  16.652  0.00  0.00    +0.000 OA
BRANCH  12  13
ATOM     13  C   UNL     1       3.429   3.856  17.570  0.00  0.00    +0.000 A 
ATOM     14  C   UNL     1       3.456   2.465  17.728  0.00  0.00    +0.000 A 
ATOM     15  C   UNL     1       2.703   1.847  18.729  0.00  0.00    +0.000 A 
ATOM     16  C   UNL     1       1.925   2.608  19.594  0.00  0.00    +0.000 A 
ATOM     17  C   UNL     1       1.879   3.993  19.444  0.00  0.00    +0.000 A 
ATOM     18  C   UNL     1       2.624   4.614  18.434  0.00  0.00    +0.000 A 
ATOM     19 BR   UNL     1       2.461   6.497  18.246  0.00  0.00    +0.000 Br
ENDBRANCH  12  13
ENDBRANCH   1  12
TORSDOF 4
ENDMDL
MODEL 6
REMARK VINA RESULT:      -6.4      1.630      1.799
REMARK  Name = 
REMARK  5 active torsions:
REMARK  status: ('A' for Active; 'I' for Inactive)
REMARK    1  A    between atoms: C_1  and  N_2
REMARK    2  A    between atoms: C_3  and  C_5
REMARK    3  A    between atoms: C_5  and  O_6
REMARK    4  A    between atoms: C_5  and  C_14
REMARK    5  A    between atoms: O_6  and  C_7
REMARK                            x       y       z     vdW  Elec       q    Type
REMARK                         _______ _______ _______ _____ _____    ______ ____
ROOT
ATOM      1  C   UNL     1       6.044   4.797  18.526  0.00  0.00    +0.000 C 
ENDROOT
BRANCH   1   4
ATOM      2  C   UNL     1       8.491   7.757  18.667  0.00  0.00    +0.000 C 
ATOM      3  N   UNL     1       7.478   6.811  18.276  0.00  0.00    +0.000 N 
ATOM      4  C   UNL     1       7.173   5.713  19.054  0.00  0.00    +0.000 C 
ATOM      5  O   UNL     1       7.751   5.475  20.116  0.00  0.00    +0.000 OA
ATOM      6  H   UNL     1       6.970   6.948  17.406  0.00  0.00    +0.000 HD
ENDBRANCH   1   4
BRANCH   1   7
ATOM      7  C   UNL     1       5.969   4.945  17.032  0.00  0.00    +0.000 A 
ATOM      8  C   UNL     1       6.471   4.055  16.095  0.00  0.00    +0.000 A 
ATOM      9  S   UNL     1       6.172   4.717  14.542  0.00  0.00    +0.000 S 
ATOM     10  N   UNL     1       5.407   6.068  15.162  0.00  0.00    +0.000 NA
ATOM     11  N   UNL     1       5.352   6.068  16.483  0.00  0.00    +0.000 NA
ENDBRANCH   1   7
BRANCH   1  12
ATOM     12  O   UNL     1       4.766   5.035  19.123  0.00  0.00    +0.000 OA
BRANCH  12  13
ATOM     13  C   UNL     1       3.773   4.129  18.838  0.00  0.00    +0.000 A 
ATOM     14  C   UNL     1       3.939   2.742  18.939  0.00  0.00    +0.000 A 
ATOM     15  C   UNL     1       2.868   1.877  18.705  0.00  0.00    +0.000 A 
ATOM     16  C   UNL     1       1.615   2.382  18.380  0.00  0.00    +0.000 A 
ATOM     17  C   UNL     1       1.434   3.760  18.265  0.00  0.00    +0.000 A 
ATOM     18  C   UNL     1       2.509   4.628  18.488  0.00  0.00    +0.000 A 
ATOM     19 BR   UNL     1       2.208   6.488  18.249  0.00  0.00    +0.000 Br
ENDBRANCH  12  13
ENDBRANCH   1  12
TORSDOF 4
ENDMDL
MODEL 7
REMARK VINA RESULT:      -6.4      4.443      6.060
REMARK  Name = 
REMARK  5 active torsions:
REMARK  status: ('A' for Active; 'I' for Inactive)
REMARK    1  A    between atoms: C_1  and  N_2
REMARK    2  A    between atoms: C_3  and  C_5
REMARK    3  A    between atoms: C_5  and  O_6
REMARK    4  A    between atoms: C_5  and  C_14
REMARK    5  A    between atoms: O_6  and  C_7
REMARK                            x       y       z     vdW  Elec       q    Type
REMARK                         _______ _______ _______ _____ _____    ______ ____
ROOT
ATOM      1  C   UNL     1       3.176   5.461  18.793  0.00  0.00    +0.000 C 
ENDROOT
BRANCH   1   4
ATOM      2  C   UNL     1       1.482   8.246  20.827  0.00  0.00    +0.000 C 
ATOM      3  N   UNL     1       2.040   6.995  20.383  0.00  0.00    +0.000 N 
ATOM      4  C   UNL     1       2.588   6.852  19.125  0.00  0.00    +0.000 C 
ATOM      5  O   UNL     1       2.625   7.777  18.311  0.00  0.00    +0.000 OA
ATOM      6  H   UNL     1       2.032   6.192  21.005  0.00  0.00    +0.000 HD
ENDBRANCH   1   4
BRANCH   1   7
ATOM      7  C   UNL     1       2.556   4.448  19.715  0.00  0.00    +0.000 A 
ATOM      8  C   UNL     1       3.230   3.648  20.625  0.00  0.00    +0.000 A 
ATOM      9  S   UNL     1       2.070   2.636  21.381  0.00  0.00    +0.000 S 
ATOM     10  N   UNL     1       0.797   3.299  20.525  0.00  0.00    +0.000 NA
ATOM     11  N   UNL     1       1.177   4.249  19.688  0.00  0.00    +0.000 NA
ENDBRANCH   1   7
BRANCH   1  12
ATOM     12  O   UNL     1       4.604   5.394  18.855  0.00  0.00    +0.000 OA
BRANCH  12  13
ATOM     13  C   UNL     1       5.253   4.975  17.719  0.00  0.00    +0.000 A 
ATOM     14  C   UNL     1       4.592   4.468  16.593  0.00  0.00    +0.000 A 
ATOM     15  C   UNL     1       5.305   4.127  15.442  0.00  0.00    +0.000 A 
ATOM     16  C   UNL     1       6.683   4.301  15.392  0.00  0.00    +0.000 A 
ATOM     17  C   UNL     1       7.358   4.796  16.507  0.00  0.00    +0.000 A 
ATOM     18  C   UNL     1       6.647   5.127  17.666  0.00  0.00    +0.000 A 
ATOM     19 BR   UNL     1       7.638   5.732  19.169  0.00  0.00    +0.000 Br
ENDBRANCH  12  13
ENDBRANCH   1  12
TORSDOF 4
ENDMDL
MODEL 8
REMARK VINA RESULT:      -6.3      1.854      2.028
REMARK  Name = 
REMARK  5 active torsions:
REMARK  status: ('A' for Active; 'I' for Inactive)
REMARK    1  A    between atoms: C_1  and  N_2
REMARK    2  A    between atoms: C_3  and  C_5
REMARK    3  A    between atoms: C_5  and  O_6
REMARK    4  A    between atoms: C_5  and  C_14
REMARK    5  A    between atoms: O_6  and  C_7
REMARK                            x       y       z     vdW  Elec       q    Type
REMARK                         _______ _______ _______ _____ _____    ______ ____
ROOT
ATOM      1  C   UNL     1       5.489   4.731  18.018  0.00  0.00    +0.000 C 
ENDROOT
BRANCH   1   4
ATOM      2  C   UNL     1       8.207   7.406  18.485  0.00  0.00    +0.000 C 
ATOM      3  N   UNL     1       7.173   6.557  17.954  0.00  0.00    +0.000 N 
ATOM      4  C   UNL     1       6.609   5.546  18.705  0.00  0.00    +0.000 C 
ATOM      5  O   UNL     1       6.961   5.307  19.862  0.00  0.00    +0.000 OA
ATOM      6  H   UNL     1       6.844   6.698  17.003  0.00  0.00    +0.000 HD
ENDBRANCH   1   4
BRANCH   1   7
ATOM      7  C   UNL     1       5.722   4.757  16.533  0.00  0.00    +0.000 A 
ATOM      8  C   UNL     1       6.296   3.747  15.776  0.00  0.00    +0.000 A 
ATOM      9  S   UNL     1       6.379   4.300  14.155  0.00  0.00    +0.000 S 
ATOM     10  N   UNL     1       5.661   5.765  14.520  0.00  0.00    +0.000 NA
ATOM     11  N   UNL     1       5.350   5.882  15.800  0.00  0.00    +0.000 NA
ENDBRANCH   1   7
BRANCH   1  12
ATOM     12  O   UNL     1       4.164   5.172  18.330  0.00  0.00    +0.000 OA
BRANCH  12  13
ATOM     13  C   UNL     1       3.505   4.491  19.325  0.00  0.00    +0.000 A 
ATOM     14  C   UNL     1       3.723   3.138  19.613  0.00  0.00    +0.000 A 
ATOM     15  C   UNL     1       3.074   2.523  20.686  0.00  0.00    +0.000 A 
ATOM     16  C   UNL     1       2.211   3.252  21.495  0.00  0.00    +0.000 A 
ATOM     17  C   UNL     1       1.975   4.598  21.218  0.00  0.00    +0.000 A 
ATOM     18  C   UNL     1       2.615   5.213  20.135  0.00  0.00    +0.000 A 
ATOM     19 BR   UNL     1       2.196   7.031  19.776  0.00  0.00    +0.000 Br
ENDBRANCH  12  13
ENDBRANCH   1  12
TORSDOF 4
ENDMDL
MODEL 9
REMARK VINA RESULT:      -6.2      2.292      2.987
REMARK  Name = 
REMARK  5 active torsions:
REMARK  status: ('A' for Active; 'I' for Inactive)
REMARK    1  A    between atoms: C_1  and  N_2
REMARK    2  A    between atoms: C_3  and  C_5
REMARK    3  A    between atoms: C_5  and  O_6
REMARK    4  A    between atoms: C_5  and  C_14
REMARK    5  A    between atoms: O_6  and  C_7
REMARK                            x       y       z     vdW  Elec       q    Type
REMARK                         _______ _______ _______ _____ _____    ______ ____
ROOT
ATOM      1  C   UNL     1       4.990   4.385  18.305  0.00  0.00    +0.000 C 
ENDROOT
BRANCH   1   4
ATOM      2  C   UNL     1       3.199   7.743  17.779  0.00  0.00    +0.000 C 
ATOM      3  N   UNL     1       3.906   6.503  17.590  0.00  0.00    +0.000 N 
ATOM      4  C   UNL     1       4.259   5.702  18.656  0.00  0.00    +0.000 C 
ATOM      5  O   UNL     1       3.999   6.001  19.823  0.00  0.00    +0.000 OA
ATOM      6  H   UNL     1       4.156   6.204  16.652  0.00  0.00    +0.000 HD
ENDBRANCH   1   4
BRANCH   1   7
ATOM      7  C   UNL     1       5.752   4.588  17.025  0.00  0.00    +0.000 A 
ATOM      8  C   UNL     1       5.582   3.874  15.848  0.00  0.00    +0.000 A 
ATOM      9  S   UNL     1       6.730   4.461  14.718  0.00  0.00    +0.000 S 
ATOM     10  N   UNL     1       7.342   5.592  15.786  0.00  0.00    +0.000 NA
ATOM     11  N   UNL     1       6.739   5.570  16.962  0.00  0.00    +0.000 NA
ENDBRANCH   1   7
BRANCH   1  12
ATOM     12  O   UNL     1       4.133   3.244  18.207  0.00  0.00    +0.000 OA
BRANCH  12  13
ATOM     13  C   UNL     1       3.273   3.025  19.257  0.00  0.00    +0.000 A 
ATOM     14  C   UNL     1       3.681   2.526  20.501  0.00  0.00    +0.000 A 
ATOM     15  C   UNL     1       2.769   2.396  21.550  0.00  0.00    +0.000 A 
ATOM     16  C   UNL     1       1.443   2.774  21.380  0.00  0.00    +0.000 A 
ATOM     17  C   UNL     1       1.017   3.264  20.145  0.00  0.00    +0.000 A 
ATOM     18  C   UNL     1       1.927   3.384  19.088  0.00  0.00    +0.000 A 
ATOM     19 BR   UNL     1       1.264   3.995  17.417  0.00  0.00    +0.000 Br
ENDBRANCH  12  13
ENDBRANCH   1  12
TORSDOF 4
ENDMDL
