MODEL 1
REMARK VINA RESULT:      -8.5      0.000      0.000
REMARK  Name = 
REMARK  11 active torsions:
REMARK  status: ('A' for Active; 'I' for Inactive)
REMARK    1  A    between atoms: C_1  and  C_2
REMARK    2  A    between atoms: C_6  and  C_7
REMARK    3  A    between atoms: C_7  and  O_8
REMARK    4  A    between atoms: O_8  and  C_9
REMARK    5  A    between atoms: C_12  and  S_13
REMARK    6  A    between atoms: S_13  and  N_16
REMARK    7  A    between atoms: C_18  and  O_19
REMARK    8  A    between atoms: C_21  and  C_22
REMARK    9  A    between atoms: C_21  and  C_23
REMARK   10  A    between atoms: C_24  and  C_25
REMARK   11  A    between atoms: N_27  and  O_28
REMARK                            x       y       z     vdW  Elec       q    Type
REMARK                         _______ _______ _______ _____ _____    ______ ____
ROOT
ATOM      1  S   UNL     1       5.151   5.183  17.477  0.00  0.00    +0.000 S 
ATOM      2  O   UNL     1       3.990   5.962  17.095  0.00  0.00    +0.000 OA
ATOM      3  O   UNL     1       5.673   4.144  16.620  0.00  0.00    +0.000 OA
ENDROOT
BRANCH   1   4
ATOM      4  N   UNL     1       4.771   4.414  18.972  0.00  0.00    +0.000 NA
ATOM      5  C   UNL     1       4.091   5.271  19.969  0.00  0.00    +0.000 C 
ATOM      6  C   UNL     1       2.613   5.505  19.634  0.00  0.00    +0.000 C 
ATOM      7  C   UNL     1       1.817   4.261  19.196  0.00  0.00    +0.000 C 
ATOM      8  C   UNL     1       2.552   3.143  18.397  0.00  0.00    +0.000 C 
ATOM      9  C   UNL     1       2.442   3.249  16.855  0.00  0.00    +0.000 C 
ATOM     10  C   UNL     1       1.733   1.824  18.636  0.00  0.00    +0.000 C 
ATOM     11  C   UNL     1       4.048   3.036  18.865  0.00  0.00    +0.000 C 
BRANCH  11  12
ATOM     12  C   UNL     1       4.099   2.354  20.264  0.00  0.00    +0.000 C 
ATOM     13  O   UNL     1       3.204   2.442  21.111  0.00  0.00    +0.000 OA
ATOM     14  N   UNL     1       5.233   1.634  20.552  0.00  0.00    +0.000 N 
ATOM     15  H   UNL     1       6.135   1.941  20.199  0.00  0.00    +0.000 HD
BRANCH  14  16
ATOM     16  O   UNL     1       5.247   1.092  21.866  0.00  0.00    +0.000 OA
ATOM     17  H   UNL     1       4.465   0.485  21.857  0.00  0.00    +0.000 HD
ENDBRANCH  14  16
ENDBRANCH  11  12
BRANCH   6  18
ATOM     18  O   UNL     1       1.974   6.081  20.783  0.00  0.00    +0.000 OA
ATOM     19  H   UNL     1       1.024   6.179  20.585  0.00  0.00    +0.000 HD
ENDBRANCH   6  18
ENDBRANCH   1   4
BRANCH   1  23
ATOM     20  C   UNL     1       8.328   8.396  18.356  0.00  0.00    +0.000 A 
ATOM     21  C   UNL     1       7.297   8.669  17.446  0.00  0.00    +0.000 A 
ATOM     22  C   UNL     1       6.347   7.682  17.098  0.00  0.00    +0.000 A 
ATOM     23  C   UNL     1       6.448   6.407  17.649  0.00  0.00    +0.000 A 
ATOM     24  C   UNL     1       7.492   6.131  18.553  0.00  0.00    +0.000 A 
ATOM     25  C   UNL     1       8.428   7.115  18.892  0.00  0.00    +0.000 A 
BRANCH  20  26
ATOM     26  O   UNL     1       9.303   9.273  18.754  0.00  0.00    +0.000 OA
BRANCH  26  27
ATOM     27  C   UNL     1       8.864  10.549  19.238  0.00  0.00    +0.000 C 
BRANCH  27  33
ATOM     28  C   UNL     1       9.113  15.436  17.935  0.00  0.00    +0.000 C 
ATOM     29  C   UNL     1       9.708  14.059  17.903  0.00  0.00    +0.000 A 
ATOM     30  C   UNL     1      10.929  13.818  17.267  0.00  0.00    +0.000 A 
ATOM     31  C   UNL     1      11.468  12.532  17.251  0.00  0.00    +0.000 A 
ATOM     32  C   UNL     1      10.788  11.476  17.868  0.00  0.00    +0.000 A 
ATOM     33  C   UNL     1       9.554  11.691  18.504  0.00  0.00    +0.000 A 
ATOM     34  C   UNL     1       9.031  12.993  18.525  0.00  0.00    +0.000 A 
ENDBRANCH  27  33
ENDBRANCH  26  27
ENDBRANCH  20  26
ENDBRANCH   1  23
TORSDOF 8
ENDMDL
MODEL 2
REMARK VINA RESULT:      -8.0      5.330      8.859
REMARK  Name = 
REMARK  11 active torsions:
REMARK  status: ('A' for Active; 'I' for Inactive)
REMARK    1  A    between atoms: C_1  and  C_2
REMARK    2  A    between atoms: C_6  and  C_7
REMARK    3  A    between atoms: C_7  and  O_8
REMARK    4  A    between atoms: O_8  and  C_9
REMARK    5  A    between atoms: C_12  and  S_13
REMARK    6  A    between atoms: S_13  and  N_16
REMARK    7  A    between atoms: C_18  and  O_19
REMARK    8  A    between atoms: C_21  and  C_22
REMARK    9  A    between atoms: C_21  and  C_23
REMARK   10  A    between atoms: C_24  and  C_25
REMARK   11  A    between atoms: N_27  and  O_28
REMARK                            x       y       z     vdW  Elec       q    Type
REMARK                         _______ _______ _______ _____ _____    ______ ____
ROOT
ATOM      1  S   UNL     1       0.847   9.273  20.931  0.00  0.00    +0.000 S 
ATOM      2  O   UNL     1      -0.546   8.919  21.118  0.00  0.00    +0.000 OA
ATOM      3  O   UNL     1       1.650   9.767  22.026  0.00  0.00    +0.000 OA
ENDROOT
BRANCH   1   4
ATOM      4  N   UNL     1       0.897  10.500  19.720  0.00  0.00    +0.000 NA
ATOM      5  C   UNL     1      -0.079  10.340  18.619  0.00  0.00    +0.000 C 
ATOM      6  C   UNL     1      -1.506  10.713  19.038  0.00  0.00    +0.000 C 
ATOM      7  C   UNL     1      -1.650  12.015  19.850  0.00  0.00    +0.000 C 
ATOM      8  C   UNL     1      -0.501  12.425  20.820  0.00  0.00    +0.000 C 
ATOM      9  C   UNL     1      -0.682  11.971  22.291  0.00  0.00    +0.000 C 
ATOM     10  C   UNL     1      -0.617  13.981  21.001  0.00  0.00    +0.000 C 
ATOM     11  C   UNL     1       0.886  11.970  20.240  0.00  0.00    +0.000 C 
BRANCH  11  12
ATOM     12  C   UNL     1       1.276  12.904  19.056  0.00  0.00    +0.000 C 
ATOM     13  O   UNL     1       0.464  13.553  18.389  0.00  0.00    +0.000 OA
ATOM     14  N   UNL     1       2.612  12.970  18.745  0.00  0.00    +0.000 N 
ATOM     15  H   UNL     1       3.201  12.148  18.846  0.00  0.00    +0.000 HD
BRANCH  14  16
ATOM     16  O   UNL     1       2.895  13.786  17.615  0.00  0.00    +0.000 OA
ATOM     17  H   UNL     1       2.235  14.518  17.707  0.00  0.00    +0.000 HD
ENDBRANCH  14  16
ENDBRANCH  11  12
BRANCH   6  18
ATOM     18  O   UNL     1      -2.312  10.816  17.854  0.00  0.00    +0.000 OA
ATOM     19  H   UNL     1      -1.718  10.806  17.080  0.00  0.00    +0.000 HD
ENDBRANCH   6  18
ENDBRANCH   1   4
BRANCH   1  23
ATOM     20  C   UNL     1       2.462   5.325  19.202  0.00  0.00    +0.000 A 
ATOM     21  C   UNL     1       1.868   5.336  20.471  0.00  0.00    +0.000 A 
ATOM     22  C   UNL     1       1.427   6.541  21.063  0.00  0.00    +0.000 A 
ATOM     23  C   UNL     1       1.606   7.744  20.385  0.00  0.00    +0.000 A 
ATOM     24  C   UNL     1       2.215   7.733  19.116  0.00  0.00    +0.000 A 
ATOM     25  C   UNL     1       2.648   6.535  18.538  0.00  0.00    +0.000 A 
BRANCH  20  26
ATOM     26  O   UNL     1       2.932   4.219  18.542  0.00  0.00    +0.000 OA
BRANCH  26  27
ATOM     27  C   UNL     1       4.196   3.699  18.975  0.00  0.00    +0.000 C 
BRANCH  27  33
ATOM     28  C   UNL     1       6.824   4.835  14.798  0.00  0.00    +0.000 C 
ATOM     29  C   UNL     1       6.608   5.002  16.274  0.00  0.00    +0.000 A 
ATOM     30  C   UNL     1       7.414   5.860  17.026  0.00  0.00    +0.000 A 
ATOM     31  C   UNL     1       7.197   6.004  18.396  0.00  0.00    +0.000 A 
ATOM     32  C   UNL     1       6.172   5.289  19.024  0.00  0.00    +0.000 A 
ATOM     33  C   UNL     1       5.355   4.411  18.292  0.00  0.00    +0.000 A 
ATOM     34  C   UNL     1       5.577   4.287  16.912  0.00  0.00    +0.000 A 
ENDBRANCH  27  33
ENDBRANCH  26  27
ENDBRANCH  20  26
ENDBRANCH   1  23
TORSDOF 8
ENDMDL
MODEL 3
REMARK VINA RESULT:      -8.0      5.469      8.320
REMARK  Name = 
REMARK  11 active torsions:
REMARK  status: ('A' for Active; 'I' for Inactive)
REMARK    1  A    between atoms: C_1  and  C_2
REMARK    2  A    between atoms: C_6  and  C_7
REMARK    3  A    between atoms: C_7  and  O_8
REMARK    4  A    between atoms: O_8  and  C_9
REMARK    5  A    between atoms: C_12  and  S_13
REMARK    6  A    between atoms: S_13  and  N_16
REMARK    7  A    between atoms: C_18  and  O_19
REMARK    8  A    between atoms: C_21  and  C_22
REMARK    9  A    between atoms: C_21  and  C_23
REMARK   10  A    between atoms: C_24  and  C_25
REMARK   11  A    between atoms: N_27  and  O_28
REMARK                            x       y       z     vdW  Elec       q    Type
REMARK                         _______ _______ _______ _____ _____    ______ ____
ROOT
ATOM      1  S   UNL     1       2.921   6.910  18.059  0.00  0.00    +0.000 S 
ATOM      2  O   UNL     1       1.840   6.075  17.574  0.00  0.00    +0.000 OA
ATOM      3  O   UNL     1       3.706   7.721  17.156  0.00  0.00    +0.000 OA
ENDROOT
BRANCH   1   4
ATOM      4  N   UNL     1       4.042   5.871  18.855  0.00  0.00    +0.000 NA
ATOM      5  C   UNL     1       3.551   4.500  19.125  0.00  0.00    +0.000 C 
ATOM      6  C   UNL     1       3.525   3.625  17.866  0.00  0.00    +0.000 C 
ATOM      7  C   UNL     1       4.774   3.702  16.968  0.00  0.00    +0.000 C 
ATOM      8  C   UNL     1       5.547   5.051  16.871  0.00  0.00    +0.000 C 
ATOM      9  C   UNL     1       5.142   5.964  15.684  0.00  0.00    +0.000 C 
ATOM     10  C   UNL     1       7.013   4.686  16.442  0.00  0.00    +0.000 C 
ATOM     11  C   UNL     1       5.475   5.817  18.241  0.00  0.00    +0.000 C 
BRANCH  11  12
ATOM     12  C   UNL     1       6.414   5.118  19.267  0.00  0.00    +0.000 C 
ATOM     13  O   UNL     1       6.216   3.991  19.733  0.00  0.00    +0.000 OA
ATOM     14  N   UNL     1       7.512   5.834  19.678  0.00  0.00    +0.000 N 
ATOM     15  H   UNL     1       7.454   6.844  19.779  0.00  0.00    +0.000 HD
BRANCH  14  16
ATOM     16  O   UNL     1       8.292   5.169  20.663  0.00  0.00    +0.000 OA
ATOM     17  H   UNL     1       7.903   4.258  20.667  0.00  0.00    +0.000 HD
ENDBRANCH  14  16
ENDBRANCH  11  12
BRANCH   6  18
ATOM     18  O   UNL     1       3.329   2.261  18.269  0.00  0.00    +0.000 OA
ATOM     19  H   UNL     1       2.407   2.164  18.574  0.00  0.00    +0.000 HD
ENDBRANCH   6  18
ENDBRANCH   1   4
BRANCH   1  23
ATOM     20  C   UNL     1       0.474   9.521  20.955  0.00  0.00    +0.000 A 
ATOM     21  C   UNL     1       0.752   9.989  19.664  0.00  0.00    +0.000 A 
ATOM     22  C   UNL     1       1.561   9.246  18.774  0.00  0.00    +0.000 A 
ATOM     23  C   UNL     1       2.112   8.039  19.192  0.00  0.00    +0.000 A 
ATOM     24  C   UNL     1       1.843   7.576  20.494  0.00  0.00    +0.000 A 
ATOM     25  C   UNL     1       1.041   8.317  21.369  0.00  0.00    +0.000 A 
BRANCH  20  26
ATOM     26  O   UNL     1      -0.286  10.162  21.898  0.00  0.00    +0.000 OA
BRANCH  26  27
ATOM     27  C   UNL     1      -0.368  11.590  21.798  0.00  0.00    +0.000 C 
BRANCH  27  33
ATOM     28  C   UNL     1      -4.427  12.433  24.706  0.00  0.00    +0.000 C 
ATOM     29  C   UNL     1      -3.753  12.531  23.368  0.00  0.00    +0.000 A 
ATOM     30  C   UNL     1      -4.394  13.133  22.283  0.00  0.00    +0.000 A 
ATOM     31  C   UNL     1      -3.751  13.218  21.048  0.00  0.00    +0.000 A 
ATOM     32  C   UNL     1      -2.462  12.699  20.891  0.00  0.00    +0.000 A 
ATOM     33  C   UNL     1      -1.800  12.080  21.964  0.00  0.00    +0.000 A 
ATOM     34  C   UNL     1      -2.455  12.014  23.204  0.00  0.00    +0.000 A 
ENDBRANCH  27  33
ENDBRANCH  26  27
ENDBRANCH  20  26
ENDBRANCH   1  23
TORSDOF 8
ENDMDL
MODEL 4
REMARK VINA RESULT:      -7.9      5.624      8.185
REMARK  Name = 
REMARK  11 active torsions:
REMARK  status: ('A' for Active; 'I' for Inactive)
REMARK    1  A    between atoms: C_1  and  C_2
REMARK    2  A    between atoms: C_6  and  C_7
REMARK    3  A    between atoms: C_7  and  O_8
REMARK    4  A    between atoms: O_8  and  C_9
REMARK    5  A    between atoms: C_12  and  S_13
REMARK    6  A    between atoms: S_13  and  N_16
REMARK    7  A    between atoms: C_18  and  O_19
REMARK    8  A    between atoms: C_21  and  C_22
REMARK    9  A    between atoms: C_21  and  C_23
REMARK   10  A    between atoms: C_24  and  C_25
REMARK   11  A    between atoms: N_27  and  O_28
REMARK                            x       y       z     vdW  Elec       q    Type
REMARK                         _______ _______ _______ _____ _____    ______ ____
ROOT
ATOM      1  S   UNL     1       2.874   7.026  18.185  0.00  0.00    +0.000 S 
ATOM      2  O   UNL     1       1.885   6.177  17.552  0.00  0.00    +0.000 OA
ATOM      3  O   UNL     1       3.657   7.967  17.418  0.00  0.00    +0.000 OA
ENDROOT
BRANCH   1   4
ATOM      4  N   UNL     1       4.011   5.987  18.958  0.00  0.00    +0.000 NA
ATOM      5  C   UNL     1       3.514   4.628  19.271  0.00  0.00    +0.000 C 
ATOM      6  C   UNL     1       3.430   3.731  18.030  0.00  0.00    +0.000 C 
ATOM      7  C   UNL     1       4.646   3.776  17.084  0.00  0.00    +0.000 C 
ATOM      8  C   UNL     1       5.431   5.113  16.935  0.00  0.00    +0.000 C 
ATOM      9  C   UNL     1       4.993   6.010  15.748  0.00  0.00    +0.000 C 
ATOM     10  C   UNL     1       6.876   4.722  16.459  0.00  0.00    +0.000 C 
ATOM     11  C   UNL     1       5.420   5.904  18.293  0.00  0.00    +0.000 C 
BRANCH  11  12
ATOM     12  C   UNL     1       6.388   5.211  19.296  0.00  0.00    +0.000 C 
ATOM     13  O   UNL     1       6.211   4.079  19.761  0.00  0.00    +0.000 OA
ATOM     14  N   UNL     1       7.486   5.937  19.687  0.00  0.00    +0.000 N 
ATOM     15  H   UNL     1       7.420   6.946  19.793  0.00  0.00    +0.000 HD
BRANCH  14  16
ATOM     16  O   UNL     1       8.294   5.276  20.652  0.00  0.00    +0.000 OA
ATOM     17  H   UNL     1       8.215   5.869  21.442  0.00  0.00    +0.000 HD
ENDBRANCH  14  16
ENDBRANCH  11  12
BRANCH   6  18
ATOM     18  O   UNL     1       3.233   2.377  18.464  0.00  0.00    +0.000 OA
ATOM     19  H   UNL     1       4.065   1.888  18.320  0.00  0.00    +0.000 HD
ENDBRANCH   6  18
ENDBRANCH   1   4
BRANCH   1  23
ATOM     20  C   UNL     1       0.786   9.797  21.210  0.00  0.00    +0.000 A 
ATOM     21  C   UNL     1       1.224   8.529  21.617  0.00  0.00    +0.000 A 
ATOM     22  C   UNL     1       1.803   7.625  20.698  0.00  0.00    +0.000 A 
ATOM     23  C   UNL     1       1.921   7.988  19.359  0.00  0.00    +0.000 A 
ATOM     24  C   UNL     1       1.468   9.257  18.950  0.00  0.00    +0.000 A 
ATOM     25  C   UNL     1       0.897  10.146  19.867  0.00  0.00    +0.000 A 
BRANCH  20  26
ATOM     26  O   UNL     1       0.204  10.744  22.013  0.00  0.00    +0.000 OA
BRANCH  26  27
ATOM     27  C   UNL     1      -0.713  11.648  21.383  0.00  0.00    +0.000 C 
BRANCH  27  33
ATOM     28  C   UNL     1      -4.521  12.428  24.628  0.00  0.00    +0.000 C 
ATOM     29  C   UNL     1      -3.236  12.894  24.008  0.00  0.00    +0.000 A 
ATOM     30  C   UNL     1      -2.639  14.093  24.406  0.00  0.00    +0.000 A 
ATOM     31  C   UNL     1      -1.444  14.508  23.820  0.00  0.00    +0.000 A 
ATOM     32  C   UNL     1      -0.838  13.728  22.830  0.00  0.00    +0.000 A 
ATOM     33  C   UNL     1      -1.424  12.524  22.405  0.00  0.00    +0.000 A 
ATOM     34  C   UNL     1      -2.619  12.112  23.014  0.00  0.00    +0.000 A 
ENDBRANCH  27  33
ENDBRANCH  26  27
ENDBRANCH  20  26
ENDBRANCH   1  23
TORSDOF 8
ENDMDL
MODEL 5
REMARK VINA RESULT:      -7.9      5.841      9.386
REMARK  Name = 
REMARK  11 active torsions:
REMARK  status: ('A' for Active; 'I' for Inactive)
REMARK    1  A    between atoms: C_1  and  C_2
REMARK    2  A    between atoms: C_6  and  C_7
REMARK    3  A    between atoms: C_7  and  O_8
REMARK    4  A    between atoms: O_8  and  C_9
REMARK    5  A    between atoms: C_12  and  S_13
REMARK    6  A    between atoms: S_13  and  N_16
REMARK    7  A    between atoms: C_18  and  O_19
REMARK    8  A    between atoms: C_21  and  C_22
REMARK    9  A    between atoms: C_21  and  C_23
REMARK   10  A    between atoms: C_24  and  C_25
REMARK   11  A    between atoms: N_27  and  O_28
REMARK                            x       y       z     vdW  Elec       q    Type
REMARK                         _______ _______ _______ _____ _____    ______ ____
ROOT
ATOM      1  S   UNL     1       0.749   9.995  20.747  0.00  0.00    +0.000 S 
ATOM      2  O   UNL     1      -0.648   9.839  20.393  0.00  0.00    +0.000 OA
ATOM      3  O   UNL     1       1.164  10.117  22.125  0.00  0.00    +0.000 OA
ENDROOT
BRANCH   1   4
ATOM      4  N   UNL     1       1.314  11.418  19.956  0.00  0.00    +0.000 NA
ATOM      5  C   UNL     1       0.691  11.701  18.643  0.00  0.00    +0.000 C 
ATOM      6  C   UNL     1      -0.733  12.253  18.773  0.00  0.00    +0.000 C 
ATOM      7  C   UNL     1      -0.936  13.350  19.836  0.00  0.00    +0.000 C 
ATOM      8  C   UNL     1      -0.078  13.301  21.136  0.00  0.00    +0.000 C 
ATOM      9  C   UNL     1      -0.741  12.585  22.341  0.00  0.00    +0.000 C 
ATOM     10  C   UNL     1      -0.035  14.771  21.687  0.00  0.00    +0.000 C 
ATOM     11  C   UNL     1       1.346  12.713  20.826  0.00  0.00    +0.000 C 
BRANCH  11  12
ATOM     12  C   UNL     1       2.185  13.783  20.068  0.00  0.00    +0.000 C 
ATOM     13  O   UNL     1       1.815  14.352  19.035  0.00  0.00    +0.000 OA
ATOM     14  N   UNL     1       3.421  14.074  20.592  0.00  0.00    +0.000 N 
ATOM     15  H   UNL     1       3.971  13.345  21.039  0.00  0.00    +0.000 HD
BRANCH  14  16
ATOM     16  O   UNL     1       4.164  15.008  19.819  0.00  0.00    +0.000 OA
ATOM     17  H   UNL     1       3.761  14.912  18.920  0.00  0.00    +0.000 HD
ENDBRANCH  14  16
ENDBRANCH  11  12
BRANCH   6  18
ATOM     18  O   UNL     1      -1.136  12.770  17.495  0.00  0.00    +0.000 OA
ATOM     19  H   UNL     1      -1.710  13.544  17.648  0.00  0.00    +0.000 HD
ENDBRANCH   6  18
ENDBRANCH   1   4
BRANCH   1  23
ATOM     20  C   UNL     1       2.346   6.124  18.836  0.00  0.00    +0.000 A 
ATOM     21  C   UNL     1       1.961   6.126  20.184  0.00  0.00    +0.000 A 
ATOM     22  C   UNL     1       1.535   7.313  20.822  0.00  0.00    +0.000 A 
ATOM     23  C   UNL     1       1.518   8.508  20.108  0.00  0.00    +0.000 A 
ATOM     24  C   UNL     1       1.918   8.506  18.758  0.00  0.00    +0.000 A 
ATOM     25  C   UNL     1       2.338   7.327  18.135  0.00  0.00    +0.000 A 
BRANCH  20  26
ATOM     26  O   UNL     1       2.783   5.036  18.125  0.00  0.00    +0.000 OA
BRANCH  26  27
ATOM     27  C   UNL     1       3.898   4.317  18.668  0.00  0.00    +0.000 C 
BRANCH  27  33
ATOM     28  C   UNL     1       5.820   4.038  13.991  0.00  0.00    +0.000 C 
ATOM     29  C   UNL     1       6.027   4.251  15.462  0.00  0.00    +0.000 A 
ATOM     30  C   UNL     1       7.293   4.543  15.976  0.00  0.00    +0.000 A 
ATOM     31  C   UNL     1       7.466   4.740  17.345  0.00  0.00    +0.000 A 
ATOM     32  C   UNL     1       6.372   4.645  18.212  0.00  0.00    +0.000 A 
ATOM     33  C   UNL     1       5.091   4.341  17.722  0.00  0.00    +0.000 A 
ATOM     34  C   UNL     1       4.931   4.159  16.340  0.00  0.00    +0.000 A 
ENDBRANCH  27  33
ENDBRANCH  26  27
ENDBRANCH  20  26
ENDBRANCH   1  23
TORSDOF 8
ENDMDL
MODEL 6
REMARK VINA RESULT:      -7.8      5.767      8.818
REMARK  Name = 
REMARK  11 active torsions:
REMARK  status: ('A' for Active; 'I' for Inactive)
REMARK    1  A    between atoms: C_1  and  C_2
REMARK    2  A    between atoms: C_6  and  C_7
REMARK    3  A    between atoms: C_7  and  O_8
REMARK    4  A    between atoms: O_8  and  C_9
REMARK    5  A    between atoms: C_12  and  S_13
REMARK    6  A    between atoms: S_13  and  N_16
REMARK    7  A    between atoms: C_18  and  O_19
REMARK    8  A    between atoms: C_21  and  C_22
REMARK    9  A    between atoms: C_21  and  C_23
REMARK   10  A    between atoms: C_24  and  C_25
REMARK   11  A    between atoms: N_27  and  O_28
REMARK                            x       y       z     vdW  Elec       q    Type
REMARK                         _______ _______ _______ _____ _____    ______ ____
ROOT
ATOM      1  S   UNL     1       0.637   9.896  20.670  0.00  0.00    +0.000 S 
ATOM      2  O   UNL     1      -0.718   9.651  20.216  0.00  0.00    +0.000 OA
ATOM      3  O   UNL     1       0.952   9.984  22.077  0.00  0.00    +0.000 OA
ENDROOT
BRANCH   1   4
ATOM      4  N   UNL     1       1.136  11.395  19.981  0.00  0.00    +0.000 NA
ATOM      5  C   UNL     1       0.546  11.711  18.660  0.00  0.00    +0.000 C 
ATOM      6  C   UNL     1      -0.915  12.164  18.761  0.00  0.00    +0.000 C 
ATOM      7  C   UNL     1      -1.229  13.183  19.873  0.00  0.00    +0.000 C 
ATOM      8  C   UNL     1      -0.419  13.115  21.203  0.00  0.00    +0.000 C 
ATOM      9  C   UNL     1      -1.079  12.292  22.339  0.00  0.00    +0.000 C 
ATOM     10  C   UNL     1      -0.494  14.552  21.833  0.00  0.00    +0.000 C 
ATOM     11  C   UNL     1       1.050  12.638  20.920  0.00  0.00    +0.000 C 
BRANCH  11  12
ATOM     12  C   UNL     1       1.846  13.801  20.256  0.00  0.00    +0.000 C 
ATOM     13  O   UNL     1       1.495  14.380  19.222  0.00  0.00    +0.000 OA
ATOM     14  N   UNL     1       3.020  14.166  20.869  0.00  0.00    +0.000 N 
ATOM     15  H   UNL     1       3.598  13.465  21.323  0.00  0.00    +0.000 HD
BRANCH  14  16
ATOM     16  O   UNL     1       3.731  15.185  20.178  0.00  0.00    +0.000 OA
ATOM     17  H   UNL     1       3.002  15.723  19.778  0.00  0.00    +0.000 HD
ENDBRANCH  14  16
ENDBRANCH  11  12
BRANCH   6  18
ATOM     18  O   UNL     1      -1.303  12.725  17.498  0.00  0.00    +0.000 OA
ATOM     19  H   UNL     1      -0.576  13.296  17.184  0.00  0.00    +0.000 HD
ENDBRANCH   6  18
ENDBRANCH   1   4
BRANCH   1  23
ATOM     20  C   UNL     1       2.643   6.235  18.730  0.00  0.00    +0.000 A 
ATOM     21  C   UNL     1       2.248   6.181  20.074  0.00  0.00    +0.000 A 
ATOM     22  C   UNL     1       1.696   7.309  20.721  0.00  0.00    +0.000 A 
ATOM     23  C   UNL     1       1.562   8.505  20.022  0.00  0.00    +0.000 A 
ATOM     24  C   UNL     1       1.971   8.562  18.675  0.00  0.00    +0.000 A 
ATOM     25  C   UNL     1       2.516   7.440  18.042  0.00  0.00    +0.000 A 
BRANCH  20  26
ATOM     26  O   UNL     1       3.196   5.208  18.010  0.00  0.00    +0.000 OA
BRANCH  26  27
ATOM     27  C   UNL     1       4.144   5.568  16.997  0.00  0.00    +0.000 C 
BRANCH  27  33
ATOM     28  C   UNL     1       8.124   8.641  17.599  0.00  0.00    +0.000 C 
ATOM     29  C   UNL     1       7.424   7.354  17.927  0.00  0.00    +0.000 A 
ATOM     30  C   UNL     1       7.977   6.445  18.832  0.00  0.00    +0.000 A 
ATOM     31  C   UNL     1       7.310   5.257  19.127  0.00  0.00    +0.000 A 
ATOM     32  C   UNL     1       6.085   4.968  18.516  0.00  0.00    +0.000 A 
ATOM     33  C   UNL     1       5.514   5.861  17.594  0.00  0.00    +0.000 A 
ATOM     34  C   UNL     1       6.190   7.059  17.319  0.00  0.00    +0.000 A 
ENDBRANCH  27  33
ENDBRANCH  26  27
ENDBRANCH  20  26
ENDBRANCH   1  23
TORSDOF 8
ENDMDL
MODEL 7
REMARK VINA RESULT:      -7.8      5.542      7.784
REMARK  Name = 
REMARK  11 active torsions:
REMARK  status: ('A' for Active; 'I' for Inactive)
REMARK    1  A    between atoms: C_1  and  C_2
REMARK    2  A    between atoms: C_6  and  C_7
REMARK    3  A    between atoms: C_7  and  O_8
REMARK    4  A    between atoms: O_8  and  C_9
REMARK    5  A    between atoms: C_12  and  S_13
REMARK    6  A    between atoms: S_13  and  N_16
REMARK    7  A    between atoms: C_18  and  O_19
REMARK    8  A    between atoms: C_21  and  C_22
REMARK    9  A    between atoms: C_21  and  C_23
REMARK   10  A    between atoms: C_24  and  C_25
REMARK   11  A    between atoms: N_27  and  O_28
REMARK                            x       y       z     vdW  Elec       q    Type
REMARK                         _______ _______ _______ _____ _____    ______ ____
ROOT
ATOM      1  S   UNL     1       2.834   5.962  18.673  0.00  0.00    +0.000 S 
ATOM      2  O   UNL     1       1.989   5.548  17.570  0.00  0.00    +0.000 OA
ATOM      3  O   UNL     1       4.199   6.384  18.455  0.00  0.00    +0.000 OA
ENDROOT
BRANCH   1   4
ATOM      4  N   UNL     1       2.921   4.633  19.767  0.00  0.00    +0.000 NA
ATOM      5  C   UNL     1       1.616   4.087  20.203  0.00  0.00    +0.000 C 
ATOM      6  C   UNL     1       0.940   3.240  19.118  0.00  0.00    +0.000 C 
ATOM      7  C   UNL     1       1.850   2.238  18.382  0.00  0.00    +0.000 C 
ATOM      8  C   UNL     1       3.346   2.610  18.155  0.00  0.00    +0.000 C 
ATOM      9  C   UNL     1       3.664   3.273  16.790  0.00  0.00    +0.000 C 
ATOM     10  C   UNL     1       4.113   1.251  17.981  0.00  0.00    +0.000 C 
ATOM     11  C   UNL     1       3.879   3.473  19.355  0.00  0.00    +0.000 C 
BRANCH  11  12
ATOM     12  C   UNL     1       4.084   2.553  20.594  0.00  0.00    +0.000 C 
ATOM     13  O   UNL     1       3.277   2.453  21.525  0.00  0.00    +0.000 OA
ATOM     14  N   UNL     1       5.256   1.838  20.637  0.00  0.00    +0.000 N 
ATOM     15  H   UNL     1       6.112   2.237  20.262  0.00  0.00    +0.000 HD
BRANCH  14  16
ATOM     16  O   UNL     1       5.413   1.069  21.823  0.00  0.00    +0.000 OA
ATOM     17  H   UNL     1       6.049   1.614  22.351  0.00  0.00    +0.000 HD
ENDBRANCH  14  16
ENDBRANCH  11  12
BRANCH   6  18
ATOM     18  O   UNL     1      -0.148   2.521  19.718  0.00  0.00    +0.000 OA
ATOM     19  H   UNL     1       0.085   2.339  20.648  0.00  0.00    +0.000 HD
ENDBRANCH   6  18
ENDBRANCH   1   4
BRANCH   1  23
ATOM     20  C   UNL     1       1.011   9.805  20.432  0.00  0.00    +0.000 A 
ATOM     21  C   UNL     1       1.195   8.684  21.253  0.00  0.00    +0.000 A 
ATOM     22  C   UNL     1       1.684   7.466  20.730  0.00  0.00    +0.000 A 
ATOM     23  C   UNL     1       1.967   7.366  19.371  0.00  0.00    +0.000 A 
ATOM     24  C   UNL     1       1.769   8.489  18.545  0.00  0.00    +0.000 A 
ATOM     25  C   UNL     1       1.285   9.692  19.071  0.00  0.00    +0.000 A 
BRANCH  20  26
ATOM     26  O   UNL     1       0.535  11.028  20.831  0.00  0.00    +0.000 OA
BRANCH  26  27
ATOM     27  C   UNL     1      -0.030  11.100  22.146  0.00  0.00    +0.000 C 
BRANCH  27  33
ATOM     28  C   UNL     1      -4.267  12.513  24.534  0.00  0.00    +0.000 C 
ATOM     29  C   UNL     1      -3.462  12.433  23.270  0.00  0.00    +0.000 A 
ATOM     30  C   UNL     1      -3.944  12.973  22.075  0.00  0.00    +0.000 A 
ATOM     31  C   UNL     1      -3.180  12.892  20.911  0.00  0.00    +0.000 A 
ATOM     32  C   UNL     1      -1.929  12.268  20.934  0.00  0.00    +0.000 A 
ATOM     33  C   UNL     1      -1.427  11.707  22.120  0.00  0.00    +0.000 A 
ATOM     34  C   UNL     1      -2.200  11.809  23.286  0.00  0.00    +0.000 A 
ENDBRANCH  27  33
ENDBRANCH  26  27
ENDBRANCH  20  26
ENDBRANCH   1  23
TORSDOF 8
ENDMDL
MODEL 8
REMARK VINA RESULT:      -7.7      5.750      8.667
REMARK  Name = 
REMARK  11 active torsions:
REMARK  status: ('A' for Active; 'I' for Inactive)
REMARK    1  A    between atoms: C_1  and  C_2
REMARK    2  A    between atoms: C_6  and  C_7
REMARK    3  A    between atoms: C_7  and  O_8
REMARK    4  A    between atoms: O_8  and  C_9
REMARK    5  A    between atoms: C_12  and  S_13
REMARK    6  A    between atoms: S_13  and  N_16
REMARK    7  A    between atoms: C_18  and  O_19
REMARK    8  A    between atoms: C_21  and  C_22
REMARK    9  A    between atoms: C_21  and  C_23
REMARK   10  A    between atoms: C_24  and  C_25
REMARK   11  A    between atoms: N_27  and  O_28
REMARK                            x       y       z     vdW  Elec       q    Type
REMARK                         _______ _______ _______ _____ _____    ______ ____
ROOT
ATOM      1  S   UNL     1       0.726   9.859  20.640  0.00  0.00    +0.000 S 
ATOM      2  O   UNL     1      -0.699   9.595  20.618  0.00  0.00    +0.000 OA
ATOM      3  O   UNL     1       1.462   9.901  21.883  0.00  0.00    +0.000 OA
ENDROOT
BRANCH   1   4
ATOM      4  N   UNL     1       0.966  11.397  19.899  0.00  0.00    +0.000 NA
ATOM      5  C   UNL     1       0.117  11.668  18.717  0.00  0.00    +0.000 C 
ATOM      6  C   UNL     1      -1.332  11.997  19.094  0.00  0.00    +0.000 C 
ATOM      7  C   UNL     1      -1.515  12.983  20.264  0.00  0.00    +0.000 C 
ATOM      8  C   UNL     1      -0.470  12.978  21.420  0.00  0.00    +0.000 C 
ATOM      9  C   UNL     1      -0.838  12.098  22.642  0.00  0.00    +0.000 C 
ATOM     10  C   UNL     1      -0.542  14.401  22.080  0.00  0.00    +0.000 C 
ATOM     11  C   UNL     1       0.955  12.625  20.861  0.00  0.00    +0.000 C 
BRANCH  11  12
ATOM     12  C   UNL     1       1.517  13.852  20.083  0.00  0.00    +0.000 C 
ATOM     13  O   UNL     1       0.833  14.814  19.718  0.00  0.00    +0.000 OA
ATOM     14  N   UNL     1       2.856  13.822  19.779  0.00  0.00    +0.000 N 
ATOM     15  H   UNL     1       3.310  12.939  19.560  0.00  0.00    +0.000 HD
BRANCH  14  16
ATOM     16  O   UNL     1       3.293  14.937  19.012  0.00  0.00    +0.000 OA
ATOM     17  H   UNL     1       4.231  15.047  19.308  0.00  0.00    +0.000 HD
ENDBRANCH  14  16
ENDBRANCH  11  12
BRANCH   6  18
ATOM     18  O   UNL     1      -1.992  12.528  17.935  0.00  0.00    +0.000 OA
ATOM     19  H   UNL     1      -2.478  11.801  17.502  0.00  0.00    +0.000 HD
ENDBRANCH   6  18
ENDBRANCH   1   4
BRANCH   1  23
ATOM     20  C   UNL     1       2.899   6.456  18.430  0.00  0.00    +0.000 A 
ATOM     21  C   UNL     1       2.669   7.675  17.776  0.00  0.00    +0.000 A 
ATOM     22  C   UNL     1       1.942   8.714  18.398  0.00  0.00    +0.000 A 
ATOM     23  C   UNL     1       1.423   8.520  19.675  0.00  0.00    +0.000 A 
ATOM     24  C   UNL     1       1.643   7.291  20.326  0.00  0.00    +0.000 A 
ATOM     25  C   UNL     1       2.365   6.267  19.702  0.00  0.00    +0.000 A 
BRANCH  20  26
ATOM     26  O   UNL     1       3.580   5.382  17.918  0.00  0.00    +0.000 OA
BRANCH  26  27
ATOM     27  C   UNL     1       4.563   5.663  16.914  0.00  0.00    +0.000 C 
BRANCH  27  33
ATOM     28  C   UNL     1       8.246   9.048  17.707  0.00  0.00    +0.000 C 
ATOM     29  C   UNL     1       7.665   7.687  17.960  0.00  0.00    +0.000 A 
ATOM     30  C   UNL     1       8.298   6.784  18.818  0.00  0.00    +0.000 A 
ATOM     31  C   UNL     1       7.742   5.526  19.044  0.00  0.00    +0.000 A 
ATOM     32  C   UNL     1       6.550   5.160  18.411  0.00  0.00    +0.000 A 
ATOM     33  C   UNL     1       5.900   6.046  17.535  0.00  0.00    +0.000 A 
ATOM     34  C   UNL     1       6.464   7.314  17.329  0.00  0.00    +0.000 A 
ENDBRANCH  27  33
ENDBRANCH  26  27
ENDBRANCH  20  26
ENDBRANCH   1  23
TORSDOF 8
ENDMDL
MODEL 9
REMARK VINA RESULT:      -7.7      5.468      8.326
REMARK  Name = 
REMARK  11 active torsions:
REMARK  status: ('A' for Active; 'I' for Inactive)
REMARK    1  A    between atoms: C_1  and  C_2
REMARK    2  A    between atoms: C_6  and  C_7
REMARK    3  A    between atoms: C_7  and  O_8
REMARK    4  A    between atoms: O_8  and  C_9
REMARK    5  A    between atoms: C_12  and  S_13
REMARK    6  A    between atoms: S_13  and  N_16
REMARK    7  A    between atoms: C_18  and  O_19
REMARK    8  A    between atoms: C_21  and  C_22
REMARK    9  A    between atoms: C_21  and  C_23
REMARK   10  A    between atoms: C_24  and  C_25
REMARK   11  A    between atoms: N_27  and  O_28
REMARK                            x       y       z     vdW  Elec       q    Type
REMARK                         _______ _______ _______ _____ _____    ______ ____
ROOT
ATOM      1  S   UNL     1       2.953   6.960  18.025  0.00  0.00    +0.000 S 
ATOM      2  O   UNL     1       1.908   6.118  17.476  0.00  0.00    +0.000 OA
ATOM      3  O   UNL     1       3.768   7.796  17.173  0.00  0.00    +0.000 OA
ENDROOT
BRANCH   1   4
ATOM      4  N   UNL     1       4.051   5.925  18.857  0.00  0.00    +0.000 NA
ATOM      5  C   UNL     1       3.533   4.572  19.164  0.00  0.00    +0.000 C 
ATOM      6  C   UNL     1       3.498   3.661  17.932  0.00  0.00    +0.000 C 
ATOM      7  C   UNL     1       4.753   3.688  17.038  0.00  0.00    +0.000 C 
ATOM      8  C   UNL     1       5.551   5.020  16.906  0.00  0.00    +0.000 C 
ATOM      9  C   UNL     1       5.168   5.904  15.691  0.00  0.00    +0.000 C 
ATOM     10  C   UNL     1       7.012   4.615  16.496  0.00  0.00    +0.000 C 
ATOM     11  C   UNL     1       5.486   5.827  18.253  0.00  0.00    +0.000 C 
BRANCH  11  12
ATOM     12  C   UNL     1       6.407   5.141  19.304  0.00  0.00    +0.000 C 
ATOM     13  O   UNL     1       6.167   4.047  19.828  0.00  0.00    +0.000 OA
ATOM     14  N   UNL     1       7.538   5.830  19.669  0.00  0.00    +0.000 N 
ATOM     15  H   UNL     1       7.523   6.845  19.719  0.00  0.00    +0.000 HD
BRANCH  14  16
ATOM     16  O   UNL     1       8.300   5.182  20.679  0.00  0.00    +0.000 OA
ATOM     17  H   UNL     1       9.125   5.729  20.710  0.00  0.00    +0.000 HD
ENDBRANCH  14  16
ENDBRANCH  11  12
BRANCH   6  18
ATOM     18  O   UNL     1       3.274   2.313  18.372  0.00  0.00    +0.000 OA
ATOM     19  H   UNL     1       3.088   2.334  19.330  0.00  0.00    +0.000 HD
ENDBRANCH   6  18
ENDBRANCH   1   4
BRANCH   1  23
ATOM     20  C   UNL     1       0.348   9.474  20.868  0.00  0.00    +0.000 A 
ATOM     21  C   UNL     1       0.601   9.934  19.568  0.00  0.00    +0.000 A 
ATOM     22  C   UNL     1       1.455   9.225  18.694  0.00  0.00    +0.000 A 
ATOM     23  C   UNL     1       2.076   8.060  19.135  0.00  0.00    +0.000 A 
ATOM     24  C   UNL     1       1.831   7.606  20.446  0.00  0.00    +0.000 A 
ATOM     25  C   UNL     1       0.984   8.314  21.304  0.00  0.00    +0.000 A 
BRANCH  20  26
ATOM     26  O   UNL     1      -0.452  10.087  21.798  0.00  0.00    +0.000 OA
BRANCH  26  27
ATOM     27  C   UNL     1      -0.474  11.520  21.784  0.00  0.00    +0.000 C 
BRANCH  27  33
ATOM     28  C   UNL     1      -4.905  13.453  20.273  0.00  0.00    +0.000 C 
ATOM     29  C   UNL     1      -4.023  12.953  21.381  0.00  0.00    +0.000 A 
ATOM     30  C   UNL     1      -4.482  12.908  22.700  0.00  0.00    +0.000 A 
ATOM     31  C   UNL     1      -3.650  12.438  23.715  0.00  0.00    +0.000 A 
ATOM     32  C   UNL     1      -2.351  12.012  23.419  0.00  0.00    +0.000 A 
ATOM     33  C   UNL     1      -1.863  12.059  22.102  0.00  0.00    +0.000 A 
ATOM     34  C   UNL     1      -2.717  12.521  21.089  0.00  0.00    +0.000 A 
ENDBRANCH  27  33
ENDBRANCH  26  27
ENDBRANCH  20  26
ENDBRANCH   1  23
TORSDOF 8
ENDMDL
