MODEL 1
REMARK VINA RESULT:      -7.9      0.000      0.000
REMARK  Name = 
REMARK  10 active torsions:
REMARK  status: ('A' for Active; 'I' for Inactive)
REMARK    1  A    between atoms: C_1  and  C_2
REMARK    2  A    between atoms: C_2  and  N_3
REMARK    3  A    between atoms: N_3  and  C_4
REMARK    4  A    between atoms: N_3  and  C_6
REMARK    5  A    between atoms: C_4  and  C_5
REMARK    6  A    between atoms: C_9  and  N_10
REMARK    7  A    between atoms: C_11  and  C_13
REMARK    8  A    between atoms: C_22  and  C_23
REMARK    9  A    between atoms: N_27  and  C_28
REMARK   10  A    between atoms: C_29  and  C_30
REMARK                            x       y       z     vdW  Elec       q    Type
REMARK                         _______ _______ _______ _____ _____    ______ ____
ROOT
ATOM      1  N   UNL     1       0.785   9.090  20.464  0.00  0.00    +0.000 N 
ATOM      2  C   UNL     1       1.002   9.712  21.687  0.00  0.00    +0.000 C 
ATOM      3  O   UNL     1       1.844   9.387  22.515  0.00  0.00    +0.000 OA
ATOM      4  H   UNL     1      -0.051   9.367  19.971  0.00  0.00    +0.000 HD
ENDROOT
BRANCH   2   5
ATOM      5  C   UNL     1       0.034  10.760  21.958  0.00  0.00    +0.000 A 
ATOM      6  C   UNL     1      -1.173  10.667  22.639  0.00  0.00    +0.000 A 
ATOM      7  C   UNL     1      -1.666  11.977  22.797  0.00  0.00    +0.000 A 
ATOM      8  C   UNL     1      -2.795  12.501  23.517  0.00  0.00    +0.000 A 
ATOM      9  O   UNL     1      -3.574  11.761  24.114  0.00  0.00    +0.000 OA
ATOM     10  N   UNL     1      -2.871  13.907  23.487  0.00  0.00    +0.000 N 
ATOM     11  C   UNL     1      -3.895  14.508  24.207  0.00  0.00    +0.000 A 
ATOM     12  C   UNL     1      -4.049  15.834  24.253  0.00  0.00    +0.000 A 
ATOM     13  C   UNL     1      -3.142  16.681  23.535  0.00  0.00    +0.000 A 
ATOM     14  C   UNL     1      -2.122  16.178  22.825  0.00  0.00    +0.000 A 
ATOM     15  C   UNL     1      -1.163  17.045  22.070  0.00  0.00    +0.000 C 
ATOM     16  C   UNL     1      -1.929  14.684  22.770  0.00  0.00    +0.000 A 
ATOM     17  N   UNL     1      -0.922  14.188  22.091  0.00  0.00    +0.000 NA
ATOM     18  C   UNL     1      -0.825  12.839  22.144  0.00  0.00    +0.000 A 
ATOM     19  N   UNL     1       0.175  12.087  21.572  0.00  0.00    +0.000 N 
ATOM     20  C   UNL     1       1.268  12.606  20.777  0.00  0.00    +0.000 C 
ENDBRANCH   2   5
BRANCH   1  24
ATOM     21  C   UNL     1       3.049   5.803  18.900  0.00  0.00    +0.000 A 
ATOM     22  C   UNL     1       2.354   5.732  20.117  0.00  0.00    +0.000 A 
ATOM     23  C   UNL     1       1.617   6.805  20.625  0.00  0.00    +0.000 A 
ATOM     24  C   UNL     1       1.509   8.002  19.928  0.00  0.00    +0.000 A 
ATOM     25  C   UNL     1       2.149   8.107  18.682  0.00  0.00    +0.000 A 
ATOM     26  C   UNL     1       2.091   9.329  17.802  0.00  0.00    +0.000 C 
ATOM     27  C   UNL     1       2.909   7.010  18.199  0.00  0.00    +0.000 A 
BRANCH  21  28
ATOM     28  N   UNL     1       3.821   4.731  18.421  0.00  0.00    +0.000 N 
BRANCH  28  30
ATOM     29  C   UNL     1       6.117   5.311  19.219  0.00  0.00    +0.000 C 
ATOM     30  C   UNL     1       4.987   4.287  19.201  0.00  0.00    +0.000 C 
ENDBRANCH  28  30
BRANCH  28  31
ATOM     31  C   UNL     1       3.167   3.819  17.463  0.00  0.00    +0.000 C 
ATOM     32  C   UNL     1       3.021   2.370  17.890  0.00  0.00    +0.000 C 
ENDBRANCH  28  31
ENDBRANCH  21  28
ENDBRANCH   1  24
TORSDOF 5
ENDMDL
MODEL 2
REMARK VINA RESULT:      -7.8      1.837     10.344
REMARK  Name = 
REMARK  10 active torsions:
REMARK  status: ('A' for Active; 'I' for Inactive)
REMARK    1  A    between atoms: C_1  and  C_2
REMARK    2  A    between atoms: C_2  and  N_3
REMARK    3  A    between atoms: N_3  and  C_4
REMARK    4  A    between atoms: N_3  and  C_6
REMARK    5  A    between atoms: C_4  and  C_5
REMARK    6  A    between atoms: C_9  and  N_10
REMARK    7  A    between atoms: C_11  and  C_13
REMARK    8  A    between atoms: C_22  and  C_23
REMARK    9  A    between atoms: N_27  and  C_28
REMARK   10  A    between atoms: C_29  and  C_30
REMARK                            x       y       z     vdW  Elec       q    Type
REMARK                         _______ _______ _______ _____ _____    ______ ____
ROOT
ATOM      1  N   UNL     1       0.335  10.632  21.500  0.00  0.00    +0.000 N 
ATOM      2  C   UNL     1       0.060   9.976  20.306  0.00  0.00    +0.000 C 
ATOM      3  O   UNL     1      -0.907  10.180  19.584  0.00  0.00    +0.000 OA
ATOM      4  H   UNL     1       1.075  10.235  22.060  0.00  0.00    +0.000 HD
ENDROOT
BRANCH   2   5
ATOM      5  C   UNL     1       1.003   8.906  20.029  0.00  0.00    +0.000 A 
ATOM      6  C   UNL     1       1.202   7.725  20.731  0.00  0.00    +0.000 A 
ATOM      7  C   UNL     1       2.093   6.936  19.978  0.00  0.00    +0.000 A 
ATOM      8  C   UNL     1       2.560   5.586  20.143  0.00  0.00    +0.000 A 
ATOM      9  O   UNL     1       2.220   4.904  21.108  0.00  0.00    +0.000 OA
ATOM     10  N   UNL     1       3.387   5.149  19.090  0.00  0.00    +0.000 N 
ATOM     11  C   UNL     1       3.837   3.837  19.132  0.00  0.00    +0.000 A 
ATOM     12  C   UNL     1       4.617   3.321  18.178  0.00  0.00    +0.000 A 
ATOM     13  C   UNL     1       5.020   4.137  17.070  0.00  0.00    +0.000 A 
ATOM     14  C   UNL     1       4.619   5.411  16.952  0.00  0.00    +0.000 A 
ATOM     15  C   UNL     1       5.026   6.279  15.803  0.00  0.00    +0.000 C 
ATOM     16  C   UNL     1       3.732   6.005  18.016  0.00  0.00    +0.000 A 
ATOM     17  N   UNL     1       3.322   7.246  17.896  0.00  0.00    +0.000 NA
ATOM     18  C   UNL     1       2.500   7.660  18.888  0.00  0.00    +0.000 A 
ATOM     19  N   UNL     1       1.889   8.890  18.958  0.00  0.00    +0.000 N 
ATOM     20  C   UNL     1       2.056   9.968  18.006  0.00  0.00    +0.000 C 
ENDBRANCH   2   5
BRANCH   1  24
ATOM     21  C   UNL     1      -2.017  13.778  23.215  0.00  0.00    +0.000 A 
ATOM     22  C   UNL     1      -2.272  12.421  23.464  0.00  0.00    +0.000 A 
ATOM     23  C   UNL     1      -1.505  11.397  22.904  0.00  0.00    +0.000 A 
ATOM     24  C   UNL     1      -0.417  11.675  22.084  0.00  0.00    +0.000 A 
ATOM     25  C   UNL     1      -0.092  13.020  21.841  0.00  0.00    +0.000 A 
ATOM     26  C   UNL     1       1.076  13.469  21.003  0.00  0.00    +0.000 C 
ATOM     27  C   UNL     1      -0.902  14.040  22.405  0.00  0.00    +0.000 A 
BRANCH  21  28
ATOM     28  N   UNL     1      -2.823  14.797  23.751  0.00  0.00    +0.000 N 
BRANCH  28  30
ATOM     29  C   UNL     1      -5.080  14.715  22.681  0.00  0.00    +0.000 C 
ATOM     30  C   UNL     1      -4.258  14.540  23.953  0.00  0.00    +0.000 C 
ENDBRANCH  28  30
BRANCH  28  31
ATOM     31  C   UNL     1      -2.135  15.854  24.516  0.00  0.00    +0.000 C 
ATOM     32  C   UNL     1      -1.693  15.500  25.924  0.00  0.00    +0.000 C 
ENDBRANCH  28  31
ENDBRANCH  21  28
ENDBRANCH   1  24
TORSDOF 5
ENDMDL
MODEL 3
REMARK VINA RESULT:      -7.8      0.432      1.378
REMARK  Name = 
REMARK  10 active torsions:
REMARK  status: ('A' for Active; 'I' for Inactive)
REMARK    1  A    between atoms: C_1  and  C_2
REMARK    2  A    between atoms: C_2  and  N_3
REMARK    3  A    between atoms: N_3  and  C_4
REMARK    4  A    between atoms: N_3  and  C_6
REMARK    5  A    between atoms: C_4  and  C_5
REMARK    6  A    between atoms: C_9  and  N_10
REMARK    7  A    between atoms: C_11  and  C_13
REMARK    8  A    between atoms: C_22  and  C_23
REMARK    9  A    between atoms: N_27  and  C_28
REMARK   10  A    between atoms: C_29  and  C_30
REMARK                            x       y       z     vdW  Elec       q    Type
REMARK                         _______ _______ _______ _____ _____    ______ ____
ROOT
ATOM      1  N   UNL     1       0.685   9.216  20.566  0.00  0.00    +0.000 N 
ATOM      2  C   UNL     1       0.897   9.895  21.759  0.00  0.00    +0.000 C 
ATOM      3  O   UNL     1       1.768   9.641  22.582  0.00  0.00    +0.000 OA
ATOM      4  H   UNL     1      -0.172   9.436  20.081  0.00  0.00    +0.000 HD
ENDROOT
BRANCH   2   5
ATOM      5  C   UNL     1      -0.112  10.909  22.010  0.00  0.00    +0.000 A 
ATOM      6  C   UNL     1      -1.311  10.784  22.699  0.00  0.00    +0.000 A 
ATOM      7  C   UNL     1      -1.857  12.076  22.827  0.00  0.00    +0.000 A 
ATOM      8  C   UNL     1      -3.003  12.572  23.540  0.00  0.00    +0.000 A 
ATOM      9  O   UNL     1      -3.749  11.815  24.159  0.00  0.00    +0.000 OA
ATOM     10  N   UNL     1      -3.137  13.972  23.476  0.00  0.00    +0.000 N 
ATOM     11  C   UNL     1      -4.181  14.548  24.186  0.00  0.00    +0.000 A 
ATOM     12  C   UNL     1      -4.389  15.868  24.200  0.00  0.00    +0.000 A 
ATOM     13  C   UNL     1      -3.521  16.733  23.457  0.00  0.00    +0.000 A 
ATOM     14  C   UNL     1      -2.484  16.255  22.755  0.00  0.00    +0.000 A 
ATOM     15  C   UNL     1      -1.565  17.141  21.975  0.00  0.00    +0.000 C 
ATOM     16  C   UNL     1      -2.231  14.769  22.735  0.00  0.00    +0.000 A 
ATOM     17  N   UNL     1      -1.206  14.297  22.064  0.00  0.00    +0.000 NA
ATOM     18  C   UNL     1      -1.054  12.956  22.149  0.00  0.00    +0.000 A 
ATOM     19  N   UNL     1      -0.027  12.231  21.591  0.00  0.00    +0.000 N 
ATOM     20  C   UNL     1       1.041  12.774  20.778  0.00  0.00    +0.000 C 
ENDBRANCH   2   5
BRANCH   1  24
ATOM     21  C   UNL     1       3.063   5.972  19.086  0.00  0.00    +0.000 A 
ATOM     22  C   UNL     1       2.378   5.911  20.308  0.00  0.00    +0.000 A 
ATOM     23  C   UNL     1       1.603   6.969  20.789  0.00  0.00    +0.000 A 
ATOM     24  C   UNL     1       1.447   8.141  20.058  0.00  0.00    +0.000 A 
ATOM     25  C   UNL     1       2.077   8.233  18.806  0.00  0.00    +0.000 A 
ATOM     26  C   UNL     1       1.969   9.425  17.891  0.00  0.00    +0.000 C 
ATOM     27  C   UNL     1       2.875   7.152  18.351  0.00  0.00    +0.000 A 
BRANCH  21  28
ATOM     28  N   UNL     1       3.873   4.915  18.634  0.00  0.00    +0.000 N 
BRANCH  28  30
ATOM     29  C   UNL     1       2.163   3.507  17.478  0.00  0.00    +0.000 C 
ATOM     30  C   UNL     1       3.509   4.218  17.391  0.00  0.00    +0.000 C 
ENDBRANCH  28  30
BRANCH  28  31
ATOM     31  C   UNL     1       5.261   4.883  19.134  0.00  0.00    +0.000 C 
ATOM     32  C   UNL     1       6.309   5.576  18.283  0.00  0.00    +0.000 C 
ENDBRANCH  28  31
ENDBRANCH  21  28
ENDBRANCH   1  24
TORSDOF 5
ENDMDL
MODEL 4
REMARK VINA RESULT:      -7.8      1.854     10.301
REMARK  Name = 
REMARK  10 active torsions:
REMARK  status: ('A' for Active; 'I' for Inactive)
REMARK    1  A    between atoms: C_1  and  C_2
REMARK    2  A    between atoms: C_2  and  N_3
REMARK    3  A    between atoms: N_3  and  C_4
REMARK    4  A    between atoms: N_3  and  C_6
REMARK    5  A    between atoms: C_4  and  C_5
REMARK    6  A    between atoms: C_9  and  N_10
REMARK    7  A    between atoms: C_11  and  C_13
REMARK    8  A    between atoms: C_22  and  C_23
REMARK    9  A    between atoms: N_27  and  C_28
REMARK   10  A    between atoms: C_29  and  C_30
REMARK                            x       y       z     vdW  Elec       q    Type
REMARK                         _______ _______ _______ _____ _____    ______ ____
ROOT
ATOM      1  N   UNL     1       0.330  10.710  21.460  0.00  0.00    +0.000 N 
ATOM      2  C   UNL     1       0.036  10.036  20.281  0.00  0.00    +0.000 C 
ATOM      3  O   UNL     1      -0.944  10.228  19.572  0.00  0.00    +0.000 OA
ATOM      4  H   UNL     1       1.079  10.322  22.013  0.00  0.00    +0.000 HD
ENDROOT
BRANCH   2   5
ATOM      5  C   UNL     1       0.976   8.964  20.004  0.00  0.00    +0.000 A 
ATOM      6  C   UNL     1       1.171   7.781  20.705  0.00  0.00    +0.000 A 
ATOM      7  C   UNL     1       2.060   6.990  19.952  0.00  0.00    +0.000 A 
ATOM      8  C   UNL     1       2.523   5.638  20.116  0.00  0.00    +0.000 A 
ATOM      9  O   UNL     1       2.179   4.956  21.080  0.00  0.00    +0.000 OA
ATOM     10  N   UNL     1       3.350   5.200  19.064  0.00  0.00    +0.000 N 
ATOM     11  C   UNL     1       3.796   3.886  19.105  0.00  0.00    +0.000 A 
ATOM     12  C   UNL     1       4.576   3.370  18.151  0.00  0.00    +0.000 A 
ATOM     13  C   UNL     1       4.982   4.186  17.045  0.00  0.00    +0.000 A 
ATOM     14  C   UNL     1       4.585   5.461  16.928  0.00  0.00    +0.000 A 
ATOM     15  C   UNL     1       4.996   6.328  15.780  0.00  0.00    +0.000 C 
ATOM     16  C   UNL     1       3.698   6.056  17.992  0.00  0.00    +0.000 A 
ATOM     17  N   UNL     1       3.292   7.299  17.872  0.00  0.00    +0.000 NA
ATOM     18  C   UNL     1       2.470   7.714  18.863  0.00  0.00    +0.000 A 
ATOM     19  N   UNL     1       1.863   8.946  18.934  0.00  0.00    +0.000 N 
ATOM     20  C   UNL     1       2.035  10.025  17.984  0.00  0.00    +0.000 C 
ENDBRANCH   2   5
BRANCH   1  24
ATOM     21  C   UNL     1      -1.997  13.880  23.165  0.00  0.00    +0.000 A 
ATOM     22  C   UNL     1      -2.277  12.526  23.401  0.00  0.00    +0.000 A 
ATOM     23  C   UNL     1      -1.517  11.494  22.844  0.00  0.00    +0.000 A 
ATOM     24  C   UNL     1      -0.414  11.760  22.041  0.00  0.00    +0.000 A 
ATOM     25  C   UNL     1      -0.065  13.101  21.813  0.00  0.00    +0.000 A 
ATOM     26  C   UNL     1       1.121  13.539  20.993  0.00  0.00    +0.000 C 
ATOM     27  C   UNL     1      -0.867  14.130  22.372  0.00  0.00    +0.000 A 
BRANCH  21  28
ATOM     28  N   UNL     1      -2.795  14.908  23.697  0.00  0.00    +0.000 N 
BRANCH  28  30
ATOM     29  C   UNL     1      -1.834  15.443  25.941  0.00  0.00    +0.000 C 
ATOM     30  C   UNL     1      -2.164  15.938  24.537  0.00  0.00    +0.000 C 
ENDBRANCH  28  30
BRANCH  28  31
ATOM     31  C   UNL     1      -4.075  15.176  23.013  0.00  0.00    +0.000 C 
ATOM     32  C   UNL     1      -5.341  14.905  23.804  0.00  0.00    +0.000 C 
ENDBRANCH  28  31
ENDBRANCH  21  28
ENDBRANCH   1  24
TORSDOF 5
ENDMDL
MODEL 5
REMARK VINA RESULT:      -7.8      2.614      3.624
REMARK  Name = 
REMARK  10 active torsions:
REMARK  status: ('A' for Active; 'I' for Inactive)
REMARK    1  A    between atoms: C_1  and  C_2
REMARK    2  A    between atoms: C_2  and  N_3
REMARK    3  A    between atoms: N_3  and  C_4
REMARK    4  A    between atoms: N_3  and  C_6
REMARK    5  A    between atoms: C_4  and  C_5
REMARK    6  A    between atoms: C_9  and  N_10
REMARK    7  A    between atoms: C_11  and  C_13
REMARK    8  A    between atoms: C_22  and  C_23
REMARK    9  A    between atoms: N_27  and  C_28
REMARK   10  A    between atoms: C_29  and  C_30
REMARK                            x       y       z     vdW  Elec       q    Type
REMARK                         _______ _______ _______ _____ _____    ______ ____
ROOT
ATOM      1  N   UNL     1       1.857   8.120  19.024  0.00  0.00    +0.000 N 
ATOM      2  C   UNL     1       1.483   9.333  18.460  0.00  0.00    +0.000 C 
ATOM      3  O   UNL     1       1.997   9.855  17.478  0.00  0.00    +0.000 OA
ATOM      4  H   UNL     1       1.453   7.910  19.924  0.00  0.00    +0.000 HD
ENDROOT
BRANCH   2   5
ATOM      5  C   UNL     1       0.456  10.012  19.231  0.00  0.00    +0.000 A 
ATOM      6  C   UNL     1       0.530  10.503  20.527  0.00  0.00    +0.000 A 
ATOM      7  C   UNL     1      -0.651  11.230  20.768  0.00  0.00    +0.000 A 
ATOM      8  C   UNL     1      -1.070  12.050  21.872  0.00  0.00    +0.000 A 
ATOM      9  O   UNL     1      -0.368  12.186  22.872  0.00  0.00    +0.000 OA
ATOM     10  N   UNL     1      -2.311  12.680  21.660  0.00  0.00    +0.000 N 
ATOM     11  C   UNL     1      -2.770  13.541  22.648  0.00  0.00    +0.000 A 
ATOM     12  C   UNL     1      -3.929  14.196  22.538  0.00  0.00    +0.000 A 
ATOM     13  C   UNL     1      -4.744  14.011  21.374  0.00  0.00    +0.000 A 
ATOM     14  C   UNL     1      -4.367  13.205  20.372  0.00  0.00    +0.000 A 
ATOM     15  C   UNL     1      -5.202  13.000  19.147  0.00  0.00    +0.000 C 
ATOM     16  C   UNL     1      -3.057  12.465  20.476  0.00  0.00    +0.000 A 
ATOM     17  N   UNL     1      -2.675  11.688  19.489  0.00  0.00    +0.000 NA
ATOM     18  C   UNL     1      -1.468  11.106  19.674  0.00  0.00    +0.000 A 
ATOM     19  N   UNL     1      -0.820  10.303  18.765  0.00  0.00    +0.000 N 
ATOM     20  C   UNL     1      -1.340   9.906  17.473  0.00  0.00    +0.000 C 
ENDBRANCH   2   5
BRANCH   1  24
ATOM     21  C   UNL     1       4.858   5.448  17.531  0.00  0.00    +0.000 A 
ATOM     22  C   UNL     1       4.658   6.732  17.002  0.00  0.00    +0.000 A 
ATOM     23  C   UNL     1       3.679   7.601  17.490  0.00  0.00    +0.000 A 
ATOM     24  C   UNL     1       2.862   7.245  18.556  0.00  0.00    +0.000 A 
ATOM     25  C   UNL     1       3.056   5.987  19.152  0.00  0.00    +0.000 A 
ATOM     26  C   UNL     1       2.270   5.482  20.334  0.00  0.00    +0.000 C 
ATOM     27  C   UNL     1       4.042   5.115  18.622  0.00  0.00    +0.000 A 
BRANCH  21  28
ATOM     28  N   UNL     1       5.819   4.568  17.003  0.00  0.00    +0.000 N 
BRANCH  28  30
ATOM     29  C   UNL     1       6.732   4.569  14.677  0.00  0.00    +0.000 C 
ATOM     30  C   UNL     1       5.650   4.070  15.629  0.00  0.00    +0.000 C 
ENDBRANCH  28  30
BRANCH  28  31
ATOM     31  C   UNL     1       7.149   4.577  17.641  0.00  0.00    +0.000 C 
ATOM     32  C   UNL     1       7.563   5.860  18.338  0.00  0.00    +0.000 C 
ENDBRANCH  28  31
ENDBRANCH  21  28
ENDBRANCH   1  24
TORSDOF 5
ENDMDL
MODEL 6
REMARK VINA RESULT:      -7.7      2.894      3.530
REMARK  Name = 
REMARK  10 active torsions:
REMARK  status: ('A' for Active; 'I' for Inactive)
REMARK    1  A    between atoms: C_1  and  C_2
REMARK    2  A    between atoms: C_2  and  N_3
REMARK    3  A    between atoms: N_3  and  C_4
REMARK    4  A    between atoms: N_3  and  C_6
REMARK    5  A    between atoms: C_4  and  C_5
REMARK    6  A    between atoms: C_9  and  N_10
REMARK    7  A    between atoms: C_11  and  C_13
REMARK    8  A    between atoms: C_22  and  C_23
REMARK    9  A    between atoms: N_27  and  C_28
REMARK   10  A    between atoms: C_29  and  C_30
REMARK                            x       y       z     vdW  Elec       q    Type
REMARK                         _______ _______ _______ _____ _____    ______ ____
ROOT
ATOM      1  N   UNL     1       1.150   8.845  18.700  0.00  0.00    +0.000 N 
ATOM      2  C   UNL     1       1.201  10.216  18.477  0.00  0.00    +0.000 C 
ATOM      3  O   UNL     1       2.194  10.849  18.141  0.00  0.00    +0.000 OA
ATOM      4  H   UNL     1       0.306   8.501  19.134  0.00  0.00    +0.000 HD
ENDROOT
BRANCH   2   5
ATOM      5  C   UNL     1      -0.052  10.879  18.795  0.00  0.00    +0.000 A 
ATOM      6  C   UNL     1      -1.196  10.984  18.016  0.00  0.00    +0.000 A 
ATOM      7  C   UNL     1      -2.198  11.560  18.821  0.00  0.00    +0.000 A 
ATOM      8  C   UNL     1      -3.599  11.794  18.595  0.00  0.00    +0.000 A 
ATOM      9  O   UNL     1      -4.130  11.519  17.521  0.00  0.00    +0.000 OA
ATOM     10  N   UNL     1      -4.265  12.317  19.720  0.00  0.00    +0.000 N 
ATOM     11  C   UNL     1      -5.635  12.519  19.617  0.00  0.00    +0.000 A 
ATOM     12  C   UNL     1      -6.361  13.001  20.629  0.00  0.00    +0.000 A 
ATOM     13  C   UNL     1      -5.722  13.334  21.868  0.00  0.00    +0.000 A 
ATOM     14  C   UNL     1      -4.406  13.158  22.051  0.00  0.00    +0.000 A 
ATOM     15  C   UNL     1      -3.721  13.497  23.337  0.00  0.00    +0.000 C 
ATOM     16  C   UNL     1      -3.573  12.608  20.921  0.00  0.00    +0.000 A 
ATOM     17  N   UNL     1      -2.287  12.417  21.100  0.00  0.00    +0.000 NA
ATOM     18  C   UNL     1      -1.649  11.883  20.034  0.00  0.00    +0.000 A 
ATOM     19  N   UNL     1      -0.320  11.532  19.992  0.00  0.00    +0.000 N 
ATOM     20  C   UNL     1       0.633  11.715  21.066  0.00  0.00    +0.000 C 
ENDBRANCH   2   5
BRANCH   1  24
ATOM     21  C   UNL     1       4.315   6.006  18.161  0.00  0.00    +0.000 A 
ATOM     22  C   UNL     1       4.073   7.049  17.255  0.00  0.00    +0.000 A 
ATOM     23  C   UNL     1       3.040   7.974  17.432  0.00  0.00    +0.000 A 
ATOM     24  C   UNL     1       2.208   7.923  18.544  0.00  0.00    +0.000 A 
ATOM     25  C   UNL     1       2.440   6.925  19.505  0.00  0.00    +0.000 A 
ATOM     26  C   UNL     1       1.642   6.770  20.773  0.00  0.00    +0.000 C 
ATOM     27  C   UNL     1       3.481   5.985  19.289  0.00  0.00    +0.000 A 
BRANCH  21  28
ATOM     28  N   UNL     1       5.331   5.057  17.949  0.00  0.00    +0.000 N 
BRANCH  28  30
ATOM     29  C   UNL     1       7.534   5.882  18.793  0.00  0.00    +0.000 C 
ATOM     30  C   UNL     1       6.382   4.898  18.966  0.00  0.00    +0.000 C 
ENDBRANCH  28  30
BRANCH  28  31
ATOM     31  C   UNL     1       5.033   3.968  16.999  0.00  0.00    +0.000 C 
ATOM     32  C   UNL     1       5.818   3.962  15.700  0.00  0.00    +0.000 C 
ENDBRANCH  28  31
ENDBRANCH  21  28
ENDBRANCH   1  24
TORSDOF 5
ENDMDL
MODEL 7
REMARK VINA RESULT:      -7.7      2.592      3.390
REMARK  Name = 
REMARK  10 active torsions:
REMARK  status: ('A' for Active; 'I' for Inactive)
REMARK    1  A    between atoms: C_1  and  C_2
REMARK    2  A    between atoms: C_2  and  N_3
REMARK    3  A    between atoms: N_3  and  C_4
REMARK    4  A    between atoms: N_3  and  C_6
REMARK    5  A    between atoms: C_4  and  C_5
REMARK    6  A    between atoms: C_9  and  N_10
REMARK    7  A    between atoms: C_11  and  C_13
REMARK    8  A    between atoms: C_22  and  C_23
REMARK    9  A    between atoms: N_27  and  C_28
REMARK   10  A    between atoms: C_29  and  C_30
REMARK                            x       y       z     vdW  Elec       q    Type
REMARK                         _______ _______ _______ _____ _____    ______ ____
ROOT
ATOM      1  N   UNL     1       1.792   8.259  19.020  0.00  0.00    +0.000 N 
ATOM      2  C   UNL     1       1.413   9.482  18.481  0.00  0.00    +0.000 C 
ATOM      3  O   UNL     1       1.936  10.034  17.521  0.00  0.00    +0.000 OA
ATOM      4  H   UNL     1       1.377   8.022  19.909  0.00  0.00    +0.000 HD
ENDROOT
BRANCH   2   5
ATOM      5  C   UNL     1       0.366  10.129  19.252  0.00  0.00    +0.000 A 
ATOM      6  C   UNL     1       0.416  10.594  20.560  0.00  0.00    +0.000 A 
ATOM      7  C   UNL     1      -0.780  11.298  20.800  0.00  0.00    +0.000 A 
ATOM      8  C   UNL     1      -1.226  12.089  21.916  0.00  0.00    +0.000 A 
ATOM      9  O   UNL     1      -0.538  12.214  22.927  0.00  0.00    +0.000 OA
ATOM     10  N   UNL     1      -2.473  12.704  21.699  0.00  0.00    +0.000 N 
ATOM     11  C   UNL     1      -2.957  13.538  22.699  0.00  0.00    +0.000 A 
ATOM     12  C   UNL     1      -4.125  14.177  22.588  0.00  0.00    +0.000 A 
ATOM     13  C   UNL     1      -4.922  14.004  21.409  0.00  0.00    +0.000 A 
ATOM     14  C   UNL     1      -4.520  13.225  20.395  0.00  0.00    +0.000 A 
ATOM     15  C   UNL     1      -5.336  13.033  19.156  0.00  0.00    +0.000 C 
ATOM     16  C   UNL     1      -3.201  12.503  20.502  0.00  0.00    +0.000 A 
ATOM     17  N   UNL     1      -2.794  11.753  19.504  0.00  0.00    +0.000 NA
ATOM     18  C   UNL     1      -1.580  11.185  19.693  0.00  0.00    +0.000 A 
ATOM     19  N   UNL     1      -0.909  10.411  18.776  0.00  0.00    +0.000 N 
ATOM     20  C   UNL     1      -1.406  10.033  17.469  0.00  0.00    +0.000 C 
ENDBRANCH   2   5
BRANCH   1  24
ATOM     21  C   UNL     1       4.848   5.660  17.510  0.00  0.00    +0.000 A 
ATOM     22  C   UNL     1       4.630   6.948  16.999  0.00  0.00    +0.000 A 
ATOM     23  C   UNL     1       3.633   7.794  17.492  0.00  0.00    +0.000 A 
ATOM     24  C   UNL     1       2.816   7.408  18.548  0.00  0.00    +0.000 A 
ATOM     25  C   UNL     1       3.025   6.145  19.126  0.00  0.00    +0.000 A 
ATOM     26  C   UNL     1       2.240   5.609  20.294  0.00  0.00    +0.000 C 
ATOM     27  C   UNL     1       4.030   5.298  18.591  0.00  0.00    +0.000 A 
BRANCH  21  28
ATOM     28  N   UNL     1       5.827   4.804  16.976  0.00  0.00    +0.000 N 
BRANCH  28  30
ATOM     29  C   UNL     1       7.627   5.778  18.410  0.00  0.00    +0.000 C 
ATOM     30  C   UNL     1       7.040   4.529  17.762  0.00  0.00    +0.000 C 
ENDBRANCH  28  30
BRANCH  28  31
ATOM     31  C   UNL     1       5.387   3.870  15.922  0.00  0.00    +0.000 C 
ATOM     32  C   UNL     1       6.114   3.950  14.593  0.00  0.00    +0.000 C 
ENDBRANCH  28  31
ENDBRANCH  21  28
ENDBRANCH   1  24
TORSDOF 5
ENDMDL
MODEL 8
REMARK VINA RESULT:      -7.6      2.754      3.678
REMARK  Name = 
REMARK  10 active torsions:
REMARK  status: ('A' for Active; 'I' for Inactive)
REMARK    1  A    between atoms: C_1  and  C_2
REMARK    2  A    between atoms: C_2  and  N_3
REMARK    3  A    between atoms: N_3  and  C_4
REMARK    4  A    between atoms: N_3  and  C_6
REMARK    5  A    between atoms: C_4  and  C_5
REMARK    6  A    between atoms: C_9  and  N_10
REMARK    7  A    between atoms: C_11  and  C_13
REMARK    8  A    between atoms: C_22  and  C_23
REMARK    9  A    between atoms: N_27  and  C_28
REMARK   10  A    between atoms: C_29  and  C_30
REMARK                            x       y       z     vdW  Elec       q    Type
REMARK                         _______ _______ _______ _____ _____    ______ ____
ROOT
ATOM      1  N   UNL     1       1.382   8.723  18.691  0.00  0.00    +0.000 N 
ATOM      2  C   UNL     1       1.409  10.081  18.396  0.00  0.00    +0.000 C 
ATOM      3  O   UNL     1       2.363  10.694  17.934  0.00  0.00    +0.000 OA
ATOM      4  H   UNL     1       0.584   8.404  19.220  0.00  0.00    +0.000 HD
ENDROOT
BRANCH   2   5
ATOM      5  C   UNL     1       0.191  10.762  18.799  0.00  0.00    +0.000 A 
ATOM      6  C   UNL     1      -0.974  10.955  18.068  0.00  0.00    +0.000 A 
ATOM      7  C   UNL     1      -1.929  11.510  18.942  0.00  0.00    +0.000 A 
ATOM      8  C   UNL     1      -3.328  11.804  18.781  0.00  0.00    +0.000 A 
ATOM      9  O   UNL     1      -3.902  11.617  17.711  0.00  0.00    +0.000 OA
ATOM     10  N   UNL     1      -3.937  12.274  19.960  0.00  0.00    +0.000 N 
ATOM     11  C   UNL     1      -5.302  12.527  19.917  0.00  0.00    +0.000 A 
ATOM     12  C   UNL     1      -5.978  12.966  20.983  0.00  0.00    +0.000 A 
ATOM     13  C   UNL     1      -5.287  13.197  22.218  0.00  0.00    +0.000 A 
ATOM     14  C   UNL     1      -3.972  12.967  22.343  0.00  0.00    +0.000 A 
ATOM     15  C   UNL     1      -3.234  13.200  23.623  0.00  0.00    +0.000 C 
ATOM     16  C   UNL     1      -3.197  12.464  21.152  0.00  0.00    +0.000 A 
ATOM     17  N   UNL     1      -1.913  12.220  21.274  0.00  0.00    +0.000 NA
ATOM     18  C   UNL     1      -1.329  11.736  20.154  0.00  0.00    +0.000 A 
ATOM     19  N   UNL     1      -0.015  11.345  20.043  0.00  0.00    +0.000 N 
ATOM     20  C   UNL     1       0.979  11.427  21.093  0.00  0.00    +0.000 C 
ENDBRANCH   2   5
BRANCH   1  24
ATOM     21  C   UNL     1       4.496   5.865  17.980  0.00  0.00    +0.000 A 
ATOM     22  C   UNL     1       4.337   7.020  17.199  0.00  0.00    +0.000 A 
ATOM     23  C   UNL     1       3.321   7.950  17.432  0.00  0.00    +0.000 A 
ATOM     24  C   UNL     1       2.422   7.792  18.481  0.00  0.00    +0.000 A 
ATOM     25  C   UNL     1       2.569   6.675  19.320  0.00  0.00    +0.000 A 
ATOM     26  C   UNL     1       1.692   6.393  20.512  0.00  0.00    +0.000 C 
ATOM     27  C   UNL     1       3.596   5.734  19.047  0.00  0.00    +0.000 A 
BRANCH  21  28
ATOM     28  N   UNL     1       5.496   4.916  17.708  0.00  0.00    +0.000 N 
BRANCH  28  30
ATOM     29  C   UNL     1       5.760   3.964  15.412  0.00  0.00    +0.000 C 
ATOM     30  C   UNL     1       5.186   3.789  16.814  0.00  0.00    +0.000 C 
ENDBRANCH  28  30
BRANCH  28  31
ATOM     31  C   UNL     1       6.892   5.344  17.920  0.00  0.00    +0.000 C 
ATOM     32  C   UNL     1       7.293   5.682  19.344  0.00  0.00    +0.000 C 
ENDBRANCH  28  31
ENDBRANCH  21  28
ENDBRANCH   1  24
TORSDOF 5
ENDMDL
MODEL 9
REMARK VINA RESULT:      -7.5      1.953     10.417
REMARK  Name = 
REMARK  10 active torsions:
REMARK  status: ('A' for Active; 'I' for Inactive)
REMARK    1  A    between atoms: C_1  and  C_2
REMARK    2  A    between atoms: C_2  and  N_3
REMARK    3  A    between atoms: N_3  and  C_4
REMARK    4  A    between atoms: N_3  and  C_6
REMARK    5  A    between atoms: C_4  and  C_5
REMARK    6  A    between atoms: C_9  and  N_10
REMARK    7  A    between atoms: C_11  and  C_13
REMARK    8  A    between atoms: C_22  and  C_23
REMARK    9  A    between atoms: N_27  and  C_28
REMARK   10  A    between atoms: C_29  and  C_30
REMARK                            x       y       z     vdW  Elec       q    Type
REMARK                         _______ _______ _______ _____ _____    ______ ____
ROOT
ATOM      1  N   UNL     1       0.733  10.927  21.083  0.00  0.00    +0.000 N 
ATOM      2  C   UNL     1       0.250  10.063  20.108  0.00  0.00    +0.000 C 
ATOM      3  O   UNL     1      -0.854  10.123  19.582  0.00  0.00    +0.000 OA
ATOM      4  H   UNL     1       1.591  10.645  21.535  0.00  0.00    +0.000 HD
ENDROOT
BRANCH   2   5
ATOM      5  C   UNL     1       1.166   8.970  19.830  0.00  0.00    +0.000 A 
ATOM      6  C   UNL     1       1.347   7.791  20.539  0.00  0.00    +0.000 A 
ATOM      7  C   UNL     1       2.212   6.976  19.784  0.00  0.00    +0.000 A 
ATOM      8  C   UNL     1       2.651   5.617  19.955  0.00  0.00    +0.000 A 
ATOM      9  O   UNL     1       2.306   4.951  20.929  0.00  0.00    +0.000 OA
ATOM     10  N   UNL     1       3.456   5.154  18.897  0.00  0.00    +0.000 N 
ATOM     11  C   UNL     1       3.877   3.832  18.945  0.00  0.00    +0.000 A 
ATOM     12  C   UNL     1       4.635   3.292  17.986  0.00  0.00    +0.000 A 
ATOM     13  C   UNL     1       5.043   4.089  16.868  0.00  0.00    +0.000 A 
ATOM     14  C   UNL     1       4.669   5.371  16.743  0.00  0.00    +0.000 A 
ATOM     15  C   UNL     1       5.082   6.219  15.582  0.00  0.00    +0.000 C 
ATOM     16  C   UNL     1       3.807   5.993  17.812  0.00  0.00    +0.000 A 
ATOM     17  N   UNL     1       3.423   7.242  17.686  0.00  0.00    +0.000 NA
ATOM     18  C   UNL     1       2.622   7.682  18.683  0.00  0.00    +0.000 A 
ATOM     19  N   UNL     1       2.039   8.925  18.749  0.00  0.00    +0.000 N 
ATOM     20  C   UNL     1       2.220   9.992  17.787  0.00  0.00    +0.000 C 
ENDBRANCH   2   5
BRANCH   1  24
ATOM     21  C   UNL     1      -1.208  14.362  22.758  0.00  0.00    +0.000 A 
ATOM     22  C   UNL     1      -0.293  14.452  21.697  0.00  0.00    +0.000 A 
ATOM     23  C   UNL     1       0.338  13.331  21.153  0.00  0.00    +0.000 A 
ATOM     24  C   UNL     1       0.068  12.051  21.621  0.00  0.00    +0.000 A 
ATOM     25  C   UNL     1      -0.876  11.904  22.651  0.00  0.00    +0.000 A 
ATOM     26  C   UNL     1      -1.293  10.578  23.233  0.00  0.00    +0.000 C 
ATOM     27  C   UNL     1      -1.486  13.061  23.201  0.00  0.00    +0.000 A 
BRANCH  21  28
ATOM     28  N   UNL     1      -1.804  15.503  23.323  0.00  0.00    +0.000 N 
BRANCH  28  30
ATOM     29  C   UNL     1      -3.735  15.719  21.751  0.00  0.00    +0.000 C 
ATOM     30  C   UNL     1      -3.259  15.683  23.200  0.00  0.00    +0.000 C 
ENDBRANCH  28  30
BRANCH  28  31
ATOM     31  C   UNL     1      -1.052  16.181  24.396  0.00  0.00    +0.000 C 
ATOM     32  C   UNL     1      -1.258  15.663  25.807  0.00  0.00    +0.000 C 
ENDBRANCH  28  31
ENDBRANCH  21  28
ENDBRANCH   1  24
TORSDOF 5
ENDMDL
