MODEL 1
REMARK VINA RESULT:      -6.7      0.000      0.000
REMARK  Name = 
REMARK  8 active torsions:
REMARK  status: ('A' for Active; 'I' for Inactive)
REMARK    1  A    between atoms: C_1  and  O_2
REMARK    2  A    between atoms: O_2  and  C_3
REMARK    3  A    between atoms: C_6  and  C_7
REMARK    4  A    between atoms: C_7  and  N_8
REMARK    5  A    between atoms: C_10  and  C_11
REMARK    6  A    between atoms: C_11  and  O_12
REMARK    7  A    between atoms: C_14  and  C_15
REMARK    8  A    between atoms: C_14  and  C_16
REMARK                            x       y       z     vdW  Elec       q    Type
REMARK                         _______ _______ _______ _____ _____    ______ ____
ROOT
ATOM      1  N   UNL     1       4.844   6.865  17.091  0.00  0.00    +0.000 NA
ATOM      2  C   UNL     1       6.133   6.963  17.808  0.00  0.00    +0.000 C 
ATOM      3  C   UNL     1       6.619   5.600  18.338  0.00  0.00    +0.000 C 
ATOM      4  O   UNL     1       6.733   4.603  17.303  0.00  0.00    +0.000 OA
ATOM      5  C   UNL     1       5.672   4.530  16.315  0.00  0.00    +0.000 C 
ATOM      6  C   UNL     1       4.527   3.552  16.667  0.00  0.00    +0.000 C 
ATOM      7  C   UNL     1       6.374   3.865  15.112  0.00  0.00    +0.000 C 
ATOM      8  C   UNL     1       5.103   5.947  15.944  0.00  0.00    +0.000 C 
ENDROOT
BRANCH   1   9
ATOM      9  C   UNL     1       3.756   6.394  17.969  0.00  0.00    +0.000 C 
BRANCH   9  13
ATOM     10  C   UNL     1       1.159   9.530  19.224  0.00  0.00    +0.000 A 
ATOM     11  N   UNL     1       1.598   9.507  17.946  0.00  0.00    +0.000 NA
ATOM     12  C   UNL     1       2.366   8.456  17.586  0.00  0.00    +0.000 A 
ATOM     13  C   UNL     1       2.728   7.402  18.433  0.00  0.00    +0.000 A 
ATOM     14  C   UNL     1       2.220   7.431  19.729  0.00  0.00    +0.000 A 
ATOM     15  C   UNL     1       1.422   8.500  20.138  0.00  0.00    +0.000 A 
ATOM     16 CL   UNL     1       0.845   8.541  21.758  0.00  0.00    +0.000 Cl
BRANCH  10  18
ATOM     17  C   UNL     1      -0.928  10.622  19.276  0.00  0.00    +0.000 C 
ATOM     18  O   UNL     1       0.441  10.622  19.670  0.00  0.00    +0.000 OA
ENDBRANCH  10  18
ENDBRANCH   9  13
ENDBRANCH   1   9
BRANCH   3  19
ATOM     19  C   UNL     1       7.967   5.777  19.058  0.00  0.00    +0.000 C 
BRANCH  19  20
ATOM     20  O   UNL     1       7.920   5.445  20.441  0.00  0.00    +0.000 OA
ATOM     21  H   UNL     1       7.172   5.932  20.830  0.00  0.00    +0.000 HD
ENDBRANCH  19  20
ENDBRANCH   3  19
TORSDOF 5
ENDMDL
MODEL 2
REMARK VINA RESULT:      -6.7      1.847      2.269
REMARK  Name = 
REMARK  8 active torsions:
REMARK  status: ('A' for Active; 'I' for Inactive)
REMARK    1  A    between atoms: C_1  and  O_2
REMARK    2  A    between atoms: O_2  and  C_3
REMARK    3  A    between atoms: C_6  and  C_7
REMARK    4  A    between atoms: C_7  and  N_8
REMARK    5  A    between atoms: C_10  and  C_11
REMARK    6  A    between atoms: C_11  and  O_12
REMARK    7  A    between atoms: C_14  and  C_15
REMARK    8  A    between atoms: C_14  and  C_16
REMARK                            x       y       z     vdW  Elec       q    Type
REMARK                         _______ _______ _______ _____ _____    ______ ____
ROOT
ATOM      1  N   UNL     1       3.488   5.789  18.010  0.00  0.00    +0.000 NA
ATOM      2  C   UNL     1       4.964   5.864  17.980  0.00  0.00    +0.000 C 
ATOM      3  C   UNL     1       5.618   5.129  19.166  0.00  0.00    +0.000 C 
ATOM      4  O   UNL     1       5.221   3.746  19.258  0.00  0.00    +0.000 OA
ATOM      5  C   UNL     1       3.821   3.429  19.041  0.00  0.00    +0.000 C 
ATOM      6  C   UNL     1       2.955   3.415  20.321  0.00  0.00    +0.000 C 
ATOM      7  C   UNL     1       3.872   1.948  18.609  0.00  0.00    +0.000 C 
ATOM      8  C   UNL     1       3.169   4.333  17.933  0.00  0.00    +0.000 C 
ENDROOT
BRANCH   1   9
ATOM      9  C   UNL     1       2.926   6.438  19.210  0.00  0.00    +0.000 C 
BRANCH   9  13
ATOM     10  C   UNL     1       1.249  10.317  18.673  0.00  0.00    +0.000 A 
ATOM     11  N   UNL     1       1.911   9.735  17.647  0.00  0.00    +0.000 NA
ATOM     12  C   UNL     1       2.365   8.479  17.852  0.00  0.00    +0.000 A 
ATOM     13  C   UNL     1       2.195   7.750  19.034  0.00  0.00    +0.000 A 
ATOM     14  C   UNL     1       1.469   8.360  20.054  0.00  0.00    +0.000 A 
ATOM     15  C   UNL     1       0.982   9.657  19.879  0.00  0.00    +0.000 A 
ATOM     16 CL   UNL     1       0.130  10.410  21.169  0.00  0.00    +0.000 Cl
BRANCH  10  18
ATOM     17  C   UNL     1       1.892  12.584  18.619  0.00  0.00    +0.000 C 
ATOM     18  O   UNL     1       0.837  11.629  18.549  0.00  0.00    +0.000 OA
ENDBRANCH  10  18
ENDBRANCH   9  13
ENDBRANCH   1   9
BRANCH   3  19
ATOM     19  C   UNL     1       7.148   5.238  19.061  0.00  0.00    +0.000 C 
BRANCH  19  20
ATOM     20  O   UNL     1       7.783   5.539  20.299  0.00  0.00    +0.000 OA
ATOM     21  H   UNL     1       7.494   4.869  20.942  0.00  0.00    +0.000 HD
ENDBRANCH  19  20
ENDBRANCH   3  19
TORSDOF 5
ENDMDL
MODEL 3
REMARK VINA RESULT:      -6.6      2.821      3.541
REMARK  Name = 
REMARK  8 active torsions:
REMARK  status: ('A' for Active; 'I' for Inactive)
REMARK    1  A    between atoms: C_1  and  O_2
REMARK    2  A    between atoms: O_2  and  C_3
REMARK    3  A    between atoms: C_6  and  C_7
REMARK    4  A    between atoms: C_7  and  N_8
REMARK    5  A    between atoms: C_10  and  C_11
REMARK    6  A    between atoms: C_11  and  O_12
REMARK    7  A    between atoms: C_14  and  C_15
REMARK    8  A    between atoms: C_14  and  C_16
REMARK                            x       y       z     vdW  Elec       q    Type
REMARK                         _______ _______ _______ _____ _____    ______ ____
ROOT
ATOM      1  N   UNL     1       3.421   4.886  18.251  0.00  0.00    +0.000 NA
ATOM      2  C   UNL     1       4.369   3.791  18.547  0.00  0.00    +0.000 C 
ATOM      3  C   UNL     1       3.986   3.006  19.817  0.00  0.00    +0.000 C 
ATOM      4  O   UNL     1       2.650   2.468  19.764  0.00  0.00    +0.000 OA
ATOM      5  C   UNL     1       1.600   3.317  19.233  0.00  0.00    +0.000 C 
ATOM      6  C   UNL     1       0.856   4.165  20.292  0.00  0.00    +0.000 C 
ATOM      7  C   UNL     1       0.542   2.296  18.763  0.00  0.00    +0.000 C 
ATOM      8  C   UNL     1       2.102   4.218  18.047  0.00  0.00    +0.000 C 
ENDROOT
BRANCH   1   9
ATOM      9  C   UNL     1       3.391   5.898  19.324  0.00  0.00    +0.000 C 
BRANCH   9  13
ATOM     10  C   UNL     1       1.413   9.612  18.659  0.00  0.00    +0.000 A 
ATOM     11  N   UNL     1       2.104   9.042  17.648  0.00  0.00    +0.000 NA
ATOM     12  C   UNL     1       2.657   7.834  17.895  0.00  0.00    +0.000 A 
ATOM     13  C   UNL     1       2.559   7.142  19.108  0.00  0.00    +0.000 A 
ATOM     14  C   UNL     1       1.800   7.736  20.113  0.00  0.00    +0.000 A 
ATOM     15  C   UNL     1       1.212   8.983  19.895  0.00  0.00    +0.000 A 
ATOM     16 CL   UNL     1       0.320   9.720  21.167  0.00  0.00    +0.000 Cl
BRANCH  10  18
ATOM     17  C   UNL     1       1.847  11.928  18.677  0.00  0.00    +0.000 C 
ATOM     18  O   UNL     1       0.898  10.882  18.490  0.00  0.00    +0.000 OA
ENDBRANCH  10  18
ENDBRANCH   9  13
ENDBRANCH   1   9
BRANCH   3  19
ATOM     19  C   UNL     1       5.006   1.879  20.054  0.00  0.00    +0.000 C 
BRANCH  19  20
ATOM     20  O   UNL     1       5.196   1.564  21.429  0.00  0.00    +0.000 OA
ATOM     21  H   UNL     1       4.757   0.711  21.593  0.00  0.00    +0.000 HD
ENDBRANCH  19  20
ENDBRANCH   3  19
TORSDOF 5
ENDMDL
MODEL 4
REMARK VINA RESULT:      -6.6      4.377      6.952
REMARK  Name = 
REMARK  8 active torsions:
REMARK  status: ('A' for Active; 'I' for Inactive)
REMARK    1  A    between atoms: C_1  and  O_2
REMARK    2  A    between atoms: O_2  and  C_3
REMARK    3  A    between atoms: C_6  and  C_7
REMARK    4  A    between atoms: C_7  and  N_8
REMARK    5  A    between atoms: C_10  and  C_11
REMARK    6  A    between atoms: C_11  and  O_12
REMARK    7  A    between atoms: C_14  and  C_15
REMARK    8  A    between atoms: C_14  and  C_16
REMARK                            x       y       z     vdW  Elec       q    Type
REMARK                         _______ _______ _______ _____ _____    ______ ____
ROOT
ATOM      1  N   UNL     1       3.049   3.945  17.213  0.00  0.00    +0.000 NA
ATOM      2  C   UNL     1       3.646   2.741  17.830  0.00  0.00    +0.000 C 
ATOM      3  C   UNL     1       4.053   2.971  19.298  0.00  0.00    +0.000 C 
ATOM      4  O   UNL     1       2.960   3.425  20.120  0.00  0.00    +0.000 OA
ATOM      5  C   UNL     1       2.074   4.435  19.569  0.00  0.00    +0.000 C 
ATOM      6  C   UNL     1       2.479   5.893  19.885  0.00  0.00    +0.000 C 
ATOM      7  C   UNL     1       0.776   4.224  20.378  0.00  0.00    +0.000 C 
ATOM      8  C   UNL     1       1.834   4.241  18.028  0.00  0.00    +0.000 C 
ENDROOT
BRANCH   1   9
ATOM      9  C   UNL     1       3.999   5.072  17.167  0.00  0.00    +0.000 C 
BRANCH   9  13
ATOM     10  C   UNL     1       7.359   5.150  14.550  0.00  0.00    +0.000 A 
ATOM     11  N   UNL     1       7.418   5.822  15.722  0.00  0.00    +0.000 NA
ATOM     12  C   UNL     1       6.350   5.709  16.541  0.00  0.00    +0.000 A 
ATOM     13  C   UNL     1       5.206   4.952  16.264  0.00  0.00    +0.000 A 
ATOM     14  C   UNL     1       5.197   4.235  15.071  0.00  0.00    +0.000 A 
ATOM     15  C   UNL     1       6.283   4.325  14.199  0.00  0.00    +0.000 A 
ATOM     16 CL   UNL     1       6.230   3.470  12.707  0.00  0.00    +0.000 Cl
BRANCH  10  18
ATOM     17  C   UNL     1       7.990   5.874  12.398  0.00  0.00    +0.000 C 
ATOM     18  O   UNL     1       8.386   5.296  13.638  0.00  0.00    +0.000 OA
ENDBRANCH  10  18
ENDBRANCH   9  13
ENDBRANCH   1   9
BRANCH   3  19
ATOM     19  C   UNL     1       4.652   1.677  19.876  0.00  0.00    +0.000 C 
BRANCH  19  20
ATOM     20  O   UNL     1       4.599   0.574  18.977  0.00  0.00    +0.000 OA
ATOM     21  H   UNL     1       5.506   0.410  18.667  0.00  0.00    +0.000 HD
ENDBRANCH  19  20
ENDBRANCH   3  19
TORSDOF 5
ENDMDL
MODEL 5
REMARK VINA RESULT:      -6.5      1.633      2.562
REMARK  Name = 
REMARK  8 active torsions:
REMARK  status: ('A' for Active; 'I' for Inactive)
REMARK    1  A    between atoms: C_1  and  O_2
REMARK    2  A    between atoms: O_2  and  C_3
REMARK    3  A    between atoms: C_6  and  C_7
REMARK    4  A    between atoms: C_7  and  N_8
REMARK    5  A    between atoms: C_10  and  C_11
REMARK    6  A    between atoms: C_11  and  O_12
REMARK    7  A    between atoms: C_14  and  C_15
REMARK    8  A    between atoms: C_14  and  C_16
REMARK                            x       y       z     vdW  Elec       q    Type
REMARK                         _______ _______ _______ _____ _____    ______ ____
ROOT
ATOM      1  N   UNL     1       4.048   5.779  18.855  0.00  0.00    +0.000 NA
ATOM      2  C   UNL     1       3.595   4.378  18.986  0.00  0.00    +0.000 C 
ATOM      3  C   UNL     1       3.625   3.619  17.645  0.00  0.00    +0.000 C 
ATOM      4  O   UNL     1       4.924   3.635  17.019  0.00  0.00    +0.000 OA
ATOM      5  C   UNL     1       5.664   4.884  17.029  0.00  0.00    +0.000 C 
ATOM      6  C   UNL     1       5.428   5.786  15.796  0.00  0.00    +0.000 C 
ATOM      7  C   UNL     1       7.125   4.413  16.874  0.00  0.00    +0.000 C 
ATOM      8  C   UNL     1       5.454   5.691  18.361  0.00  0.00    +0.000 C 
ENDROOT
BRANCH   1   9
ATOM      9  C   UNL     1       3.174   6.562  17.961  0.00  0.00    +0.000 C 
BRANCH   9  13
ATOM     10  C   UNL     1       0.952   9.805  19.603  0.00  0.00    +0.000 A 
ATOM     11  N   UNL     1       1.181   9.768  18.272  0.00  0.00    +0.000 NA
ATOM     12  C   UNL     1       1.835   8.685  17.797  0.00  0.00    +0.000 A 
ATOM     13  C   UNL     1       2.278   7.612  18.579  0.00  0.00    +0.000 A 
ATOM     14  C   UNL     1       1.985   7.658  19.939  0.00  0.00    +0.000 A 
ATOM     15  C   UNL     1       1.310   8.761  20.467  0.00  0.00    +0.000 A 
ATOM     16 CL   UNL     1       1.000   8.821  22.158  0.00  0.00    +0.000 Cl
BRANCH  10  18
ATOM     17  C   UNL     1      -0.947  11.198  19.666  0.00  0.00    +0.000 C 
ATOM     18  O   UNL     1       0.363  10.926  20.154  0.00  0.00    +0.000 OA
ENDBRANCH  10  18
ENDBRANCH   9  13
ENDBRANCH   1   9
BRANCH   3  19
ATOM     19  C   UNL     1       3.156   2.170  17.860  0.00  0.00    +0.000 C 
BRANCH  19  20
ATOM     20  O   UNL     1       4.215   1.268  18.160  0.00  0.00    +0.000 OA
ATOM     21  H   UNL     1       4.332   0.692  17.385  0.00  0.00    +0.000 HD
ENDBRANCH  19  20
ENDBRANCH   3  19
TORSDOF 5
ENDMDL
MODEL 6
REMARK VINA RESULT:      -6.5      3.918      5.067
REMARK  Name = 
REMARK  8 active torsions:
REMARK  status: ('A' for Active; 'I' for Inactive)
REMARK    1  A    between atoms: C_1  and  O_2
REMARK    2  A    between atoms: O_2  and  C_3
REMARK    3  A    between atoms: C_6  and  C_7
REMARK    4  A    between atoms: C_7  and  N_8
REMARK    5  A    between atoms: C_10  and  C_11
REMARK    6  A    between atoms: C_11  and  O_12
REMARK    7  A    between atoms: C_14  and  C_15
REMARK    8  A    between atoms: C_14  and  C_16
REMARK                            x       y       z     vdW  Elec       q    Type
REMARK                         _______ _______ _______ _____ _____    ______ ____
ROOT
ATOM      1  N   UNL     1       6.029   3.741  16.803  0.00  0.00    +0.000 NA
ATOM      2  C   UNL     1       6.721   3.750  15.497  0.00  0.00    +0.000 C 
ATOM      3  C   UNL     1       6.533   5.077  14.737  0.00  0.00    +0.000 C 
ATOM      4  O   UNL     1       6.955   6.225  15.500  0.00  0.00    +0.000 OA
ATOM      5  C   UNL     1       6.597   6.272  16.906  0.00  0.00    +0.000 C 
ATOM      6  C   UNL     1       5.257   6.981  17.209  0.00  0.00    +0.000 C 
ATOM      7  C   UNL     1       7.663   7.220  17.495  0.00  0.00    +0.000 C 
ATOM      8  C   UNL     1       6.646   4.854  17.581  0.00  0.00    +0.000 C 
ENDROOT
BRANCH   1   9
ATOM      9  C   UNL     1       4.568   3.885  16.655  0.00  0.00    +0.000 C 
BRANCH   9  13
ATOM     10  C   UNL     1       1.824   3.059  19.808  0.00  0.00    +0.000 A 
ATOM     11  N   UNL     1       2.316   2.035  19.075  0.00  0.00    +0.000 NA
ATOM     12  C   UNL     1       3.231   2.348  18.131  0.00  0.00    +0.000 A 
ATOM     13  C   UNL     1       3.700   3.641  17.870  0.00  0.00    +0.000 A 
ATOM     14  C   UNL     1       3.209   4.666  18.674  0.00  0.00    +0.000 A 
ATOM     15  C   UNL     1       2.263   4.381  19.661  0.00  0.00    +0.000 A 
ATOM     16 CL   UNL     1       1.633   5.669  20.610  0.00  0.00    +0.000 Cl
BRANCH  10  18
ATOM     17  C   UNL     1       1.300   2.472  22.029  0.00  0.00    +0.000 C 
ATOM     18  O   UNL     1       0.826   2.808  20.729  0.00  0.00    +0.000 OA
ENDBRANCH  10  18
ENDBRANCH   9  13
ENDBRANCH   1   9
BRANCH   3  19
ATOM     19  C   UNL     1       7.290   5.018  13.400  0.00  0.00    +0.000 C 
BRANCH  19  20
ATOM     20  O   UNL     1       8.464   5.824  13.375  0.00  0.00    +0.000 OA
ATOM     21  H   UNL     1       8.448   6.331  12.545  0.00  0.00    +0.000 HD
ENDBRANCH  19  20
ENDBRANCH   3  19
TORSDOF 5
ENDMDL
MODEL 7
REMARK VINA RESULT:      -6.5      4.081      7.067
REMARK  Name = 
REMARK  8 active torsions:
REMARK  status: ('A' for Active; 'I' for Inactive)
REMARK    1  A    between atoms: C_1  and  O_2
REMARK    2  A    between atoms: O_2  and  C_3
REMARK    3  A    between atoms: C_6  and  C_7
REMARK    4  A    between atoms: C_7  and  N_8
REMARK    5  A    between atoms: C_10  and  C_11
REMARK    6  A    between atoms: C_11  and  O_12
REMARK    7  A    between atoms: C_14  and  C_15
REMARK    8  A    between atoms: C_14  and  C_16
REMARK                            x       y       z     vdW  Elec       q    Type
REMARK                         _______ _______ _______ _____ _____    ______ ____
ROOT
ATOM      1  N   UNL     1       4.960   4.335  18.525  0.00  0.00    +0.000 NA
ATOM      2  C   UNL     1       4.423   5.650  18.935  0.00  0.00    +0.000 C 
ATOM      3  C   UNL     1       2.885   5.661  19.015  0.00  0.00    +0.000 C 
ATOM      4  O   UNL     1       2.360   4.646  19.894  0.00  0.00    +0.000 OA
ATOM      5  C   UNL     1       2.957   3.324  19.833  0.00  0.00    +0.000 C 
ATOM      6  C   UNL     1       2.273   2.350  18.846  0.00  0.00    +0.000 C 
ATOM      7  C   UNL     1       2.629   2.740  21.223  0.00  0.00    +0.000 C 
ATOM      8  C   UNL     1       4.507   3.381  19.580  0.00  0.00    +0.000 C 
ENDROOT
BRANCH   1   9
ATOM      9  C   UNL     1       4.511   3.951  17.173  0.00  0.00    +0.000 C 
BRANCH   9  13
ATOM     10  C   UNL     1       7.095   4.906  13.923  0.00  0.00    +0.000 A 
ATOM     11  N   UNL     1       7.328   5.455  15.136  0.00  0.00    +0.000 NA
ATOM     12  C   UNL     1       6.517   5.067  16.145  0.00  0.00    +0.000 A 
ATOM     13  C   UNL     1       5.471   4.145  16.021  0.00  0.00    +0.000 A 
ATOM     14  C   UNL     1       5.287   3.563  14.769  0.00  0.00    +0.000 A 
ATOM     15  C   UNL     1       6.106   3.938  13.703  0.00  0.00    +0.000 A 
ATOM     16 CL   UNL     1       5.831   3.243  12.153  0.00  0.00    +0.000 Cl
BRANCH  10  18
ATOM     17  C   UNL     1       9.056   5.983  13.184  0.00  0.00    +0.000 C 
ATOM     18  O   UNL     1       7.838   5.329  12.839  0.00  0.00    +0.000 OA
ENDBRANCH  10  18
ENDBRANCH   9  13
ENDBRANCH   1   9
BRANCH   3  19
ATOM     19  C   UNL     1       2.401   7.052  19.459  0.00  0.00    +0.000 C 
BRANCH  19  20
ATOM     20  O   UNL     1       2.156   7.149  20.858  0.00  0.00    +0.000 OA
ATOM     21  H   UNL     1       1.332   7.655  20.972  0.00  0.00    +0.000 HD
ENDBRANCH  19  20
ENDBRANCH   3  19
TORSDOF 5
ENDMDL
MODEL 8
REMARK VINA RESULT:      -6.5      3.643      6.677
REMARK  Name = 
REMARK  8 active torsions:
REMARK  status: ('A' for Active; 'I' for Inactive)
REMARK    1  A    between atoms: C_1  and  O_2
REMARK    2  A    between atoms: O_2  and  C_3
REMARK    3  A    between atoms: C_6  and  C_7
REMARK    4  A    between atoms: C_7  and  N_8
REMARK    5  A    between atoms: C_10  and  C_11
REMARK    6  A    between atoms: C_11  and  O_12
REMARK    7  A    between atoms: C_14  and  C_15
REMARK    8  A    between atoms: C_14  and  C_16
REMARK                            x       y       z     vdW  Elec       q    Type
REMARK                         _______ _______ _______ _____ _____    ______ ____
ROOT
ATOM      1  N   UNL     1       4.322   3.721  19.377  0.00  0.00    +0.000 NA
ATOM      2  C   UNL     1       4.010   5.129  19.699  0.00  0.00    +0.000 C 
ATOM      3  C   UNL     1       2.550   5.501  19.374  0.00  0.00    +0.000 C 
ATOM      4  O   UNL     1       1.593   4.646  20.030  0.00  0.00    +0.000 OA
ATOM      5  C   UNL     1       1.867   3.221  20.059  0.00  0.00    +0.000 C 
ATOM      6  C   UNL     1       1.268   2.422  18.878  0.00  0.00    +0.000 C 
ATOM      7  C   UNL     1       1.055   2.744  21.282  0.00  0.00    +0.000 C 
ATOM      8  C   UNL     1       3.399   2.911  20.225  0.00  0.00    +0.000 C 
ENDROOT
BRANCH   1   9
ATOM      9  C   UNL     1       4.175   3.438  17.936  0.00  0.00    +0.000 C 
BRANCH   9  13
ATOM     10  C   UNL     1       6.986   5.143  15.227  0.00  0.00    +0.000 A 
ATOM     11  N   UNL     1       6.280   4.055  14.848  0.00  0.00    +0.000 NA
ATOM     12  C   UNL     1       5.357   3.595  15.721  0.00  0.00    +0.000 A 
ATOM     13  C   UNL     1       5.084   4.165  16.970  0.00  0.00    +0.000 A 
ATOM     14  C   UNL     1       5.795   5.312  17.310  0.00  0.00    +0.000 A 
ATOM     15  C   UNL     1       6.756   5.818  16.433  0.00  0.00    +0.000 A 
ATOM     16 CL   UNL     1       7.658   7.209  16.893  0.00  0.00    +0.000 Cl
BRANCH  10  18
ATOM     17  C   UNL     1       7.884   5.202  13.049  0.00  0.00    +0.000 C 
ATOM     18  O   UNL     1       7.999   5.606  14.410  0.00  0.00    +0.000 OA
ENDBRANCH  10  18
ENDBRANCH   9  13
ENDBRANCH   1   9
BRANCH   3  19
ATOM     19  C   UNL     1       2.296   6.971  19.747  0.00  0.00    +0.000 C 
BRANCH  19  20
ATOM     20  O   UNL     1       1.824   7.146  21.078  0.00  0.00    +0.000 OA
ATOM     21  H   UNL     1       1.850   6.275  21.511  0.00  0.00    +0.000 HD
ENDBRANCH  19  20
ENDBRANCH   3  19
TORSDOF 5
ENDMDL
MODEL 9
REMARK VINA RESULT:      -6.5      2.370      3.304
REMARK  Name = 
REMARK  8 active torsions:
REMARK  status: ('A' for Active; 'I' for Inactive)
REMARK    1  A    between atoms: C_1  and  O_2
REMARK    2  A    between atoms: O_2  and  C_3
REMARK    3  A    between atoms: C_6  and  C_7
REMARK    4  A    between atoms: C_7  and  N_8
REMARK    5  A    between atoms: C_10  and  C_11
REMARK    6  A    between atoms: C_11  and  O_12
REMARK    7  A    between atoms: C_14  and  C_15
REMARK    8  A    between atoms: C_14  and  C_16
REMARK                            x       y       z     vdW  Elec       q    Type
REMARK                         _______ _______ _______ _____ _____    ______ ____
ROOT
ATOM      1  N   UNL     1       3.956   5.492  19.238  0.00  0.00    +0.000 NA
ATOM      2  C   UNL     1       3.590   4.060  19.209  0.00  0.00    +0.000 C 
ATOM      3  C   UNL     1       3.592   3.479  17.782  0.00  0.00    +0.000 C 
ATOM      4  O   UNL     1       4.852   3.655  17.105  0.00  0.00    +0.000 OA
ATOM      5  C   UNL     1       5.521   4.936  17.242  0.00  0.00    +0.000 C 
ATOM      6  C   UNL     1       5.171   5.969  16.147  0.00  0.00    +0.000 C 
ATOM      7  C   UNL     1       6.996   4.580  16.962  0.00  0.00    +0.000 C 
ATOM      8  C   UNL     1       5.337   5.554  18.675  0.00  0.00    +0.000 C 
ENDROOT
BRANCH   1   9
ATOM      9  C   UNL     1       2.994   6.325  18.493  0.00  0.00    +0.000 C 
BRANCH   9  13
ATOM     10  C   UNL     1       0.679   9.192  20.632  0.00  0.00    +0.000 A 
ATOM     11  N   UNL     1       1.098   8.074  21.266  0.00  0.00    +0.000 NA
ATOM     12  C   UNL     1       1.883   7.232  20.560  0.00  0.00    +0.000 A 
ATOM     13  C   UNL     1       2.289   7.438  19.236  0.00  0.00    +0.000 A 
ATOM     14  C   UNL     1       1.879   8.621  18.627  0.00  0.00    +0.000 A 
ATOM     15  C   UNL     1       1.069   9.517  19.326  0.00  0.00    +0.000 A 
ATOM     16 CL   UNL     1       0.534  10.950  18.538  0.00  0.00    +0.000 Cl
BRANCH  10  18
ATOM     17  C   UNL     1      -0.250   9.866  22.690  0.00  0.00    +0.000 C 
ATOM     18  O   UNL     1      -0.192  10.046  21.278  0.00  0.00    +0.000 OA
ENDBRANCH  10  18
ENDBRANCH   9  13
ENDBRANCH   1   9
BRANCH   3  19
ATOM     19  C   UNL     1       3.216   1.989  17.830  0.00  0.00    +0.000 C 
BRANCH  19  20
ATOM     20  O   UNL     1       1.971   1.737  18.473  0.00  0.00    +0.000 OA
ATOM     21  H   UNL     1       1.974   2.229  19.312  0.00  0.00    +0.000 HD
ENDBRANCH  19  20
ENDBRANCH   3  19
TORSDOF 5
ENDMDL
