MODEL 1
REMARK VINA RESULT:      -8.9      0.000      0.000
REMARK  Name = 
REMARK  4 active torsions:
REMARK  status: ('A' for Active; 'I' for Inactive)
REMARK    1  A    between atoms: C_1  and  C_2
REMARK    2  A    between atoms: C_7  and  C_8
REMARK    3  A    between atoms: C_14  and  C_15
REMARK    4  A    between atoms: C_15  and  C_16
REMARK                            x       y       z     vdW  Elec       q    Type
REMARK                         _______ _______ _______ _____ _____    ______ ____
ROOT
ATOM      1  C   UNL     1       2.006  10.324  17.958  0.00  0.00    +0.000 C 
ATOM      2  C   UNL     1       1.901   9.063  18.757  0.00  0.00    +0.000 A 
ATOM      3  C   UNL     1       1.208   9.092  20.041  0.00  0.00    +0.000 A 
ATOM      4  C   UNL     1       1.090   7.990  20.806  0.00  0.00    +0.000 A 
ATOM      5  C   UNL     1       1.613   6.748  20.350  0.00  0.00    +0.000 A 
ATOM      6  N   UNL     1       1.571   5.552  20.888  0.00  0.00    +0.000 NA
ATOM      7  C   UNL     1       2.074   4.696  19.939  0.00  0.00    +0.000 A 
ATOM      8  C   UNL     1       2.529   5.405  18.826  0.00  0.00    +0.000 A 
ATOM      9  N   UNL     1       2.231   6.732  19.107  0.00  0.00    +0.000 N 
ATOM     10  C   UNL     1       2.401   7.885  18.333  0.00  0.00    +0.000 A 
ENDROOT
BRANCH   7  11
ATOM     11  C   UNL     1       1.914   3.206  20.108  0.00  0.00    +0.000 C 
ATOM     12  C   UNL     1       1.415   2.454  18.862  0.00  0.00    +0.000 C 
ATOM     13  C   UNL     1       2.497   2.060  17.853  0.00  0.00    +0.000 C 
ATOM     14  C   UNL     1       3.707   1.412  18.517  0.00  0.00    +0.000 C 
ATOM     15  C   UNL     1       4.268   2.303  19.614  0.00  0.00    +0.000 C 
ATOM     16  C   UNL     1       3.210   2.590  20.673  0.00  0.00    +0.000 C 
ENDBRANCH   7  11
BRANCH   8  17
ATOM     17  C   UNL     1       3.086   4.933  17.515  0.00  0.00    +0.000 C 
BRANCH  17  18
ATOM     18  C   UNL     1       4.601   5.007  17.489  0.00  0.00    +0.000 A 
ATOM     19  C   UNL     1       5.329   4.510  16.399  0.00  0.00    +0.000 A 
ATOM     20  C   UNL     1       6.719   4.388  16.462  0.00  0.00    +0.000 A 
ATOM     21  C   UNL     1       7.399   4.788  17.611  0.00  0.00    +0.000 A 
ATOM     22  C   UNL     1       6.688   5.347  18.664  0.00  0.00    +0.000 A 
ATOM     23  F   UNL     1       7.339   5.744  19.764  0.00  0.00    +0.000 F 
ATOM     24  C   UNL     1       5.303   5.472  18.607  0.00  0.00    +0.000 A 
ENDBRANCH  17  18
ENDBRANCH   8  17
TORSDOF 3
ENDMDL
MODEL 2
REMARK VINA RESULT:      -8.6      1.120      1.485
REMARK  Name = 
REMARK  4 active torsions:
REMARK  status: ('A' for Active; 'I' for Inactive)
REMARK    1  A    between atoms: C_1  and  C_2
REMARK    2  A    between atoms: C_7  and  C_8
REMARK    3  A    between atoms: C_14  and  C_15
REMARK    4  A    between atoms: C_15  and  C_16
REMARK                            x       y       z     vdW  Elec       q    Type
REMARK                         _______ _______ _______ _____ _____    ______ ____
ROOT
ATOM      1  C   UNL     1       1.846  10.236  17.938  0.00  0.00    +0.000 C 
ATOM      2  C   UNL     1       1.817   8.996  18.773  0.00  0.00    +0.000 A 
ATOM      3  C   UNL     1       1.259   9.059  20.121  0.00  0.00    +0.000 A 
ATOM      4  C   UNL     1       1.214   7.977  20.919  0.00  0.00    +0.000 A 
ATOM      5  C   UNL     1       1.681   6.720  20.441  0.00  0.00    +0.000 A 
ATOM      6  N   UNL     1       1.687   5.537  21.010  0.00  0.00    +0.000 NA
ATOM      7  C   UNL     1       2.085   4.655  20.035  0.00  0.00    +0.000 A 
ATOM      8  C   UNL     1       2.428   5.335  18.865  0.00  0.00    +0.000 A 
ATOM      9  N   UNL     1       2.168   6.671  19.143  0.00  0.00    +0.000 N 
ATOM     10  C   UNL     1       2.264   7.804  18.328  0.00  0.00    +0.000 A 
ENDROOT
BRANCH   7  11
ATOM     11  C   UNL     1       1.935   3.171  20.254  0.00  0.00    +0.000 C 
ATOM     12  C   UNL     1       1.381   2.383  19.055  0.00  0.00    +0.000 C 
ATOM     13  C   UNL     1       2.416   1.959  18.010  0.00  0.00    +0.000 C 
ATOM     14  C   UNL     1       3.656   1.331  18.637  0.00  0.00    +0.000 C 
ATOM     15  C   UNL     1       4.266   2.254  19.680  0.00  0.00    +0.000 C 
ATOM     16  C   UNL     1       3.256   2.573  20.778  0.00  0.00    +0.000 C 
ENDBRANCH   7  11
BRANCH   8  17
ATOM     17  C   UNL     1       2.845   4.828  17.515  0.00  0.00    +0.000 C 
BRANCH  17  18
ATOM     18  C   UNL     1       4.354   4.814  17.362  0.00  0.00    +0.000 A 
ATOM     19  C   UNL     1       5.180   5.467  18.289  0.00  0.00    +0.000 A 
ATOM     20  C   UNL     1       6.543   5.632  18.042  0.00  0.00    +0.000 A 
ATOM     21  C   UNL     1       7.103   5.121  16.872  0.00  0.00    +0.000 A 
ATOM     22  C   UNL     1       6.303   4.412  15.987  0.00  0.00    +0.000 A 
ATOM     23  F   UNL     1       6.839   3.909  14.868  0.00  0.00    +0.000 F 
ATOM     24  C   UNL     1       4.943   4.243  16.228  0.00  0.00    +0.000 A 
ENDBRANCH  17  18
ENDBRANCH   8  17
TORSDOF 3
ENDMDL
MODEL 3
REMARK VINA RESULT:      -8.6      1.177      1.759
REMARK  Name = 
REMARK  4 active torsions:
REMARK  status: ('A' for Active; 'I' for Inactive)
REMARK    1  A    between atoms: C_1  and  C_2
REMARK    2  A    between atoms: C_7  and  C_8
REMARK    3  A    between atoms: C_14  and  C_15
REMARK    4  A    between atoms: C_15  and  C_16
REMARK                            x       y       z     vdW  Elec       q    Type
REMARK                         _______ _______ _______ _____ _____    ______ ____
ROOT
ATOM      1  C   UNL     1       0.820  11.200  18.784  0.00  0.00    +0.000 C 
ATOM      2  C   UNL     1       1.217   9.827  19.226  0.00  0.00    +0.000 A 
ATOM      3  C   UNL     1       0.647   9.283  20.455  0.00  0.00    +0.000 A 
ATOM      4  C   UNL     1       0.974   8.058  20.904  0.00  0.00    +0.000 A 
ATOM      5  C   UNL     1       1.867   7.240  20.156  0.00  0.00    +0.000 A 
ATOM      6  N   UNL     1       2.282   6.013  20.365  0.00  0.00    +0.000 NA
ATOM      7  C   UNL     1       2.988   5.660  19.241  0.00  0.00    +0.000 A 
ATOM      8  C   UNL     1       3.090   6.740  18.362  0.00  0.00    +0.000 A 
ATOM      9  N   UNL     1       2.366   7.758  18.970  0.00  0.00    +0.000 N 
ATOM     10  C   UNL     1       2.069   9.051  18.525  0.00  0.00    +0.000 A 
ENDROOT
BRANCH   7  11
ATOM     11  C   UNL     1       3.372   4.220  19.013  0.00  0.00    +0.000 C 
ATOM     12  C   UNL     1       3.368   3.332  20.270  0.00  0.00    +0.000 C 
ATOM     13  C   UNL     1       2.010   2.740  20.654  0.00  0.00    +0.000 C 
ATOM     14  C   UNL     1       1.284   2.121  19.465  0.00  0.00    +0.000 C 
ATOM     15  C   UNL     1       1.152   3.122  18.328  0.00  0.00    +0.000 C 
ATOM     16  C   UNL     1       2.524   3.614  17.877  0.00  0.00    +0.000 C 
ENDBRANCH   7  11
BRANCH   8  17
ATOM     17  C   UNL     1       3.687   6.843  16.989  0.00  0.00    +0.000 C 
BRANCH  17  18
ATOM     18  C   UNL     1       5.048   6.178  16.917  0.00  0.00    +0.000 A 
ATOM     19  C   UNL     1       5.266   5.067  16.089  0.00  0.00    +0.000 A 
ATOM     20  C   UNL     1       6.448   4.330  16.176  0.00  0.00    +0.000 A 
ATOM     21  C   UNL     1       7.440   4.713  17.077  0.00  0.00    +0.000 A 
ATOM     22  C   UNL     1       7.258   5.853  17.847  0.00  0.00    +0.000 A 
ATOM     23  F   UNL     1       8.213   6.231  18.705  0.00  0.00    +0.000 F 
ATOM     24  C   UNL     1       6.082   6.593  17.765  0.00  0.00    +0.000 A 
ENDBRANCH  17  18
ENDBRANCH   8  17
TORSDOF 3
ENDMDL
MODEL 4
REMARK VINA RESULT:      -8.5      2.038      4.554
REMARK  Name = 
REMARK  4 active torsions:
REMARK  status: ('A' for Active; 'I' for Inactive)
REMARK    1  A    between atoms: C_1  and  C_2
REMARK    2  A    between atoms: C_7  and  C_8
REMARK    3  A    between atoms: C_14  and  C_15
REMARK    4  A    between atoms: C_15  and  C_16
REMARK                            x       y       z     vdW  Elec       q    Type
REMARK                         _______ _______ _______ _____ _____    ______ ____
ROOT
ATOM      1  C   UNL     1       0.202   8.658  21.824  0.00  0.00    +0.000 C 
ATOM      2  C   UNL     1       0.978   8.552  20.549  0.00  0.00    +0.000 A 
ATOM      3  C   UNL     1       0.896   9.636  19.575  0.00  0.00    +0.000 A 
ATOM      4  C   UNL     1       1.566   9.590  18.408  0.00  0.00    +0.000 A 
ATOM      5  C   UNL     1       2.411   8.484  18.116  0.00  0.00    +0.000 A 
ATOM      6  N   UNL     1       3.190   8.250  17.086  0.00  0.00    +0.000 NA
ATOM      7  C   UNL     1       3.908   7.124  17.406  0.00  0.00    +0.000 A 
ATOM      8  C   UNL     1       3.482   6.598  18.627  0.00  0.00    +0.000 A 
ATOM      9  N   UNL     1       2.509   7.483  19.073  0.00  0.00    +0.000 N 
ATOM     10  C   UNL     1       1.775   7.502  20.264  0.00  0.00    +0.000 A 
ENDROOT
BRANCH   7  11
ATOM     11  C   UNL     1       5.101   6.728  16.574  0.00  0.00    +0.000 C 
ATOM     12  C   UNL     1       6.471   7.048  17.195  0.00  0.00    +0.000 C 
ATOM     13  C   UNL     1       7.012   6.003  18.174  0.00  0.00    +0.000 C 
ATOM     14  C   UNL     1       6.902   4.582  17.630  0.00  0.00    +0.000 C 
ATOM     15  C   UNL     1       5.474   4.267  17.214  0.00  0.00    +0.000 C 
ATOM     16  C   UNL     1       4.990   5.249  16.151  0.00  0.00    +0.000 C 
ENDBRANCH   7  11
BRANCH   8  17
ATOM     17  C   UNL     1       3.991   5.440  19.435  0.00  0.00    +0.000 C 
BRANCH  17  18
ATOM     18  C   UNL     1       2.952   4.341  19.557  0.00  0.00    +0.000 A 
ATOM     19  C   UNL     1       2.290   3.844  18.425  0.00  0.00    +0.000 A 
ATOM     20  C   UNL     1       1.195   2.988  18.554  0.00  0.00    +0.000 A 
ATOM     21  C   UNL     1       0.766   2.597  19.820  0.00  0.00    +0.000 A 
ATOM     22  C   UNL     1       1.463   3.029  20.940  0.00  0.00    +0.000 A 
ATOM     23  F   UNL     1       1.060   2.646  22.158  0.00  0.00    +0.000 F 
ATOM     24  C   UNL     1       2.556   3.882  20.819  0.00  0.00    +0.000 A 
ENDBRANCH  17  18
ENDBRANCH   8  17
TORSDOF 3
ENDMDL
MODEL 5
REMARK VINA RESULT:      -8.4      2.270      5.031
REMARK  Name = 
REMARK  4 active torsions:
REMARK  status: ('A' for Active; 'I' for Inactive)
REMARK    1  A    between atoms: C_1  and  C_2
REMARK    2  A    between atoms: C_7  and  C_8
REMARK    3  A    between atoms: C_14  and  C_15
REMARK    4  A    between atoms: C_15  and  C_16
REMARK                            x       y       z     vdW  Elec       q    Type
REMARK                         _______ _______ _______ _____ _____    ______ ____
ROOT
ATOM      1  C   UNL     1       7.865   7.842  17.518  0.00  0.00    +0.000 C 
ATOM      2  C   UNL     1       6.936   6.686  17.326  0.00  0.00    +0.000 A 
ATOM      3  C   UNL     1       7.264   5.668  16.332  0.00  0.00    +0.000 A 
ATOM      4  C   UNL     1       6.461   4.611  16.111  0.00  0.00    +0.000 A 
ATOM      5  C   UNL     1       5.278   4.442  16.883  0.00  0.00    +0.000 A 
ATOM      6  N   UNL     1       4.386   3.479  16.883  0.00  0.00    +0.000 NA
ATOM      7  C   UNL     1       3.556   3.737  17.946  0.00  0.00    +0.000 A 
ATOM      8  C   UNL     1       3.893   4.948  18.553  0.00  0.00    +0.000 A 
ATOM      9  N   UNL     1       5.005   5.397  17.851  0.00  0.00    +0.000 N 
ATOM     10  C   UNL     1       5.809   6.525  18.050  0.00  0.00    +0.000 A 
ENDROOT
BRANCH   7  11
ATOM     11  C   UNL     1       2.585   2.684  18.418  0.00  0.00    +0.000 C 
ATOM     12  C   UNL     1       3.009   1.920  19.684  0.00  0.00    +0.000 C 
ATOM     13  C   UNL     1       2.664   2.600  21.011  0.00  0.00    +0.000 C 
ATOM     14  C   UNL     1       1.225   3.105  21.052  0.00  0.00    +0.000 C 
ATOM     15  C   UNL     1       0.933   4.014  19.869  0.00  0.00    +0.000 C 
ATOM     16  C   UNL     1       1.171   3.282  18.551  0.00  0.00    +0.000 C 
ENDBRANCH   7  11
BRANCH   8  17
ATOM     17  C   UNL     1       3.348   5.625  19.777  0.00  0.00    +0.000 C 
BRANCH  17  18
ATOM     18  C   UNL     1       2.519   6.845  19.421  0.00  0.00    +0.000 A 
ATOM     19  C   UNL     1       2.481   7.333  18.107  0.00  0.00    +0.000 A 
ATOM     20  C   UNL     1       1.893   8.566  17.818  0.00  0.00    +0.000 A 
ATOM     21  C   UNL     1       1.310   9.313  18.840  0.00  0.00    +0.000 A 
ATOM     22  C   UNL     1       1.283   8.799  20.129  0.00  0.00    +0.000 A 
ATOM     23  F   UNL     1       0.713   9.509  21.112  0.00  0.00    +0.000 F 
ATOM     24  C   UNL     1       1.867   7.571  20.424  0.00  0.00    +0.000 A 
ENDBRANCH  17  18
ENDBRANCH   8  17
TORSDOF 3
ENDMDL
MODEL 6
REMARK VINA RESULT:      -8.4      3.477      5.013
REMARK  Name = 
REMARK  4 active torsions:
REMARK  status: ('A' for Active; 'I' for Inactive)
REMARK    1  A    between atoms: C_1  and  C_2
REMARK    2  A    between atoms: C_7  and  C_8
REMARK    3  A    between atoms: C_14  and  C_15
REMARK    4  A    between atoms: C_15  and  C_16
REMARK                            x       y       z     vdW  Elec       q    Type
REMARK                         _______ _______ _______ _____ _____    ______ ____
ROOT
ATOM      1  C   UNL     1       8.520   8.549  17.800  0.00  0.00    +0.000 C 
ATOM      2  C   UNL     1       7.785   7.270  18.052  0.00  0.00    +0.000 A 
ATOM      3  C   UNL     1       7.876   6.646  19.369  0.00  0.00    +0.000 A 
ATOM      4  C   UNL     1       7.243   5.492  19.650  0.00  0.00    +0.000 A 
ATOM      5  C   UNL     1       6.428   4.870  18.664  0.00  0.00    +0.000 A 
ATOM      6  N   UNL     1       5.685   3.789  18.725  0.00  0.00    +0.000 NA
ATOM      7  C   UNL     1       4.979   3.752  17.547  0.00  0.00    +0.000 A 
ATOM      8  C   UNL     1       5.378   4.788  16.700  0.00  0.00    +0.000 A 
ATOM      9  N   UNL     1       6.320   5.500  17.432  0.00  0.00    +0.000 N 
ATOM     10  C   UNL     1       7.017   6.672  17.119  0.00  0.00    +0.000 A 
ENDROOT
BRANCH   7  11
ATOM     11  C   UNL     1       3.820   2.801  17.392  0.00  0.00    +0.000 C 
ATOM     12  C   UNL     1       3.594   1.842  18.574  0.00  0.00    +0.000 C 
ATOM     13  C   UNL     1       2.767   2.406  19.731  0.00  0.00    +0.000 C 
ATOM     14  C   UNL     1       1.496   3.103  19.256  0.00  0.00    +0.000 C 
ATOM     15  C   UNL     1       1.816   4.176  18.228  0.00  0.00    +0.000 C 
ATOM     16  C   UNL     1       2.539   3.576  17.025  0.00  0.00    +0.000 C 
ENDBRANCH   7  11
BRANCH   8  17
ATOM     17  C   UNL     1       4.867   5.217  15.356  0.00  0.00    +0.000 C 
BRANCH  17  18
ATOM     18  C   UNL     1       5.666   4.594  14.227  0.00  0.00    +0.000 A 
ATOM     19  C   UNL     1       6.961   5.042  13.927  0.00  0.00    +0.000 A 
ATOM     20  C   UNL     1       7.614   4.620  12.767  0.00  0.00    +0.000 A 
ATOM     21  C   UNL     1       6.987   3.721  11.907  0.00  0.00    +0.000 A 
ATOM     22  C   UNL     1       5.735   3.221  12.237  0.00  0.00    +0.000 A 
ATOM     23  F   UNL     1       5.135   2.348  11.418  0.00  0.00    +0.000 F 
ATOM     24  C   UNL     1       5.079   3.637  13.391  0.00  0.00    +0.000 A 
ENDBRANCH  17  18
ENDBRANCH   8  17
TORSDOF 3
ENDMDL
MODEL 7
REMARK VINA RESULT:      -8.4      2.462      5.087
REMARK  Name = 
REMARK  4 active torsions:
REMARK  status: ('A' for Active; 'I' for Inactive)
REMARK    1  A    between atoms: C_1  and  C_2
REMARK    2  A    between atoms: C_7  and  C_8
REMARK    3  A    between atoms: C_14  and  C_15
REMARK    4  A    between atoms: C_15  and  C_16
REMARK                            x       y       z     vdW  Elec       q    Type
REMARK                         _______ _______ _______ _____ _____    ______ ____
ROOT
ATOM      1  C   UNL     1       7.914   8.217  17.560  0.00  0.00    +0.000 C 
ATOM      2  C   UNL     1       6.925   7.148  17.903  0.00  0.00    +0.000 A 
ATOM      3  C   UNL     1       7.377   5.974  18.644  0.00  0.00    +0.000 A 
ATOM      4  C   UNL     1       6.533   4.977  18.973  0.00  0.00    +0.000 A 
ATOM      5  C   UNL     1       5.155   5.071  18.633  0.00  0.00    +0.000 A 
ATOM      6  N   UNL     1       4.152   4.264  18.892  0.00  0.00    +0.000 NA
ATOM      7  C   UNL     1       3.021   4.929  18.487  0.00  0.00    +0.000 A 
ATOM      8  C   UNL     1       3.353   6.138  17.872  0.00  0.00    +0.000 A 
ATOM      9  N   UNL     1       4.737   6.214  17.967  0.00  0.00    +0.000 N 
ATOM     10  C   UNL     1       5.619   7.228  17.578  0.00  0.00    +0.000 A 
ENDROOT
BRANCH   7  11
ATOM     11  C   UNL     1       1.661   4.419  18.891  0.00  0.00    +0.000 C 
ATOM     12  C   UNL     1       1.399   2.934  18.584  0.00  0.00    +0.000 C 
ATOM     13  C   UNL     1       1.904   1.944  19.636  0.00  0.00    +0.000 C 
ATOM     14  C   UNL     1       1.521   2.354  21.054  0.00  0.00    +0.000 C 
ATOM     15  C   UNL     1       1.986   3.770  21.356  0.00  0.00    +0.000 C 
ATOM     16  C   UNL     1       1.379   4.761  20.367  0.00  0.00    +0.000 C 
ENDBRANCH   7  11
BRANCH   8  17
ATOM     17  C   UNL     1       2.490   7.242  17.335  0.00  0.00    +0.000 C 
BRANCH  17  18
ATOM     18  C   UNL     1       2.019   8.173  18.436  0.00  0.00    +0.000 A 
ATOM     19  C   UNL     1       2.095   7.794  19.784  0.00  0.00    +0.000 A 
ATOM     20  C   UNL     1       1.477   8.555  20.778  0.00  0.00    +0.000 A 
ATOM     21  C   UNL     1       0.797   9.722  20.436  0.00  0.00    +0.000 A 
ATOM     22  C   UNL     1       0.781  10.138  19.112  0.00  0.00    +0.000 A 
ATOM     23  F   UNL     1       0.138  11.265  18.781  0.00  0.00    +0.000 F 
ATOM     24  C   UNL     1       1.395   9.385  18.116  0.00  0.00    +0.000 A 
ENDBRANCH  17  18
ENDBRANCH   8  17
TORSDOF 3
ENDMDL
MODEL 8
REMARK VINA RESULT:      -8.3      1.541      2.099
REMARK  Name = 
REMARK  4 active torsions:
REMARK  status: ('A' for Active; 'I' for Inactive)
REMARK    1  A    between atoms: C_1  and  C_2
REMARK    2  A    between atoms: C_7  and  C_8
REMARK    3  A    between atoms: C_14  and  C_15
REMARK    4  A    between atoms: C_15  and  C_16
REMARK                            x       y       z     vdW  Elec       q    Type
REMARK                         _______ _______ _______ _____ _____    ______ ____
ROOT
ATOM      1  C   UNL     1       1.052  11.041  18.560  0.00  0.00    +0.000 C 
ATOM      2  C   UNL     1       1.303   9.708  19.190  0.00  0.00    +0.000 A 
ATOM      3  C   UNL     1       0.559   9.337  20.390  0.00  0.00    +0.000 A 
ATOM      4  C   UNL     1       0.751   8.155  21.004  0.00  0.00    +0.000 A 
ATOM      5  C   UNL     1       1.668   7.212  20.462  0.00  0.00    +0.000 A 
ATOM      6  N   UNL     1       1.975   5.996  20.849  0.00  0.00    +0.000 NA
ATOM      7  C   UNL     1       2.782   5.481  19.864  0.00  0.00    +0.000 A 
ATOM      8  C   UNL     1       3.055   6.448  18.895  0.00  0.00    +0.000 A 
ATOM      9  N   UNL     1       2.335   7.565  19.297  0.00  0.00    +0.000 N 
ATOM     10  C   UNL     1       2.177   8.813  18.685  0.00  0.00    +0.000 A 
ENDROOT
BRANCH   7  11
ATOM     11  C   UNL     1       3.093   4.006  19.839  0.00  0.00    +0.000 C 
ATOM     12  C   UNL     1       2.511   3.192  21.007  0.00  0.00    +0.000 C 
ATOM     13  C   UNL     1       1.065   2.724  20.829  0.00  0.00    +0.000 C 
ATOM     14  C   UNL     1       0.818   2.096  19.461  0.00  0.00    +0.000 C 
ATOM     15  C   UNL     1       1.239   3.039  18.345  0.00  0.00    +0.000 C 
ATOM     16  C   UNL     1       2.715   3.404  18.471  0.00  0.00    +0.000 C 
ENDBRANCH   7  11
BRANCH   8  17
ATOM     17  C   UNL     1       3.813   6.363  17.602  0.00  0.00    +0.000 C 
BRANCH  17  18
ATOM     18  C   UNL     1       5.312   6.349  17.830  0.00  0.00    +0.000 A 
ATOM     19  C   UNL     1       5.905   5.399  18.675  0.00  0.00    +0.000 A 
ATOM     20  C   UNL     1       7.246   5.511  19.049  0.00  0.00    +0.000 A 
ATOM     21  C   UNL     1       8.018   6.562  18.557  0.00  0.00    +0.000 A 
ATOM     22  C   UNL     1       7.454   7.462  17.664  0.00  0.00    +0.000 A 
ATOM     23  F   UNL     1       8.195   8.466  17.180  0.00  0.00    +0.000 F 
ATOM     24  C   UNL     1       6.118   7.357  17.287  0.00  0.00    +0.000 A 
ENDBRANCH  17  18
ENDBRANCH   8  17
TORSDOF 3
ENDMDL
MODEL 9
REMARK VINA RESULT:      -8.3      2.378      5.142
REMARK  Name = 
REMARK  4 active torsions:
REMARK  status: ('A' for Active; 'I' for Inactive)
REMARK    1  A    between atoms: C_1  and  C_2
REMARK    2  A    between atoms: C_7  and  C_8
REMARK    3  A    between atoms: C_14  and  C_15
REMARK    4  A    between atoms: C_15  and  C_16
REMARK                            x       y       z     vdW  Elec       q    Type
REMARK                         _______ _______ _______ _____ _____    ______ ____
ROOT
ATOM      1  C   UNL     1       7.722   7.454  17.342  0.00  0.00    +0.000 C 
ATOM      2  C   UNL     1       6.511   6.580  17.270  0.00  0.00    +0.000 A 
ATOM      3  C   UNL     1       6.522   5.422  16.380  0.00  0.00    +0.000 A 
ATOM      4  C   UNL     1       5.457   4.606  16.268  0.00  0.00    +0.000 A 
ATOM      5  C   UNL     1       4.297   4.837  17.059  0.00  0.00    +0.000 A 
ATOM      6  N   UNL     1       3.180   4.156  17.159  0.00  0.00    +0.000 NA
ATOM      7  C   UNL     1       2.484   4.728  18.195  0.00  0.00    +0.000 A 
ATOM      8  C   UNL     1       3.153   5.853  18.678  0.00  0.00    +0.000 A 
ATOM      9  N   UNL     1       4.322   5.917  17.930  0.00  0.00    +0.000 N 
ATOM     10  C   UNL     1       5.406   6.798  18.012  0.00  0.00    +0.000 A 
ENDROOT
BRANCH   7  11
ATOM     11  C   UNL     1       1.281   4.025  18.773  0.00  0.00    +0.000 C 
ATOM     12  C   UNL     1       1.298   2.491  18.658  0.00  0.00    +0.000 C 
ATOM     13  C   UNL     1       2.057   1.755  19.765  0.00  0.00    +0.000 C 
ATOM     14  C   UNL     1       1.696   2.262  21.157  0.00  0.00    +0.000 C 
ATOM     15  C   UNL     1       1.890   3.766  21.257  0.00  0.00    +0.000 C 
ATOM     16  C   UNL     1       1.035   4.493  20.222  0.00  0.00    +0.000 C 
ENDBRANCH   7  11
BRANCH   8  17
ATOM     17  C   UNL     1       2.848   6.765  19.831  0.00  0.00    +0.000 C 
BRANCH  17  18
ATOM     18  C   UNL     1       1.994   7.943  19.404  0.00  0.00    +0.000 A 
ATOM     19  C   UNL     1       2.054   8.443  18.095  0.00  0.00    +0.000 A 
ATOM     20  C   UNL     1       1.431   9.646  17.758  0.00  0.00    +0.000 A 
ATOM     21  C   UNL     1       0.716  10.351  18.724  0.00  0.00    +0.000 A 
ATOM     22  C   UNL     1       0.594   9.823  20.002  0.00  0.00    +0.000 A 
ATOM     23  F   UNL     1      -0.102  10.492  20.930  0.00  0.00    +0.000 F 
ATOM     24  C   UNL     1       1.212   8.624  20.345  0.00  0.00    +0.000 A 
ENDBRANCH  17  18
ENDBRANCH   8  17
TORSDOF 3
ENDMDL
