MODEL 1
REMARK VINA RESULT:      -7.5      0.000      0.000
REMARK  Name = 
REMARK  8 active torsions:
REMARK  status: ('A' for Active; 'I' for Inactive)
REMARK    1  A    between atoms: C_1  and  O_2
REMARK    2  A    between atoms: O_2  and  C_3
REMARK    3  A    between atoms: C_8  and  C_9
REMARK    4  A    between atoms: C_12  and  C_13
REMARK    5  A    between atoms: C_13  and  O_14
REMARK    6  A    between atoms: C_13  and  C_15
REMARK    7  A    between atoms: C_17  and  C_18
REMARK    8  A    between atoms: C_21  and  C_22
REMARK                            x       y       z     vdW  Elec       q    Type
REMARK                         _______ _______ _______ _____ _____    ______ ____
ROOT
ATOM      1  C   UNL     1       2.300   6.444  19.120  0.00  0.00    +0.000 A 
ATOM      2  C   UNL     1       1.954   6.797  20.405  0.00  0.00    +0.000 A 
ATOM      3  N   UNL     1       1.654   8.133  20.362  0.00  0.00    +0.000 N 
ATOM      4  C   UNL     1       1.790   8.556  19.062  0.00  0.00    +0.000 A 
ATOM      5  N   UNL     1       2.222   7.562  18.306  0.00  0.00    +0.000 NA
ATOM      6  H   UNL     1       1.382   8.709  21.145  0.00  0.00    +0.000 HD
ENDROOT
BRANCH   1  12
ATOM      7  C   UNL     1       3.982   4.764  18.184  0.00  0.00    +0.000 A 
ATOM      8  C   UNL     1       4.220   3.461  17.711  0.00  0.00    +0.000 A 
ATOM      9  C   UNL     1       3.184   2.533  17.600  0.00  0.00    +0.000 A 
ATOM     10  C   UNL     1       1.901   2.888  17.984  0.00  0.00    +0.000 A 
ATOM     11  C   UNL     1       1.658   4.168  18.484  0.00  0.00    +0.000 A 
ATOM     12  C   UNL     1       2.684   5.131  18.597  0.00  0.00    +0.000 A 
BRANCH   7  14
ATOM     13  C   UNL     1       6.048   5.309  19.200  0.00  0.00    +0.000 C 
ATOM     14  O   UNL     1       5.006   5.673  18.297  0.00  0.00    +0.000 OA
ENDBRANCH   7  14
ENDBRANCH   1  12
BRANCH   4  15
ATOM     15  C   UNL     1       1.522   9.975  18.632  0.00  0.00    +0.000 C 
BRANCH  15  16
ATOM     16  C   UNL     1       0.063  10.417  18.631  0.00  0.00    +0.000 A 
ATOM     17  C   UNL     1      -0.827   9.962  17.635  0.00  0.00    +0.000 A 
ATOM     18  C   UNL     1      -2.168  10.364  17.596  0.00  0.00    +0.000 A 
ATOM     19  C   UNL     1      -3.080   9.895  16.501  0.00  0.00    +0.000 C 
ATOM     20  C   UNL     1      -2.640  11.237  18.574  0.00  0.00    +0.000 A 
ATOM     21  C   UNL     1      -1.774  11.731  19.548  0.00  0.00    +0.000 A 
ATOM     22  C   UNL     1      -0.418  11.358  19.570  0.00  0.00    +0.000 A 
ATOM     23  C   UNL     1       0.475  11.987  20.606  0.00  0.00    +0.000 C 
ENDBRANCH  15  16
BRANCH  15  24
ATOM     24  O   UNL     1       2.028  10.101  17.304  0.00  0.00    +0.000 OA
ATOM     25  H   UNL     1       2.036   9.187  16.958  0.00  0.00    +0.000 HD
ENDBRANCH  15  24
ENDBRANCH   4  15
TORSDOF 5
ENDMDL
MODEL 2
REMARK VINA RESULT:      -7.4      2.499      7.495
REMARK  Name = 
REMARK  8 active torsions:
REMARK  status: ('A' for Active; 'I' for Inactive)
REMARK    1  A    between atoms: C_1  and  O_2
REMARK    2  A    between atoms: O_2  and  C_3
REMARK    3  A    between atoms: C_8  and  C_9
REMARK    4  A    between atoms: C_12  and  C_13
REMARK    5  A    between atoms: C_13  and  O_14
REMARK    6  A    between atoms: C_13  and  C_15
REMARK    7  A    between atoms: C_17  and  C_18
REMARK    8  A    between atoms: C_21  and  C_22
REMARK                            x       y       z     vdW  Elec       q    Type
REMARK                         _______ _______ _______ _____ _____    ______ ____
ROOT
ATOM      1  C   UNL     1       2.307   6.664  19.614  0.00  0.00    +0.000 A 
ATOM      2  C   UNL     1       1.837   5.702  20.479  0.00  0.00    +0.000 A 
ATOM      3  N   UNL     1       2.641   4.607  20.300  0.00  0.00    +0.000 N 
ATOM      4  C   UNL     1       3.592   4.929  19.363  0.00  0.00    +0.000 A 
ATOM      5  N   UNL     1       3.381   6.150  18.904  0.00  0.00    +0.000 NA
ATOM      6  H   UNL     1       2.551   3.718  20.770  0.00  0.00    +0.000 HD
ENDROOT
BRANCH   1  12
ATOM      7  C   UNL     1       1.165   8.818  20.379  0.00  0.00    +0.000 A 
ATOM      8  C   UNL     1       0.771  10.130  20.060  0.00  0.00    +0.000 A 
ATOM      9  C   UNL     1       0.988  10.660  18.788  0.00  0.00    +0.000 A 
ATOM     10  C   UNL     1       1.624   9.892  17.824  0.00  0.00    +0.000 A 
ATOM     11  C   UNL     1       2.047   8.600  18.138  0.00  0.00    +0.000 A 
ATOM     12  C   UNL     1       1.832   8.035  19.413  0.00  0.00    +0.000 A 
BRANCH   7  14
ATOM     13  C   UNL     1       0.649   9.261  22.644  0.00  0.00    +0.000 C 
ATOM     14  O   UNL     1       0.955   8.302  21.634  0.00  0.00    +0.000 OA
ENDBRANCH   7  14
ENDBRANCH   1  12
BRANCH   4  15
ATOM     15  C   UNL     1       4.665   3.966  18.923  0.00  0.00    +0.000 C 
BRANCH  15  16
ATOM     16  C   UNL     1       5.515   4.399  17.734  0.00  0.00    +0.000 A 
ATOM     17  C   UNL     1       5.176   4.003  16.424  0.00  0.00    +0.000 A 
ATOM     18  C   UNL     1       5.947   4.370  15.313  0.00  0.00    +0.000 A 
ATOM     19  C   UNL     1       5.584   3.899  13.935  0.00  0.00    +0.000 C 
ATOM     20  C   UNL     1       7.083   5.154  15.508  0.00  0.00    +0.000 A 
ATOM     21  C   UNL     1       7.461   5.529  16.796  0.00  0.00    +0.000 A 
ATOM     22  C   UNL     1       6.710   5.133  17.917  0.00  0.00    +0.000 A 
ATOM     23  C   UNL     1       7.218   5.513  19.282  0.00  0.00    +0.000 C 
ENDBRANCH  15  16
BRANCH  15  24
ATOM     24  O   UNL     1       4.004   2.749  18.580  0.00  0.00    +0.000 OA
ATOM     25  H   UNL     1       3.075   3.010  18.427  0.00  0.00    +0.000 HD
ENDBRANCH  15  24
ENDBRANCH   4  15
TORSDOF 5
ENDMDL
MODEL 3
REMARK VINA RESULT:      -7.3      1.252      1.961
REMARK  Name = 
REMARK  8 active torsions:
REMARK  status: ('A' for Active; 'I' for Inactive)
REMARK    1  A    between atoms: C_1  and  O_2
REMARK    2  A    between atoms: O_2  and  C_3
REMARK    3  A    between atoms: C_8  and  C_9
REMARK    4  A    between atoms: C_12  and  C_13
REMARK    5  A    between atoms: C_13  and  O_14
REMARK    6  A    between atoms: C_13  and  C_15
REMARK    7  A    between atoms: C_17  and  C_18
REMARK    8  A    between atoms: C_21  and  C_22
REMARK                            x       y       z     vdW  Elec       q    Type
REMARK                         _______ _______ _______ _____ _____    ______ ____
ROOT
ATOM      1  C   UNL     1       2.526   7.037  18.718  0.00  0.00    +0.000 A 
ATOM      2  C   UNL     1       2.028   7.065  20.002  0.00  0.00    +0.000 A 
ATOM      3  N   UNL     1       1.520   8.324  20.182  0.00  0.00    +0.000 N 
ATOM      4  C   UNL     1       1.687   9.020  19.010  0.00  0.00    +0.000 A 
ATOM      5  N   UNL     1       2.332   8.276  18.129  0.00  0.00    +0.000 NA
ATOM      6  H   UNL     1       1.098   8.682  21.027  0.00  0.00    +0.000 HD
ENDROOT
BRANCH   1  12
ATOM      7  C   UNL     1       2.601   4.642  17.829  0.00  0.00    +0.000 A 
ATOM      8  C   UNL     1       3.310   3.668  17.103  0.00  0.00    +0.000 A 
ATOM      9  C   UNL     1       4.576   3.935  16.582  0.00  0.00    +0.000 A 
ATOM     10  C   UNL     1       5.141   5.188  16.761  0.00  0.00    +0.000 A 
ATOM     11  C   UNL     1       4.435   6.172  17.454  0.00  0.00    +0.000 A 
ATOM     12  C   UNL     1       3.157   5.928  17.999  0.00  0.00    +0.000 A 
BRANCH   7  14
ATOM     13  C   UNL     1       1.220   3.131  19.013  0.00  0.00    +0.000 C 
ATOM     14  O   UNL     1       1.352   4.378  18.334  0.00  0.00    +0.000 OA
ENDBRANCH   7  14
ENDBRANCH   1  12
BRANCH   4  15
ATOM     15  C   UNL     1       1.228  10.445  18.833  0.00  0.00    +0.000 C 
BRANCH  15  16
ATOM     16  C   UNL     1      -0.264  10.650  18.599  0.00  0.00    +0.000 A 
ATOM     17  C   UNL     1      -0.907  10.062  17.489  0.00  0.00    +0.000 A 
ATOM     18  C   UNL     1      -2.272  10.246  17.237  0.00  0.00    +0.000 A 
ATOM     19  C   UNL     1      -2.920   9.642  16.025  0.00  0.00    +0.000 C 
ATOM     20  C   UNL     1      -3.021  11.031  18.112  0.00  0.00    +0.000 A 
ATOM     21  C   UNL     1      -2.404  11.652  19.196  0.00  0.00    +0.000 A 
ATOM     22  C   UNL     1      -1.027  11.500  19.433  0.00  0.00    +0.000 A 
ATOM     23  C   UNL     1      -0.414  12.259  20.580  0.00  0.00    +0.000 C 
ENDBRANCH  15  16
BRANCH  15  24
ATOM     24  O   UNL     1       1.932  10.963  17.705  0.00  0.00    +0.000 OA
ATOM     25  H   UNL     1       1.468  10.585  16.933  0.00  0.00    +0.000 HD
ENDBRANCH  15  24
ENDBRANCH   4  15
TORSDOF 5
ENDMDL
MODEL 4
REMARK VINA RESULT:      -7.3      1.205      1.813
REMARK  Name = 
REMARK  8 active torsions:
REMARK  status: ('A' for Active; 'I' for Inactive)
REMARK    1  A    between atoms: C_1  and  O_2
REMARK    2  A    between atoms: O_2  and  C_3
REMARK    3  A    between atoms: C_8  and  C_9
REMARK    4  A    between atoms: C_12  and  C_13
REMARK    5  A    between atoms: C_13  and  O_14
REMARK    6  A    between atoms: C_13  and  C_15
REMARK    7  A    between atoms: C_17  and  C_18
REMARK    8  A    between atoms: C_21  and  C_22
REMARK                            x       y       z     vdW  Elec       q    Type
REMARK                         _______ _______ _______ _____ _____    ______ ____
ROOT
ATOM      1  C   UNL     1       2.271   6.327  19.160  0.00  0.00    +0.000 A 
ATOM      2  C   UNL     1       1.956   6.709  20.444  0.00  0.00    +0.000 A 
ATOM      3  N   UNL     1       1.682   8.050  20.385  0.00  0.00    +0.000 N 
ATOM      4  C   UNL     1       1.804   8.448  19.076  0.00  0.00    +0.000 A 
ATOM      5  N   UNL     1       2.203   7.434  18.328  0.00  0.00    +0.000 NA
ATOM      6  H   UNL     1       1.436   8.643  21.163  0.00  0.00    +0.000 HD
ENDROOT
BRANCH   1  12
ATOM      7  C   UNL     1       2.051   3.783  19.087  0.00  0.00    +0.000 A 
ATOM      8  C   UNL     1       2.467   2.571  18.505  0.00  0.00    +0.000 A 
ATOM      9  C   UNL     1       3.467   2.544  17.532  0.00  0.00    +0.000 A 
ATOM     10  C   UNL     1       4.047   3.731  17.111  0.00  0.00    +0.000 A 
ATOM     11  C   UNL     1       3.621   4.942  17.659  0.00  0.00    +0.000 A 
ATOM     12  C   UNL     1       2.619   4.998  18.652  0.00  0.00    +0.000 A 
BRANCH   7  14
ATOM     13  C   UNL     1       1.283   2.963  21.169  0.00  0.00    +0.000 C 
ATOM     14  O   UNL     1       1.062   3.806  20.040  0.00  0.00    +0.000 OA
ENDBRANCH   7  14
ENDBRANCH   1  12
BRANCH   4  15
ATOM     15  C   UNL     1       1.559   9.866  18.627  0.00  0.00    +0.000 C 
BRANCH  15  16
ATOM     16  C   UNL     1       0.108  10.334  18.629  0.00  0.00    +0.000 A 
ATOM     17  C   UNL     1      -0.789   9.903  17.630  0.00  0.00    +0.000 A 
ATOM     18  C   UNL     1      -2.123  10.329  17.594  0.00  0.00    +0.000 A 
ATOM     19  C   UNL     1      -3.043   9.886  16.494  0.00  0.00    +0.000 C 
ATOM     20  C   UNL     1      -2.580  11.202  18.579  0.00  0.00    +0.000 A 
ATOM     21  C   UNL     1      -1.706  11.671  19.558  0.00  0.00    +0.000 A 
ATOM     22  C   UNL     1      -0.357  11.275  19.576  0.00  0.00    +0.000 A 
ATOM     23  C   UNL     1       0.546  11.879  20.619  0.00  0.00    +0.000 C 
ENDBRANCH  15  16
BRANCH  15  24
ATOM     24  O   UNL     1       2.058   9.965  17.294  0.00  0.00    +0.000 OA
ATOM     25  H   UNL     1       1.438   9.428  16.762  0.00  0.00    +0.000 HD
ENDBRANCH  15  24
ENDBRANCH   4  15
TORSDOF 5
ENDMDL
MODEL 5
REMARK VINA RESULT:      -7.3      2.116      7.621
REMARK  Name = 
REMARK  8 active torsions:
REMARK  status: ('A' for Active; 'I' for Inactive)
REMARK    1  A    between atoms: C_1  and  O_2
REMARK    2  A    between atoms: O_2  and  C_3
REMARK    3  A    between atoms: C_8  and  C_9
REMARK    4  A    between atoms: C_12  and  C_13
REMARK    5  A    between atoms: C_13  and  O_14
REMARK    6  A    between atoms: C_13  and  C_15
REMARK    7  A    between atoms: C_17  and  C_18
REMARK    8  A    between atoms: C_21  and  C_22
REMARK                            x       y       z     vdW  Elec       q    Type
REMARK                         _______ _______ _______ _____ _____    ______ ____
ROOT
ATOM      1  C   UNL     1       2.022   8.082  19.233  0.00  0.00    +0.000 A 
ATOM      2  C   UNL     1       2.590   8.468  18.040  0.00  0.00    +0.000 A 
ATOM      3  N   UNL     1       3.245   7.365  17.558  0.00  0.00    +0.000 N 
ATOM      4  C   UNL     1       3.039   6.332  18.441  0.00  0.00    +0.000 A 
ATOM      5  N   UNL     1       2.342   6.756  19.480  0.00  0.00    +0.000 NA
ATOM      6  H   UNL     1       3.786   7.317  16.707  0.00  0.00    +0.000 HD
ENDROOT
BRANCH   1  12
ATOM      7  C   UNL     1       0.335   9.921  19.781  0.00  0.00    +0.000 A 
ATOM      8  C   UNL     1      -0.423  10.582  20.765  0.00  0.00    +0.000 A 
ATOM      9  C   UNL     1      -0.313  10.237  22.113  0.00  0.00    +0.000 A 
ATOM     10  C   UNL     1       0.538   9.210  22.491  0.00  0.00    +0.000 A 
ATOM     11  C   UNL     1       1.272   8.528  21.520  0.00  0.00    +0.000 A 
ATOM     12  C   UNL     1       1.189   8.861  20.151  0.00  0.00    +0.000 A 
BRANCH   7  14
ATOM     13  C   UNL     1      -1.092  10.143  17.907  0.00  0.00    +0.000 C 
ATOM     14  O   UNL     1       0.220  10.260  18.455  0.00  0.00    +0.000 OA
ENDBRANCH   7  14
ENDBRANCH   1  12
BRANCH   4  15
ATOM     15  C   UNL     1       3.601   4.951  18.226  0.00  0.00    +0.000 C 
BRANCH  15  16
ATOM     16  C   UNL     1       4.854   4.857  17.363  0.00  0.00    +0.000 A 
ATOM     17  C   UNL     1       4.769   4.470  16.009  0.00  0.00    +0.000 A 
ATOM     18  C   UNL     1       5.903   4.358  15.195  0.00  0.00    +0.000 A 
ATOM     19  C   UNL     1       5.785   3.905  13.769  0.00  0.00    +0.000 C 
ATOM     20  C   UNL     1       7.155   4.641  15.738  0.00  0.00    +0.000 A 
ATOM     21  C   UNL     1       7.271   4.990  17.082  0.00  0.00    +0.000 A 
ATOM     22  C   UNL     1       6.140   5.069  17.912  0.00  0.00    +0.000 A 
ATOM     23  C   UNL     1       6.348   5.380  19.370  0.00  0.00    +0.000 C 
ENDBRANCH  15  16
BRANCH  15  24
ATOM     24  O   UNL     1       2.571   4.184  17.603  0.00  0.00    +0.000 OA
ATOM     25  H   UNL     1       2.218   3.622  18.320  0.00  0.00    +0.000 HD
ENDBRANCH  15  24
ENDBRANCH   4  15
TORSDOF 5
ENDMDL
MODEL 6
REMARK VINA RESULT:      -7.2      1.400      7.471
REMARK  Name = 
REMARK  8 active torsions:
REMARK  status: ('A' for Active; 'I' for Inactive)
REMARK    1  A    between atoms: C_1  and  O_2
REMARK    2  A    between atoms: O_2  and  C_3
REMARK    3  A    between atoms: C_8  and  C_9
REMARK    4  A    between atoms: C_12  and  C_13
REMARK    5  A    between atoms: C_13  and  O_14
REMARK    6  A    between atoms: C_13  and  C_15
REMARK    7  A    between atoms: C_17  and  C_18
REMARK    8  A    between atoms: C_21  and  C_22
REMARK                            x       y       z     vdW  Elec       q    Type
REMARK                         _______ _______ _______ _____ _____    ______ ____
ROOT
ATOM      1  C   UNL     1       0.889   9.551  18.783  0.00  0.00    +0.000 A 
ATOM      2  C   UNL     1       1.742   9.484  17.704  0.00  0.00    +0.000 A 
ATOM      3  N   UNL     1       2.561   8.411  17.936  0.00  0.00    +0.000 N 
ATOM      4  C   UNL     1       2.176   7.833  19.121  0.00  0.00    +0.000 A 
ATOM      5  N   UNL     1       1.199   8.532  19.670  0.00  0.00    +0.000 NA
ATOM      6  H   UNL     1       3.316   8.099  17.344  0.00  0.00    +0.000 HD
ENDROOT
BRANCH   1  12
ATOM      7  C   UNL     1      -1.350  10.651  18.229  0.00  0.00    +0.000 A 
ATOM      8  C   UNL     1      -2.336  11.586  18.593  0.00  0.00    +0.000 A 
ATOM      9  C   UNL     1      -2.181  12.395  19.720  0.00  0.00    +0.000 A 
ATOM     10  C   UNL     1      -1.050  12.262  20.510  0.00  0.00    +0.000 A 
ATOM     11  C   UNL     1      -0.080  11.317  20.175  0.00  0.00    +0.000 A 
ATOM     12  C   UNL     1      -0.204  10.492  19.036  0.00  0.00    +0.000 A 
BRANCH   7  14
ATOM     13  C   UNL     1      -2.806   9.878  16.532  0.00  0.00    +0.000 C 
ATOM     14  O   UNL     1      -1.508   9.852  17.122  0.00  0.00    +0.000 OA
ENDBRANCH   7  14
ENDBRANCH   1  12
BRANCH   4  15
ATOM     15  C   UNL     1       2.848   6.610  19.690  0.00  0.00    +0.000 C 
BRANCH  15  16
ATOM     16  C   UNL     1       2.753   5.338  18.854  0.00  0.00    +0.000 A 
ATOM     17  C   UNL     1       1.743   4.386  19.103  0.00  0.00    +0.000 A 
ATOM     18  C   UNL     1       1.640   3.200  18.365  0.00  0.00    +0.000 A 
ATOM     19  C   UNL     1       0.579   2.187  18.680  0.00  0.00    +0.000 C 
ATOM     20  C   UNL     1       2.563   2.953  17.350  0.00  0.00    +0.000 A 
ATOM     21  C   UNL     1       3.594   3.860  17.107  0.00  0.00    +0.000 A 
ATOM     22  C   UNL     1       3.722   5.035  17.869  0.00  0.00    +0.000 A 
ATOM     23  C   UNL     1       4.901   5.931  17.600  0.00  0.00    +0.000 C 
ENDBRANCH  15  16
BRANCH  15  24
ATOM     24  O   UNL     1       2.237   6.359  20.954  0.00  0.00    +0.000 OA
ATOM     25  H   UNL     1       1.468   5.794  20.746  0.00  0.00    +0.000 HD
ENDBRANCH  15  24
ENDBRANCH   4  15
TORSDOF 5
ENDMDL
MODEL 7
REMARK VINA RESULT:      -7.1      1.522      7.341
REMARK  Name = 
REMARK  8 active torsions:
REMARK  status: ('A' for Active; 'I' for Inactive)
REMARK    1  A    between atoms: C_1  and  O_2
REMARK    2  A    between atoms: O_2  and  C_3
REMARK    3  A    between atoms: C_8  and  C_9
REMARK    4  A    between atoms: C_12  and  C_13
REMARK    5  A    between atoms: C_13  and  O_14
REMARK    6  A    between atoms: C_13  and  C_15
REMARK    7  A    between atoms: C_17  and  C_18
REMARK    8  A    between atoms: C_21  and  C_22
REMARK                            x       y       z     vdW  Elec       q    Type
REMARK                         _______ _______ _______ _____ _____    ______ ____
ROOT
ATOM      1  C   UNL     1       0.954   9.574  18.814  0.00  0.00    +0.000 A 
ATOM      2  C   UNL     1       1.739   9.440  17.692  0.00  0.00    +0.000 A 
ATOM      3  N   UNL     1       2.531   8.344  17.912  0.00  0.00    +0.000 N 
ATOM      4  C   UNL     1       2.195   7.819  19.137  0.00  0.00    +0.000 A 
ATOM      5  N   UNL     1       1.278   8.573  19.717  0.00  0.00    +0.000 NA
ATOM      6  H   UNL     1       3.238   7.984  17.289  0.00  0.00    +0.000 HD
ENDROOT
BRANCH   1  12
ATOM      7  C   UNL     1       0.016  11.614  20.034  0.00  0.00    +0.000 A 
ATOM      8  C   UNL     1      -1.058  12.507  20.201  0.00  0.00    +0.000 A 
ATOM      9  C   UNL     1      -2.246  12.347  19.488  0.00  0.00    +0.000 A 
ATOM     10  C   UNL     1      -2.368  11.307  18.580  0.00  0.00    +0.000 A 
ATOM     11  C   UNL     1      -1.298  10.433  18.383  0.00  0.00    +0.000 A 
ATOM     12  C   UNL     1      -0.088  10.564  19.098  0.00  0.00    +0.000 A 
BRANCH   7  14
ATOM     13  C   UNL     1       1.868  13.009  20.504  0.00  0.00    +0.000 C 
ATOM     14  O   UNL     1       1.187  11.778  20.734  0.00  0.00    +0.000 OA
ENDBRANCH   7  14
ENDBRANCH   1  12
BRANCH   4  15
ATOM     15  C   UNL     1       2.854   6.590  19.707  0.00  0.00    +0.000 C 
BRANCH  15  16
ATOM     16  C   UNL     1       2.759   5.321  18.867  0.00  0.00    +0.000 A 
ATOM     17  C   UNL     1       1.739   4.376  19.103  0.00  0.00    +0.000 A 
ATOM     18  C   UNL     1       1.635   3.192  18.360  0.00  0.00    +0.000 A 
ATOM     19  C   UNL     1       0.563   2.186  18.661  0.00  0.00    +0.000 C 
ATOM     20  C   UNL     1       2.566   2.943  17.354  0.00  0.00    +0.000 A 
ATOM     21  C   UNL     1       3.605   3.842  17.124  0.00  0.00    +0.000 A 
ATOM     22  C   UNL     1       3.735   5.014  17.891  0.00  0.00    +0.000 A 
ATOM     23  C   UNL     1       4.923   5.903  17.636  0.00  0.00    +0.000 C 
ENDBRANCH  15  16
BRANCH  15  24
ATOM     24  O   UNL     1       2.230   6.339  20.966  0.00  0.00    +0.000 OA
ATOM     25  H   UNL     1       2.943   5.967  21.521  0.00  0.00    +0.000 HD
ENDBRANCH  15  24
ENDBRANCH   4  15
TORSDOF 5
ENDMDL
MODEL 8
REMARK VINA RESULT:      -7.1      5.299      8.943
REMARK  Name = 
REMARK  8 active torsions:
REMARK  status: ('A' for Active; 'I' for Inactive)
REMARK    1  A    between atoms: C_1  and  O_2
REMARK    2  A    between atoms: O_2  and  C_3
REMARK    3  A    between atoms: C_8  and  C_9
REMARK    4  A    between atoms: C_12  and  C_13
REMARK    5  A    between atoms: C_13  and  O_14
REMARK    6  A    between atoms: C_13  and  C_15
REMARK    7  A    between atoms: C_17  and  C_18
REMARK    8  A    between atoms: C_21  and  C_22
REMARK                            x       y       z     vdW  Elec       q    Type
REMARK                         _______ _______ _______ _____ _____    ______ ____
ROOT
ATOM      1  C   UNL     1       8.751   9.399  18.448  0.00  0.00    +0.000 A 
ATOM      2  C   UNL     1       7.730   9.407  17.525  0.00  0.00    +0.000 A 
ATOM      3  N   UNL     1       7.236   8.129  17.497  0.00  0.00    +0.000 N 
ATOM      4  C   UNL     1       7.938   7.385  18.413  0.00  0.00    +0.000 A 
ATOM      5  N   UNL     1       8.886   8.121  18.965  0.00  0.00    +0.000 NA
ATOM      6  H   UNL     1       6.491   7.791  16.906  0.00  0.00    +0.000 HD
ENDROOT
BRANCH   1  12
ATOM      7  C   UNL     1       9.603  11.071  20.183  0.00  0.00    +0.000 A 
ATOM      8  C   UNL     1      10.483  12.128  20.481  0.00  0.00    +0.000 A 
ATOM      9  C   UNL     1      11.328  12.660  19.507  0.00  0.00    +0.000 A 
ATOM     10  C   UNL     1      11.321  12.127  18.227  0.00  0.00    +0.000 A 
ATOM     11  C   UNL     1      10.475  11.059  17.927  0.00  0.00    +0.000 A 
ATOM     12  C   UNL     1       9.602  10.507  18.890  0.00  0.00    +0.000 A 
BRANCH   7  14
ATOM     13  C   UNL     1       8.435  11.434  22.208  0.00  0.00    +0.000 C 
ATOM     14  O   UNL     1       8.777  10.546  21.146  0.00  0.00    +0.000 OA
ENDBRANCH   7  14
ENDBRANCH   1  12
BRANCH   4  15
ATOM     15  C   UNL     1       7.655   5.926  18.669  0.00  0.00    +0.000 C 
BRANCH  15  16
ATOM     16  C   UNL     1       6.253   5.439  18.321  0.00  0.00    +0.000 A 
ATOM     17  C   UNL     1       5.205   5.531  19.260  0.00  0.00    +0.000 A 
ATOM     18  C   UNL     1       3.911   5.076  18.978  0.00  0.00    +0.000 A 
ATOM     19  C   UNL     1       2.826   5.149  20.012  0.00  0.00    +0.000 C 
ATOM     20  C   UNL     1       3.649   4.518  17.728  0.00  0.00    +0.000 A 
ATOM     21  C   UNL     1       4.674   4.382  16.794  0.00  0.00    +0.000 A 
ATOM     22  C   UNL     1       5.983   4.804  17.087  0.00  0.00    +0.000 A 
ATOM     23  C   UNL     1       7.055   4.559  16.058  0.00  0.00    +0.000 C 
ENDBRANCH  15  16
BRANCH  15  24
ATOM     24  O   UNL     1       7.872   5.707  20.061  0.00  0.00    +0.000 OA
ATOM     25  H   UNL     1       7.707   6.576  20.475  0.00  0.00    +0.000 HD
ENDBRANCH  15  24
ENDBRANCH   4  15
TORSDOF 5
ENDMDL
MODEL 9
REMARK VINA RESULT:      -7.1      1.236      1.319
REMARK  Name = 
REMARK  8 active torsions:
REMARK  status: ('A' for Active; 'I' for Inactive)
REMARK    1  A    between atoms: C_1  and  O_2
REMARK    2  A    between atoms: O_2  and  C_3
REMARK    3  A    between atoms: C_8  and  C_9
REMARK    4  A    between atoms: C_12  and  C_13
REMARK    5  A    between atoms: C_13  and  O_14
REMARK    6  A    between atoms: C_13  and  C_15
REMARK    7  A    between atoms: C_17  and  C_18
REMARK    8  A    between atoms: C_21  and  C_22
REMARK                            x       y       z     vdW  Elec       q    Type
REMARK                         _______ _______ _______ _____ _____    ______ ____
ROOT
ATOM      1  C   UNL     1       1.885   6.697  20.201  0.00  0.00    +0.000 A 
ATOM      2  C   UNL     1       1.427   7.443  21.263  0.00  0.00    +0.000 A 
ATOM      3  N   UNL     1       1.274   8.720  20.790  0.00  0.00    +0.000 N 
ATOM      4  C   UNL     1       1.609   8.720  19.458  0.00  0.00    +0.000 A 
ATOM      5  N   UNL     1       2.023   7.520  19.094  0.00  0.00    +0.000 NA
ATOM      6  H   UNL     1       0.971   9.521  21.324  0.00  0.00    +0.000 HD
ENDROOT
BRANCH   1  12
ATOM      7  C   UNL     1       3.445   4.710  19.814  0.00  0.00    +0.000 A 
ATOM      8  C   UNL     1       3.609   3.313  19.808  0.00  0.00    +0.000 A 
ATOM      9  C   UNL     1       2.538   2.460  20.080  0.00  0.00    +0.000 A 
ATOM     10  C   UNL     1       1.296   2.994  20.385  0.00  0.00    +0.000 A 
ATOM     11  C   UNL     1       1.129   4.379  20.424  0.00  0.00    +0.000 A 
ATOM     12  C   UNL     1       2.191   5.266  20.144  0.00  0.00    +0.000 A 
BRANCH   7  14
ATOM     13  C   UNL     1       5.316   5.172  18.441  0.00  0.00    +0.000 C 
ATOM     14  O   UNL     1       4.503   5.547  19.552  0.00  0.00    +0.000 OA
ENDBRANCH   7  14
ENDBRANCH   1  12
BRANCH   4  15
ATOM     15  C   UNL     1       1.544   9.957  18.600  0.00  0.00    +0.000 C 
BRANCH  15  16
ATOM     16  C   UNL     1       0.179  10.625  18.478  0.00  0.00    +0.000 A 
ATOM     17  C   UNL     1      -0.883   9.977  17.813  0.00  0.00    +0.000 A 
ATOM     18  C   UNL     1      -2.144  10.571  17.669  0.00  0.00    +0.000 A 
ATOM     19  C   UNL     1      -3.242   9.874  16.921  0.00  0.00    +0.000 C 
ATOM     20  C   UNL     1      -2.357  11.840  18.204  0.00  0.00    +0.000 A 
ATOM     21  C   UNL     1      -1.315  12.518  18.834  0.00  0.00    +0.000 A 
ATOM     22  C   UNL     1      -0.038  11.940  18.949  0.00  0.00    +0.000 A 
ATOM     23  C   UNL     1       1.058  12.759  19.577  0.00  0.00    +0.000 C 
ENDBRANCH  15  16
BRANCH  15  24
ATOM     24  O   UNL     1       1.969   9.571  17.294  0.00  0.00    +0.000 OA
ATOM     25  H   UNL     1       1.209   9.082  16.924  0.00  0.00    +0.000 HD
ENDBRANCH  15  24
ENDBRANCH   4  15
TORSDOF 5
ENDMDL
