MODEL 1
REMARK VINA RESULT:      -7.6      0.000      0.000
REMARK  Name = 
REMARK  8 active torsions:
REMARK  status: ('A' for Active; 'I' for Inactive)
REMARK    1  A    between atoms: C_1  and  C_2
REMARK    2  A    between atoms: C_4  and  C_5
REMARK    3  A    between atoms: N_7  and  C_8
REMARK    4  A    between atoms: C_8  and  C_9
REMARK    5  A    between atoms: N_11  and  C_12
REMARK    6  A    between atoms: C_12  and  C_13
REMARK    7  A    between atoms: C_12  and  C_14
REMARK    8  A    between atoms: C_12  and  C_15
REMARK                            x       y       z     vdW  Elec       q    Type
REMARK                         _______ _______ _______ _____ _____    ______ ____
ROOT
ATOM      1  C   UNL     1       6.815   5.022  16.901  0.00  0.00    +0.000 C 
ATOM      2  O   UNL     1       7.749   5.618  17.430  0.00  0.00    +0.000 OA
ATOM      3  N   UNL     1       5.730   4.567  17.605  0.00  0.00    +0.000 N 
ATOM      4  H   UNL     1       4.994   4.078  17.095  0.00  0.00    +0.000 HD
ENDROOT
BRANCH   1   8
ATOM      5  C   UNL     1       5.815   3.269  12.227  0.00  0.00    +0.000 C 
ATOM      6  C   UNL     1       6.267   3.916  13.470  0.00  0.00    +0.000 A 
ATOM      7  C   UNL     1       5.924   3.808  14.795  0.00  0.00    +0.000 A 
ATOM      8  C   UNL     1       6.766   4.736  15.464  0.00  0.00    +0.000 A 
ATOM      9  N   UNL     1       7.566   5.365  14.584  0.00  0.00    +0.000 NA
ATOM     10  O   UNL     1       7.249   4.848  13.340  0.00  0.00    +0.000 OA
ENDBRANCH   1   8
BRANCH   3  11
ATOM     11  C   UNL     1       5.565   4.740  19.033  0.00  0.00    +0.000 C 
BRANCH  11  12
ATOM     12  C   UNL     1       4.595   3.674  19.543  0.00  0.00    +0.000 C 
ATOM     13  O   UNL     1       4.982   2.546  19.839  0.00  0.00    +0.000 OA
ATOM     14  N   UNL     1       3.277   4.079  19.635  0.00  0.00    +0.000 N 
ATOM     15  H   UNL     1       3.048   5.037  19.396  0.00  0.00    +0.000 HD
BRANCH  14  16
ATOM     16  C   UNL     1       2.184   3.202  20.100  0.00  0.00    +0.000 C 
ATOM     17  C   UNL     1       2.492   2.642  21.499  0.00  0.00    +0.000 C 
ATOM     18  C   UNL     1       0.884   4.023  20.185  0.00  0.00    +0.000 C 
ATOM     19  C   UNL     1       1.949   2.049  19.110  0.00  0.00    +0.000 C 
ENDBRANCH  14  16
ENDBRANCH  11  12
ENDBRANCH   3  11
TORSDOF 4
ENDMDL
MODEL 2
REMARK VINA RESULT:      -7.3      1.056      1.498
REMARK  Name = 
REMARK  8 active torsions:
REMARK  status: ('A' for Active; 'I' for Inactive)
REMARK    1  A    between atoms: C_1  and  C_2
REMARK    2  A    between atoms: C_4  and  C_5
REMARK    3  A    between atoms: N_7  and  C_8
REMARK    4  A    between atoms: C_8  and  C_9
REMARK    5  A    between atoms: N_11  and  C_12
REMARK    6  A    between atoms: C_12  and  C_13
REMARK    7  A    between atoms: C_12  and  C_14
REMARK    8  A    between atoms: C_12  and  C_15
REMARK                            x       y       z     vdW  Elec       q    Type
REMARK                         _______ _______ _______ _____ _____    ______ ____
ROOT
ATOM      1  C   UNL     1       6.573   4.898  16.959  0.00  0.00    +0.000 C 
ATOM      2  O   UNL     1       7.198   5.701  17.646  0.00  0.00    +0.000 OA
ATOM      3  N   UNL     1       5.631   4.047  17.480  0.00  0.00    +0.000 N 
ATOM      4  H   UNL     1       5.155   3.408  16.845  0.00  0.00    +0.000 HD
ENDROOT
BRANCH   1   8
ATOM      5  C   UNL     1       6.493   3.565  12.046  0.00  0.00    +0.000 C 
ATOM      6  C   UNL     1       6.674   4.119  13.398  0.00  0.00    +0.000 A 
ATOM      7  C   UNL     1       6.158   3.829  14.638  0.00  0.00    +0.000 A 
ATOM      8  C   UNL     1       6.770   4.766  15.512  0.00  0.00    +0.000 A 
ATOM      9  N   UNL     1       7.604   5.572  14.830  0.00  0.00    +0.000 NA
ATOM     10  O   UNL     1       7.540   5.162  13.511  0.00  0.00    +0.000 OA
ENDBRANCH   1   8
BRANCH   3  11
ATOM     11  C   UNL     1       5.272   4.006  18.883  0.00  0.00    +0.000 C 
BRANCH  11  12
ATOM     12  C   UNL     1       3.749   4.089  18.995  0.00  0.00    +0.000 C 
ATOM     13  O   UNL     1       3.079   4.700  18.166  0.00  0.00    +0.000 OA
ATOM     14  N   UNL     1       3.206   3.435  20.085  0.00  0.00    +0.000 N 
ATOM     15  H   UNL     1       3.830   2.932  20.705  0.00  0.00    +0.000 HD
BRANCH  14  16
ATOM     16  C   UNL     1       1.760   3.397  20.378  0.00  0.00    +0.000 C 
ATOM     17  C   UNL     1       0.992   2.698  19.244  0.00  0.00    +0.000 C 
ATOM     18  C   UNL     1       1.532   2.602  21.677  0.00  0.00    +0.000 C 
ATOM     19  C   UNL     1       1.208   4.817  20.591  0.00  0.00    +0.000 C 
ENDBRANCH  14  16
ENDBRANCH  11  12
ENDBRANCH   3  11
TORSDOF 4
ENDMDL
MODEL 3
REMARK VINA RESULT:      -7.3      1.290      1.718
REMARK  Name = 
REMARK  8 active torsions:
REMARK  status: ('A' for Active; 'I' for Inactive)
REMARK    1  A    between atoms: C_1  and  C_2
REMARK    2  A    between atoms: C_4  and  C_5
REMARK    3  A    between atoms: N_7  and  C_8
REMARK    4  A    between atoms: C_8  and  C_9
REMARK    5  A    between atoms: N_11  and  C_12
REMARK    6  A    between atoms: C_12  and  C_13
REMARK    7  A    between atoms: C_12  and  C_14
REMARK    8  A    between atoms: C_12  and  C_15
REMARK                            x       y       z     vdW  Elec       q    Type
REMARK                         _______ _______ _______ _____ _____    ______ ____
ROOT
ATOM      1  C   UNL     1       6.906   4.727  17.232  0.00  0.00    +0.000 C 
ATOM      2  O   UNL     1       7.830   4.328  17.934  0.00  0.00    +0.000 OA
ATOM      3  N   UNL     1       5.743   5.236  17.751  0.00  0.00    +0.000 N 
ATOM      4  H   UNL     1       5.020   5.546  17.103  0.00  0.00    +0.000 HD
ENDROOT
BRANCH   1   8
ATOM      5  C   UNL     1       6.368   3.699  12.275  0.00  0.00    +0.000 C 
ATOM      6  C   UNL     1       6.662   4.179  13.635  0.00  0.00    +0.000 A 
ATOM      7  C   UNL     1       6.304   3.779  14.899  0.00  0.00    +0.000 A 
ATOM      8  C   UNL     1       6.950   4.699  15.766  0.00  0.00    +0.000 A 
ATOM      9  N   UNL     1       7.654   5.600  15.057  0.00  0.00    +0.000 NA
ATOM     10  O   UNL     1       7.470   5.270  13.727  0.00  0.00    +0.000 OA
ENDBRANCH   1   8
BRANCH   3  11
ATOM     11  C   UNL     1       5.482   5.361  19.171  0.00  0.00    +0.000 C 
BRANCH  11  12
ATOM     12  C   UNL     1       3.986   5.148  19.409  0.00  0.00    +0.000 C 
ATOM     13  O   UNL     1       3.254   6.076  19.748  0.00  0.00    +0.000 OA
ATOM     14  N   UNL     1       3.542   3.854  19.219  0.00  0.00    +0.000 N 
ATOM     15  H   UNL     1       4.209   3.155  18.913  0.00  0.00    +0.000 HD
BRANCH  14  16
ATOM     16  C   UNL     1       2.138   3.437  19.401  0.00  0.00    +0.000 C 
ATOM     17  C   UNL     1       1.249   4.012  18.284  0.00  0.00    +0.000 C 
ATOM     18  C   UNL     1       2.058   1.901  19.338  0.00  0.00    +0.000 C 
ATOM     19  C   UNL     1       1.610   3.882  20.775  0.00  0.00    +0.000 C 
ENDBRANCH  14  16
ENDBRANCH  11  12
ENDBRANCH   3  11
TORSDOF 4
ENDMDL
MODEL 4
REMARK VINA RESULT:      -7.1      1.168      1.284
REMARK  Name = 
REMARK  8 active torsions:
REMARK  status: ('A' for Active; 'I' for Inactive)
REMARK    1  A    between atoms: C_1  and  C_2
REMARK    2  A    between atoms: C_4  and  C_5
REMARK    3  A    between atoms: N_7  and  C_8
REMARK    4  A    between atoms: C_8  and  C_9
REMARK    5  A    between atoms: N_11  and  C_12
REMARK    6  A    between atoms: C_12  and  C_13
REMARK    7  A    between atoms: C_12  and  C_14
REMARK    8  A    between atoms: C_12  and  C_15
REMARK                            x       y       z     vdW  Elec       q    Type
REMARK                         _______ _______ _______ _____ _____    ______ ____
ROOT
ATOM      1  C   UNL     1       6.672   5.085  17.030  0.00  0.00    +0.000 C 
ATOM      2  O   UNL     1       7.214   6.013  17.623  0.00  0.00    +0.000 OA
ATOM      3  N   UNL     1       5.874   4.165  17.661  0.00  0.00    +0.000 N 
ATOM      4  H   UNL     1       5.460   3.420  17.101  0.00  0.00    +0.000 HD
ENDROOT
BRANCH   1   8
ATOM      5  C   UNL     1       6.393   3.492  12.203  0.00  0.00    +0.000 C 
ATOM      6  C   UNL     1       6.638   4.108  13.517  0.00  0.00    +0.000 A 
ATOM      7  C   UNL     1       6.140   3.916  14.782  0.00  0.00    +0.000 A 
ATOM      8  C   UNL     1       6.824   4.864  15.589  0.00  0.00    +0.000 A 
ATOM      9  N   UNL     1       7.682   5.584  14.844  0.00  0.00    +0.000 NA
ATOM     10  O   UNL     1       7.561   5.107  13.551  0.00  0.00    +0.000 OA
ENDBRANCH   1   8
BRANCH   3  11
ATOM     11  C   UNL     1       5.581   4.190  19.079  0.00  0.00    +0.000 C 
BRANCH  11  12
ATOM     12  C   UNL     1       4.098   4.510  19.263  0.00  0.00    +0.000 C 
ATOM     13  O   UNL     1       3.728   5.592  19.714  0.00  0.00    +0.000 OA
ATOM     14  N   UNL     1       3.231   3.501  18.891  0.00  0.00    +0.000 N 
ATOM     15  H   UNL     1       3.620   2.650  18.502  0.00  0.00    +0.000 HD
BRANCH  14  16
ATOM     16  C   UNL     1       1.762   3.607  18.992  0.00  0.00    +0.000 C 
ATOM     17  C   UNL     1       1.351   4.211  20.346  0.00  0.00    +0.000 C 
ATOM     18  C   UNL     1       1.247   4.533  17.875  0.00  0.00    +0.000 C 
ATOM     19  C   UNL     1       1.100   2.231  18.807  0.00  0.00    +0.000 C 
ENDBRANCH  14  16
ENDBRANCH  11  12
ENDBRANCH   3  11
TORSDOF 4
ENDMDL
MODEL 5
REMARK VINA RESULT:      -7.0      0.675      1.256
REMARK  Name = 
REMARK  8 active torsions:
REMARK  status: ('A' for Active; 'I' for Inactive)
REMARK    1  A    between atoms: C_1  and  C_2
REMARK    2  A    between atoms: C_4  and  C_5
REMARK    3  A    between atoms: N_7  and  C_8
REMARK    4  A    between atoms: C_8  and  C_9
REMARK    5  A    between atoms: N_11  and  C_12
REMARK    6  A    between atoms: C_12  and  C_13
REMARK    7  A    between atoms: C_12  and  C_14
REMARK    8  A    between atoms: C_12  and  C_15
REMARK                            x       y       z     vdW  Elec       q    Type
REMARK                         _______ _______ _______ _____ _____    ______ ____
ROOT
ATOM      1  C   UNL     1       5.939   5.585  16.766  0.00  0.00    +0.000 C 
ATOM      2  O   UNL     1       5.731   6.770  17.012  0.00  0.00    +0.000 OA
ATOM      3  N   UNL     1       5.875   4.605  17.723  0.00  0.00    +0.000 N 
ATOM      4  H   UNL     1       6.064   3.643  17.442  0.00  0.00    +0.000 HD
ENDROOT
BRANCH   1   8
ATOM      5  C   UNL     1       6.131   3.291  12.226  0.00  0.00    +0.000 C 
ATOM      6  C   UNL     1       6.282   4.058  13.473  0.00  0.00    +0.000 A 
ATOM      7  C   UNL     1       5.546   4.184  14.625  0.00  0.00    +0.000 A 
ATOM      8  C   UNL     1       6.280   5.099  15.426  0.00  0.00    +0.000 A 
ATOM      9  N   UNL     1       7.393   5.498  14.784  0.00  0.00    +0.000 NA
ATOM     10  O   UNL     1       7.389   4.844  13.565  0.00  0.00    +0.000 OA
ENDBRANCH   1   8
BRANCH   3  11
ATOM     11  C   UNL     1       5.553   4.855  19.113  0.00  0.00    +0.000 C 
BRANCH  11  12
ATOM     12  C   UNL     1       4.594   3.765  19.592  0.00  0.00    +0.000 C 
ATOM     13  O   UNL     1       4.992   2.631  19.849  0.00  0.00    +0.000 OA
ATOM     14  N   UNL     1       3.274   4.156  19.706  0.00  0.00    +0.000 N 
ATOM     15  H   UNL     1       3.036   5.119  19.499  0.00  0.00    +0.000 HD
BRANCH  14  16
ATOM     16  C   UNL     1       2.190   3.256  20.147  0.00  0.00    +0.000 C 
ATOM     17  C   UNL     1       0.844   3.999  20.180  0.00  0.00    +0.000 C 
ATOM     18  C   UNL     1       2.071   2.087  19.152  0.00  0.00    +0.000 C 
ATOM     19  C   UNL     1       2.500   2.666  21.533  0.00  0.00    +0.000 C 
ENDBRANCH  14  16
ENDBRANCH  11  12
ENDBRANCH   3  11
TORSDOF 4
ENDMDL
MODEL 6
REMARK VINA RESULT:      -7.0      1.043      1.474
REMARK  Name = 
REMARK  8 active torsions:
REMARK  status: ('A' for Active; 'I' for Inactive)
REMARK    1  A    between atoms: C_1  and  C_2
REMARK    2  A    between atoms: C_4  and  C_5
REMARK    3  A    between atoms: N_7  and  C_8
REMARK    4  A    between atoms: C_8  and  C_9
REMARK    5  A    between atoms: N_11  and  C_12
REMARK    6  A    between atoms: C_12  and  C_13
REMARK    7  A    between atoms: C_12  and  C_14
REMARK    8  A    between atoms: C_12  and  C_15
REMARK                            x       y       z     vdW  Elec       q    Type
REMARK                         _______ _______ _______ _____ _____    ______ ____
ROOT
ATOM      1  C   UNL     1       5.362   5.304  16.886  0.00  0.00    +0.000 C 
ATOM      2  O   UNL     1       4.281   5.877  16.996  0.00  0.00    +0.000 OA
ATOM      3  N   UNL     1       6.082   4.860  17.966  0.00  0.00    +0.000 N 
ATOM      4  H   UNL     1       6.972   4.394  17.793  0.00  0.00    +0.000 HD
ENDROOT
BRANCH   1   8
ATOM      5  C   UNL     1       6.655   3.641  12.251  0.00  0.00    +0.000 C 
ATOM      6  C   UNL     1       6.479   4.258  13.576  0.00  0.00    +0.000 A 
ATOM      7  C   UNL     1       5.548   4.144  14.579  0.00  0.00    +0.000 A 
ATOM      8  C   UNL     1       5.992   5.037  15.589  0.00  0.00    +0.000 A 
ATOM      9  N   UNL     1       7.126   5.653  15.208  0.00  0.00    +0.000 NA
ATOM     10  O   UNL     1       7.425   5.162  13.950  0.00  0.00    +0.000 OA
ENDBRANCH   1   8
BRANCH   3  11
ATOM     11  C   UNL     1       5.650   5.012  19.340  0.00  0.00    +0.000 C 
BRANCH  11  12
ATOM     12  C   UNL     1       4.667   3.888  19.666  0.00  0.00    +0.000 C 
ATOM     13  O   UNL     1       5.045   2.727  19.802  0.00  0.00    +0.000 OA
ATOM     14  N   UNL     1       3.348   4.282  19.790  0.00  0.00    +0.000 N 
ATOM     15  H   UNL     1       3.127   5.266  19.690  0.00  0.00    +0.000 HD
BRANCH  14  16
ATOM     16  C   UNL     1       2.243   3.353  20.098  0.00  0.00    +0.000 C 
ATOM     17  C   UNL     1       2.179   2.219  19.060  0.00  0.00    +0.000 C 
ATOM     18  C   UNL     1       2.486   2.725  21.483  0.00  0.00    +0.000 C 
ATOM     19  C   UNL     1       0.899   4.098  20.147  0.00  0.00    +0.000 C 
ENDBRANCH  14  16
ENDBRANCH  11  12
ENDBRANCH   3  11
TORSDOF 4
ENDMDL
MODEL 7
REMARK VINA RESULT:      -7.0      1.317      1.351
REMARK  Name = 
REMARK  8 active torsions:
REMARK  status: ('A' for Active; 'I' for Inactive)
REMARK    1  A    between atoms: C_1  and  C_2
REMARK    2  A    between atoms: C_4  and  C_5
REMARK    3  A    between atoms: N_7  and  C_8
REMARK    4  A    between atoms: C_8  and  C_9
REMARK    5  A    between atoms: N_11  and  C_12
REMARK    6  A    between atoms: C_12  and  C_13
REMARK    7  A    between atoms: C_12  and  C_14
REMARK    8  A    between atoms: C_12  and  C_15
REMARK                            x       y       z     vdW  Elec       q    Type
REMARK                         _______ _______ _______ _____ _____    ______ ____
ROOT
ATOM      1  C   UNL     1       6.825   5.466  16.388  0.00  0.00    +0.000 C 
ATOM      2  O   UNL     1       7.451   6.462  16.740  0.00  0.00    +0.000 OA
ATOM      3  N   UNL     1       6.059   4.725  17.252  0.00  0.00    +0.000 N 
ATOM      4  H   UNL     1       5.570   3.910  16.884  0.00  0.00    +0.000 HD
ENDROOT
BRANCH   1   8
ATOM      5  C   UNL     1       6.002   3.037  11.990  0.00  0.00    +0.000 C 
ATOM      6  C   UNL     1       6.409   3.861  13.140  0.00  0.00    +0.000 A 
ATOM      7  C   UNL     1       6.008   3.955  14.450  0.00  0.00    +0.000 A 
ATOM      8  C   UNL     1       6.833   4.967  15.009  0.00  0.00    +0.000 A 
ATOM      9  N   UNL     1       7.679   5.451  14.081  0.00  0.00    +0.000 NA
ATOM     10  O   UNL     1       7.409   4.755  12.916  0.00  0.00    +0.000 OA
ENDBRANCH   1   8
BRANCH   3  11
ATOM     11  C   UNL     1       5.903   5.035  18.658  0.00  0.00    +0.000 C 
BRANCH  11  12
ATOM     12  C   UNL     1       4.410   5.170  18.961  0.00  0.00    +0.000 C 
ATOM     13  O   UNL     1       3.797   6.204  18.707  0.00  0.00    +0.000 OA
ATOM     14  N   UNL     1       3.827   4.057  19.535  0.00  0.00    +0.000 N 
ATOM     15  H   UNL     1       4.401   3.235  19.687  0.00  0.00    +0.000 HD
BRANCH  14  16
ATOM     16  C   UNL     1       2.401   3.982  19.909  0.00  0.00    +0.000 C 
ATOM     17  C   UNL     1       2.127   2.735  20.768  0.00  0.00    +0.000 C 
ATOM     18  C   UNL     1       2.034   5.227  20.737  0.00  0.00    +0.000 C 
ATOM     19  C   UNL     1       1.508   3.967  18.658  0.00  0.00    +0.000 C 
ENDBRANCH  14  16
ENDBRANCH  11  12
ENDBRANCH   3  11
TORSDOF 4
ENDMDL
MODEL 8
REMARK VINA RESULT:      -6.9      0.954      1.147
REMARK  Name = 
REMARK  8 active torsions:
REMARK  status: ('A' for Active; 'I' for Inactive)
REMARK    1  A    between atoms: C_1  and  C_2
REMARK    2  A    between atoms: C_4  and  C_5
REMARK    3  A    between atoms: N_7  and  C_8
REMARK    4  A    between atoms: C_8  and  C_9
REMARK    5  A    between atoms: N_11  and  C_12
REMARK    6  A    between atoms: C_12  and  C_13
REMARK    7  A    between atoms: C_12  and  C_14
REMARK    8  A    between atoms: C_12  and  C_15
REMARK                            x       y       z     vdW  Elec       q    Type
REMARK                         _______ _______ _______ _____ _____    ______ ____
ROOT
ATOM      1  C   UNL     1       6.553   5.345  16.351  0.00  0.00    +0.000 C 
ATOM      2  O   UNL     1       6.644   6.528  16.667  0.00  0.00    +0.000 OA
ATOM      3  N   UNL     1       6.329   4.346  17.264  0.00  0.00    +0.000 N 
ATOM      4  H   UNL     1       6.267   3.387  16.925  0.00  0.00    +0.000 HD
ENDROOT
BRANCH   1   8
ATOM      5  C   UNL     1       6.108   3.015  11.846  0.00  0.00    +0.000 C 
ATOM      6  C   UNL     1       6.413   3.814  13.044  0.00  0.00    +0.000 A 
ATOM      7  C   UNL     1       5.909   3.874  14.319  0.00  0.00    +0.000 A 
ATOM      8  C   UNL     1       6.676   4.879  14.966  0.00  0.00    +0.000 A 
ATOM      9  N   UNL     1       7.588   5.392  14.120  0.00  0.00    +0.000 NA
ATOM     10  O   UNL     1       7.419   4.723  12.921  0.00  0.00    +0.000 OA
ENDBRANCH   1   8
BRANCH   3  11
ATOM     11  C   UNL     1       6.172   4.575  18.686  0.00  0.00    +0.000 C 
BRANCH  11  12
ATOM     12  C   UNL     1       4.936   3.814  19.166  0.00  0.00    +0.000 C 
ATOM     13  O   UNL     1       5.027   2.889  19.971  0.00  0.00    +0.000 OA
ATOM     14  N   UNL     1       3.738   4.242  18.627  0.00  0.00    +0.000 N 
ATOM     15  H   UNL     1       3.751   5.030  17.989  0.00  0.00    +0.000 HD
BRANCH  14  16
ATOM     16  C   UNL     1       2.432   3.639  18.955  0.00  0.00    +0.000 C 
ATOM     17  C   UNL     1       2.537   2.105  19.004  0.00  0.00    +0.000 C 
ATOM     18  C   UNL     1       1.984   4.135  20.342  0.00  0.00    +0.000 C 
ATOM     19  C   UNL     1       1.362   4.061  17.934  0.00  0.00    +0.000 C 
ENDBRANCH  14  16
ENDBRANCH  11  12
ENDBRANCH   3  11
TORSDOF 4
ENDMDL
MODEL 9
REMARK VINA RESULT:      -6.9      1.689      1.693
REMARK  Name = 
REMARK  8 active torsions:
REMARK  status: ('A' for Active; 'I' for Inactive)
REMARK    1  A    between atoms: C_1  and  C_2
REMARK    2  A    between atoms: C_4  and  C_5
REMARK    3  A    between atoms: N_7  and  C_8
REMARK    4  A    between atoms: C_8  and  C_9
REMARK    5  A    between atoms: N_11  and  C_12
REMARK    6  A    between atoms: C_12  and  C_13
REMARK    7  A    between atoms: C_12  and  C_14
REMARK    8  A    between atoms: C_12  and  C_15
REMARK                            x       y       z     vdW  Elec       q    Type
REMARK                         _______ _______ _______ _____ _____    ______ ____
ROOT
ATOM      1  C   UNL     1       5.553   5.163  17.087  0.00  0.00    +0.000 C 
ATOM      2  O   UNL     1       5.963   4.604  18.100  0.00  0.00    +0.000 OA
ATOM      3  N   UNL     1       4.456   5.987  17.085  0.00  0.00    +0.000 N 
ATOM      4  H   UNL     1       4.175   6.414  16.203  0.00  0.00    +0.000 HD
ENDROOT
BRANCH   1   8
ATOM      5  C   UNL     1       6.870   3.898  12.335  0.00  0.00    +0.000 C 
ATOM      6  C   UNL     1       6.687   4.400  13.707  0.00  0.00    +0.000 A 
ATOM      7  C   UNL     1       5.748   4.206  14.689  0.00  0.00    +0.000 A 
ATOM      8  C   UNL     1       6.191   5.005  15.777  0.00  0.00    +0.000 A 
ATOM      9  N   UNL     1       7.333   5.642  15.459  0.00  0.00    +0.000 NA
ATOM     10  O   UNL     1       7.638   5.259  14.165  0.00  0.00    +0.000 OA
ENDBRANCH   1   8
BRANCH   3  11
ATOM     11  C   UNL     1       3.674   6.290  18.265  0.00  0.00    +0.000 C 
BRANCH  11  12
ATOM     12  C   UNL     1       2.717   5.126  18.524  0.00  0.00    +0.000 C 
ATOM     13  O   UNL     1       1.763   4.904  17.782  0.00  0.00    +0.000 OA
ATOM     14  N   UNL     1       3.010   4.365  19.640  0.00  0.00    +0.000 N 
ATOM     15  H   UNL     1       3.832   4.601  20.183  0.00  0.00    +0.000 HD
BRANCH  14  16
ATOM     16  C   UNL     1       2.209   3.201  20.068  0.00  0.00    +0.000 C 
ATOM     17  C   UNL     1       2.687   2.685  21.436  0.00  0.00    +0.000 C 
ATOM     18  C   UNL     1       0.736   3.626  20.200  0.00  0.00    +0.000 C 
ATOM     19  C   UNL     1       2.284   2.073  19.025  0.00  0.00    +0.000 C 
ENDBRANCH  14  16
ENDBRANCH  11  12
ENDBRANCH   3  11
TORSDOF 4
ENDMDL
