MODEL 1
REMARK VINA RESULT:      -6.9      0.000      0.000
REMARK  Name = 
REMARK  11 active torsions:
REMARK  status: ('A' for Active; 'I' for Inactive)
REMARK    1  A    between atoms: C_1  and  O_2
REMARK    2  A    between atoms: O_2  and  C_3
REMARK    3  A    between atoms: C_6  and  C_7
REMARK    4  A    between atoms: C_7  and  N_8
REMARK    5  A    between atoms: N_8  and  C_9
REMARK    6  A    between atoms: C_11  and  C_12
REMARK    7  A    between atoms: C_15  and  C_16
REMARK    8  A    between atoms: C_17  and  O_18
REMARK    9  A    between atoms: O_18  and  C_19
REMARK   10  A    between atoms: C_20  and  O_21
REMARK   11  A    between atoms: O_21  and  C_22
REMARK                            x       y       z     vdW  Elec       q    Type
REMARK                         _______ _______ _______ _____ _____    ______ ____
ROOT
ATOM      1  C   UNL     1       6.655   4.915  15.174  0.00  0.00    +0.000 A 
ATOM      2  C   UNL     1       5.590   4.186  14.631  0.00  0.00    +0.000 A 
ATOM      3  C   UNL     1       4.670   3.556  15.461  0.00  0.00    +0.000 A 
ATOM      4  C   UNL     1       4.823   3.589  16.853  0.00  0.00    +0.000 A 
ATOM      5  C   UNL     1       5.933   4.265  17.414  0.00  0.00    +0.000 A 
ATOM      6  C   UNL     1       6.860   4.935  16.571  0.00  0.00    +0.000 A 
ENDROOT
BRANCH   1   8
ATOM      7  C   UNL     1       7.793   5.004  13.093  0.00  0.00    +0.000 C 
ATOM      8  O   UNL     1       7.518   5.600  14.358  0.00  0.00    +0.000 OA
ENDBRANCH   1   8
BRANCH   5   9
ATOM      9  O   UNL     1       5.969   4.190  18.787  0.00  0.00    +0.000 OA
ATOM     10  C   UNL     1       5.558   5.300  19.571  0.00  0.00    +0.000 C 
ENDBRANCH   5   9
BRANCH   6  11
ATOM     11  O   UNL     1       7.856   5.647  17.194  0.00  0.00    +0.000 OA
ATOM     12  C   UNL     1       7.671   7.032  17.454  0.00  0.00    +0.000 C 
ENDBRANCH   6  11
BRANCH   4  13
ATOM     13  C   UNL     1       3.792   2.876  17.707  0.00  0.00    +0.000 C 
BRANCH  13  14
ATOM     14  N   UNL     1       2.494   3.549  17.631  0.00  0.00    +0.000 N 
ATOM     15  H   UNL     1       2.203   3.686  16.664  0.00  0.00    +0.000 HD
BRANCH  14  16
ATOM     16  C   UNL     1       2.275   4.715  18.391  0.00  0.00    +0.000 A 
ATOM     17  C   UNL     1       2.461   6.004  17.859  0.00  0.00    +0.000 A 
ATOM     18  C   UNL     1       2.290   7.167  18.626  0.00  0.00    +0.000 A 
ATOM     19  C   UNL     1       2.506   8.524  18.025  0.00  0.00    +0.000 C 
ATOM     20  C   UNL     1       1.936   7.049  19.967  0.00  0.00    +0.000 A 
ATOM     21  C   UNL     1       1.788   5.786  20.536  0.00  0.00    +0.000 A 
ATOM     22  C   UNL     1       1.980   4.617  19.772  0.00  0.00    +0.000 A 
ATOM     23  C   UNL     1       1.871   3.290  20.472  0.00  0.00    +0.000 C 
ENDBRANCH  14  16
ENDBRANCH  13  14
ENDBRANCH   4  13
TORSDOF 6
ENDMDL
MODEL 2
REMARK VINA RESULT:      -6.8      0.967      1.014
REMARK  Name = 
REMARK  11 active torsions:
REMARK  status: ('A' for Active; 'I' for Inactive)
REMARK    1  A    between atoms: C_1  and  O_2
REMARK    2  A    between atoms: O_2  and  C_3
REMARK    3  A    between atoms: C_6  and  C_7
REMARK    4  A    between atoms: C_7  and  N_8
REMARK    5  A    between atoms: N_8  and  C_9
REMARK    6  A    between atoms: C_11  and  C_12
REMARK    7  A    between atoms: C_15  and  C_16
REMARK    8  A    between atoms: C_17  and  O_18
REMARK    9  A    between atoms: O_18  and  C_19
REMARK   10  A    between atoms: C_20  and  O_21
REMARK   11  A    between atoms: O_21  and  C_22
REMARK                            x       y       z     vdW  Elec       q    Type
REMARK                         _______ _______ _______ _____ _____    ______ ____
ROOT
ATOM      1  C   UNL     1       6.798   5.137  15.308  0.00  0.00    +0.000 A 
ATOM      2  C   UNL     1       5.893   4.078  15.161  0.00  0.00    +0.000 A 
ATOM      3  C   UNL     1       5.115   3.661  16.236  0.00  0.00    +0.000 A 
ATOM      4  C   UNL     1       5.264   4.251  17.497  0.00  0.00    +0.000 A 
ATOM      5  C   UNL     1       6.223   5.277  17.677  0.00  0.00    +0.000 A 
ATOM      6  C   UNL     1       7.000   5.726  16.575  0.00  0.00    +0.000 A 
ENDROOT
BRANCH   1   8
ATOM      7  C   UNL     1       7.363   4.863  13.019  0.00  0.00    +0.000 C 
ATOM      8  O   UNL     1       7.509   5.599  14.230  0.00  0.00    +0.000 OA
ENDBRANCH   1   8
BRANCH   5   9
ATOM      9  O   UNL     1       6.277   5.740  18.971  0.00  0.00    +0.000 OA
ATOM     10  C   UNL     1       7.398   5.437  19.788  0.00  0.00    +0.000 C 
ENDBRANCH   5   9
BRANCH   6  11
ATOM     11  O   UNL     1       7.841   6.787  16.807  0.00  0.00    +0.000 OA
ATOM     12  C   UNL     1       7.329   7.970  17.404  0.00  0.00    +0.000 C 
ENDBRANCH   6  11
BRANCH   4  13
ATOM     13  C   UNL     1       4.393   3.748  18.633  0.00  0.00    +0.000 C 
BRANCH  13  14
ATOM     14  N   UNL     1       2.995   4.133  18.432  0.00  0.00    +0.000 N 
ATOM     15  H   UNL     1       2.706   3.989  17.466  0.00  0.00    +0.000 HD
BRANCH  14  16
ATOM     16  C   UNL     1       2.548   5.382  18.907  0.00  0.00    +0.000 A 
ATOM     17  C   UNL     1       2.615   6.551  18.128  0.00  0.00    +0.000 A 
ATOM     18  C   UNL     1       2.214   7.805  18.616  0.00  0.00    +0.000 A 
ATOM     19  C   UNL     1       2.310   9.030  17.756  0.00  0.00    +0.000 C 
ATOM     20  C   UNL     1       1.744   7.906  19.922  0.00  0.00    +0.000 A 
ATOM     21  C   UNL     1       1.706   6.776  20.734  0.00  0.00    +0.000 A 
ATOM     22  C   UNL     1       2.128   5.520  20.253  0.00  0.00    +0.000 A 
ATOM     23  C   UNL     1       2.124   4.359  21.210  0.00  0.00    +0.000 C 
ENDBRANCH  14  16
ENDBRANCH  13  14
ENDBRANCH   4  13
TORSDOF 6
ENDMDL
MODEL 3
REMARK VINA RESULT:      -6.6      4.615      7.681
REMARK  Name = 
REMARK  11 active torsions:
REMARK  status: ('A' for Active; 'I' for Inactive)
REMARK    1  A    between atoms: C_1  and  O_2
REMARK    2  A    between atoms: O_2  and  C_3
REMARK    3  A    between atoms: C_6  and  C_7
REMARK    4  A    between atoms: C_7  and  N_8
REMARK    5  A    between atoms: N_8  and  C_9
REMARK    6  A    between atoms: C_11  and  C_12
REMARK    7  A    between atoms: C_15  and  C_16
REMARK    8  A    between atoms: C_17  and  O_18
REMARK    9  A    between atoms: O_18  and  C_19
REMARK   10  A    between atoms: C_20  and  O_21
REMARK   11  A    between atoms: O_21  and  C_22
REMARK                            x       y       z     vdW  Elec       q    Type
REMARK                         _______ _______ _______ _____ _____    ______ ____
ROOT
ATOM      1  C   UNL     1       0.878  11.611  19.402  0.00  0.00    +0.000 A 
ATOM      2  C   UNL     1       1.115  10.528  18.546  0.00  0.00    +0.000 A 
ATOM      3  C   UNL     1       1.229   9.239  19.055  0.00  0.00    +0.000 A 
ATOM      4  C   UNL     1       1.166   9.007  20.434  0.00  0.00    +0.000 A 
ATOM      5  C   UNL     1       0.994  10.101  21.316  0.00  0.00    +0.000 A 
ATOM      6  C   UNL     1       0.849  11.416  20.800  0.00  0.00    +0.000 A 
ENDROOT
BRANCH   1   8
ATOM      7  C   UNL     1      -0.563  13.111  18.258  0.00  0.00    +0.000 C 
ATOM      8  O   UNL     1       0.690  12.871  18.894  0.00  0.00    +0.000 OA
ENDBRANCH   1   8
BRANCH   5   9
ATOM      9  O   UNL     1       0.980   9.725  22.640  0.00  0.00    +0.000 OA
ATOM     10  C   UNL     1      -0.256   9.572  23.322  0.00  0.00    +0.000 C 
ENDBRANCH   5   9
BRANCH   6  11
ATOM     11  O   UNL     1       0.591  12.411  21.711  0.00  0.00    +0.000 OA
ATOM     12  C   UNL     1      -0.752  12.790  21.975  0.00  0.00    +0.000 C 
ENDBRANCH   6  11
BRANCH   4  13
ATOM     13  C   UNL     1       1.304   7.579  20.930  0.00  0.00    +0.000 C 
BRANCH  13  14
ATOM     14  N   UNL     1       2.491   6.939  20.359  0.00  0.00    +0.000 N 
ATOM     15  H   UNL     1       3.126   7.627  19.956  0.00  0.00    +0.000 HD
BRANCH  14  16
ATOM     16  C   UNL     1       2.333   5.837  19.495  0.00  0.00    +0.000 A 
ATOM     17  C   UNL     1       1.599   4.695  19.861  0.00  0.00    +0.000 A 
ATOM     18  C   UNL     1       1.480   3.575  19.023  0.00  0.00    +0.000 A 
ATOM     19  C   UNL     1       0.695   2.372  19.453  0.00  0.00    +0.000 C 
ATOM     20  C   UNL     1       2.118   3.584  17.786  0.00  0.00    +0.000 A 
ATOM     21  C   UNL     1       2.889   4.681  17.412  0.00  0.00    +0.000 A 
ATOM     22  C   UNL     1       3.028   5.797  18.262  0.00  0.00    +0.000 A 
ATOM     23  C   UNL     1       3.933   6.914  17.819  0.00  0.00    +0.000 C 
ENDBRANCH  14  16
ENDBRANCH  13  14
ENDBRANCH   4  13
TORSDOF 6
ENDMDL
MODEL 4
REMARK VINA RESULT:      -6.6      2.972      5.089
REMARK  Name = 
REMARK  11 active torsions:
REMARK  status: ('A' for Active; 'I' for Inactive)
REMARK    1  A    between atoms: C_1  and  O_2
REMARK    2  A    between atoms: O_2  and  C_3
REMARK    3  A    between atoms: C_6  and  C_7
REMARK    4  A    between atoms: C_7  and  N_8
REMARK    5  A    between atoms: N_8  and  C_9
REMARK    6  A    between atoms: C_11  and  C_12
REMARK    7  A    between atoms: C_15  and  C_16
REMARK    8  A    between atoms: C_17  and  O_18
REMARK    9  A    between atoms: O_18  and  C_19
REMARK   10  A    between atoms: C_20  and  O_21
REMARK   11  A    between atoms: O_21  and  C_22
REMARK                            x       y       z     vdW  Elec       q    Type
REMARK                         _______ _______ _______ _____ _____    ______ ____
ROOT
ATOM      1  C   UNL     1       3.827   3.915  17.952  0.00  0.00    +0.000 A 
ATOM      2  C   UNL     1       3.449   5.214  17.592  0.00  0.00    +0.000 A 
ATOM      3  C   UNL     1       2.745   6.017  18.483  0.00  0.00    +0.000 A 
ATOM      4  C   UNL     1       2.351   5.521  19.733  0.00  0.00    +0.000 A 
ATOM      5  C   UNL     1       2.668   4.187  20.083  0.00  0.00    +0.000 A 
ATOM      6  C   UNL     1       3.412   3.373  19.188  0.00  0.00    +0.000 A 
ENDROOT
BRANCH   1   8
ATOM      7  C   UNL     1       5.246   3.848  16.050  0.00  0.00    +0.000 C 
ATOM      8  O   UNL     1       4.587   3.151  17.104  0.00  0.00    +0.000 OA
ENDBRANCH   1   8
BRANCH   5   9
ATOM      9  O   UNL     1       2.193   3.831  21.325  0.00  0.00    +0.000 OA
ATOM     10  C   UNL     1       1.226   2.799  21.447  0.00  0.00    +0.000 C 
ENDBRANCH   5   9
BRANCH   6  11
ATOM     11  O   UNL     1       3.761   2.123  19.637  0.00  0.00    +0.000 OA
ATOM     12  C   UNL     1       4.924   1.964  20.437  0.00  0.00    +0.000 C 
ENDBRANCH   6  11
BRANCH   4  13
ATOM     13  C   UNL     1       1.578   6.442  20.659  0.00  0.00    +0.000 C 
BRANCH  13  14
ATOM     14  N   UNL     1       2.112   7.804  20.608  0.00  0.00    +0.000 N 
ATOM     15  H   UNL     1       2.880   7.926  21.266  0.00  0.00    +0.000 HD
BRANCH  14  16
ATOM     16  C   UNL     1       1.223   8.896  20.667  0.00  0.00    +0.000 A 
ATOM     17  C   UNL     1       0.540   9.247  21.845  0.00  0.00    +0.000 A 
ATOM     18  C   UNL     1      -0.381  10.305  21.896  0.00  0.00    +0.000 A 
ATOM     19  C   UNL     1      -1.096  10.642  23.170  0.00  0.00    +0.000 C 
ATOM     20  C   UNL     1      -0.644  11.031  20.738  0.00  0.00    +0.000 A 
ATOM     21  C   UNL     1      -0.018  10.681  19.544  0.00  0.00    +0.000 A 
ATOM     22  C   UNL     1       0.891   9.605  19.487  0.00  0.00    +0.000 A 
ATOM     23  C   UNL     1       1.474   9.243  18.148  0.00  0.00    +0.000 C 
ENDBRANCH  14  16
ENDBRANCH  13  14
ENDBRANCH   4  13
TORSDOF 6
ENDMDL
MODEL 5
REMARK VINA RESULT:      -6.4      0.736      2.238
REMARK  Name = 
REMARK  11 active torsions:
REMARK  status: ('A' for Active; 'I' for Inactive)
REMARK    1  A    between atoms: C_1  and  O_2
REMARK    2  A    between atoms: O_2  and  C_3
REMARK    3  A    between atoms: C_6  and  C_7
REMARK    4  A    between atoms: C_7  and  N_8
REMARK    5  A    between atoms: N_8  and  C_9
REMARK    6  A    between atoms: C_11  and  C_12
REMARK    7  A    between atoms: C_15  and  C_16
REMARK    8  A    between atoms: C_17  and  O_18
REMARK    9  A    between atoms: O_18  and  C_19
REMARK   10  A    between atoms: C_20  and  O_21
REMARK   11  A    between atoms: O_21  and  C_22
REMARK                            x       y       z     vdW  Elec       q    Type
REMARK                         _______ _______ _______ _____ _____    ______ ____
ROOT
ATOM      1  C   UNL     1       7.069   4.996  15.047  0.00  0.00    +0.000 A 
ATOM      2  C   UNL     1       6.120   4.257  14.331  0.00  0.00    +0.000 A 
ATOM      3  C   UNL     1       5.098   3.588  14.996  0.00  0.00    +0.000 A 
ATOM      4  C   UNL     1       5.034   3.594  16.395  0.00  0.00    +0.000 A 
ATOM      5  C   UNL     1       6.026   4.281  17.135  0.00  0.00    +0.000 A 
ATOM      6  C   UNL     1       7.055   4.989  16.459  0.00  0.00    +0.000 A 
ENDROOT
BRANCH   1   8
ATOM      7  C   UNL     1       8.129   5.498  12.983  0.00  0.00    +0.000 C 
ATOM      8  O   UNL     1       8.032   5.718  14.387  0.00  0.00    +0.000 OA
ENDBRANCH   1   8
BRANCH   5   9
ATOM      9  O   UNL     1       5.850   4.175  18.495  0.00  0.00    +0.000 OA
ATOM     10  C   UNL     1       5.696   5.345  19.285  0.00  0.00    +0.000 C 
ENDBRANCH   5   9
BRANCH   6  11
ATOM     11  O   UNL     1       7.925   5.708  17.242  0.00  0.00    +0.000 OA
ATOM     12  C   UNL     1       7.695   7.094  17.456  0.00  0.00    +0.000 C 
ENDBRANCH   6  11
BRANCH   4  13
ATOM     13  C   UNL     1       3.900   2.840  17.065  0.00  0.00    +0.000 C 
BRANCH  13  14
ATOM     14  N   UNL     1       2.745   3.713  17.281  0.00  0.00    +0.000 N 
ATOM     15  H   UNL     1       2.761   4.512  16.649  0.00  0.00    +0.000 HD
BRANCH  14  16
ATOM     16  C   UNL     1       2.420   4.117  18.591  0.00  0.00    +0.000 A 
ATOM     17  C   UNL     1       2.088   3.196  19.601  0.00  0.00    +0.000 A 
ATOM     18  C   UNL     1       1.718   3.596  20.894  0.00  0.00    +0.000 A 
ATOM     19  C   UNL     1       1.363   2.583  21.941  0.00  0.00    +0.000 C 
ATOM     20  C   UNL     1       1.662   4.955  21.193  0.00  0.00    +0.000 A 
ATOM     21  C   UNL     1       1.941   5.894  20.203  0.00  0.00    +0.000 A 
ATOM     22  C   UNL     1       2.292   5.493  18.898  0.00  0.00    +0.000 A 
ATOM     23  C   UNL     1       2.511   6.565  17.865  0.00  0.00    +0.000 C 
ENDBRANCH  14  16
ENDBRANCH  13  14
ENDBRANCH   4  13
TORSDOF 6
ENDMDL
MODEL 6
REMARK VINA RESULT:      -6.4      2.678      6.611
REMARK  Name = 
REMARK  11 active torsions:
REMARK  status: ('A' for Active; 'I' for Inactive)
REMARK    1  A    between atoms: C_1  and  O_2
REMARK    2  A    between atoms: O_2  and  C_3
REMARK    3  A    between atoms: C_6  and  C_7
REMARK    4  A    between atoms: C_7  and  N_8
REMARK    5  A    between atoms: N_8  and  C_9
REMARK    6  A    between atoms: C_11  and  C_12
REMARK    7  A    between atoms: C_15  and  C_16
REMARK    8  A    between atoms: C_17  and  O_18
REMARK    9  A    between atoms: O_18  and  C_19
REMARK   10  A    between atoms: C_20  and  O_21
REMARK   11  A    between atoms: O_21  and  C_22
REMARK                            x       y       z     vdW  Elec       q    Type
REMARK                         _______ _______ _______ _____ _____    ______ ____
ROOT
ATOM      1  C   UNL     1       2.059   5.866  20.020  0.00  0.00    +0.000 A 
ATOM      2  C   UNL     1       2.890   6.514  19.099  0.00  0.00    +0.000 A 
ATOM      3  C   UNL     1       3.391   5.830  17.997  0.00  0.00    +0.000 A 
ATOM      4  C   UNL     1       3.121   4.467  17.819  0.00  0.00    +0.000 A 
ATOM      5  C   UNL     1       2.338   3.782  18.779  0.00  0.00    +0.000 A 
ATOM      6  C   UNL     1       1.800   4.483  19.891  0.00  0.00    +0.000 A 
ENDROOT
BRANCH   1   8
ATOM      7  C   UNL     1       1.370   7.967  20.884  0.00  0.00    +0.000 C 
ATOM      8  O   UNL     1       1.503   6.559  21.065  0.00  0.00    +0.000 OA
ENDBRANCH   1   8
BRANCH   5   9
ATOM      9  O   UNL     1       2.181   2.446  18.489  0.00  0.00    +0.000 OA
ATOM     10  C   UNL     1       3.217   1.526  18.796  0.00  0.00    +0.000 C 
ENDBRANCH   5   9
BRANCH   6  11
ATOM     11  O   UNL     1       0.974   3.773  20.727  0.00  0.00    +0.000 OA
ATOM     12  C   UNL     1       1.538   2.954  21.741  0.00  0.00    +0.000 C 
ENDBRANCH   6  11
BRANCH   4  13
ATOM     13  C   UNL     1       3.701   3.773  16.601  0.00  0.00    +0.000 C 
BRANCH  13  14
ATOM     14  N   UNL     1       5.165   3.799  16.631  0.00  0.00    +0.000 N 
ATOM     15  H   UNL     1       5.510   4.311  17.441  0.00  0.00    +0.000 HD
BRANCH  14  16
ATOM     16  C   UNL     1       5.873   4.165  15.469  0.00  0.00    +0.000 A 
ATOM     17  C   UNL     1       5.720   3.481  14.249  0.00  0.00    +0.000 A 
ATOM     18  C   UNL     1       6.458   3.812  13.102  0.00  0.00    +0.000 A 
ATOM     19  C   UNL     1       6.273   3.053  11.823  0.00  0.00    +0.000 C 
ATOM     20  C   UNL     1       7.387   4.847  13.169  0.00  0.00    +0.000 A 
ATOM     21  C   UNL     1       7.595   5.515  14.373  0.00  0.00    +0.000 A 
ATOM     22  C   UNL     1       6.869   5.169  15.532  0.00  0.00    +0.000 A 
ATOM     23  C   UNL     1       7.198   5.888  16.812  0.00  0.00    +0.000 C 
ENDBRANCH  14  16
ENDBRANCH  13  14
ENDBRANCH   4  13
TORSDOF 6
ENDMDL
MODEL 7
REMARK VINA RESULT:      -6.4      1.710      2.785
REMARK  Name = 
REMARK  11 active torsions:
REMARK  status: ('A' for Active; 'I' for Inactive)
REMARK    1  A    between atoms: C_1  and  O_2
REMARK    2  A    between atoms: O_2  and  C_3
REMARK    3  A    between atoms: C_6  and  C_7
REMARK    4  A    between atoms: C_7  and  N_8
REMARK    5  A    between atoms: N_8  and  C_9
REMARK    6  A    between atoms: C_11  and  C_12
REMARK    7  A    between atoms: C_15  and  C_16
REMARK    8  A    between atoms: C_17  and  O_18
REMARK    9  A    between atoms: O_18  and  C_19
REMARK   10  A    between atoms: C_20  and  O_21
REMARK   11  A    between atoms: O_21  and  C_22
REMARK                            x       y       z     vdW  Elec       q    Type
REMARK                         _______ _______ _______ _____ _____    ______ ____
ROOT
ATOM      1  C   UNL     1       6.294   4.018  14.312  0.00  0.00    +0.000 A 
ATOM      2  C   UNL     1       5.346   3.327  15.077  0.00  0.00    +0.000 A 
ATOM      3  C   UNL     1       5.202   3.595  16.434  0.00  0.00    +0.000 A 
ATOM      4  C   UNL     1       6.041   4.519  17.072  0.00  0.00    +0.000 A 
ATOM      5  C   UNL     1       7.048   5.175  16.325  0.00  0.00    +0.000 A 
ATOM      6  C   UNL     1       7.180   4.926  14.933  0.00  0.00    +0.000 A 
ENDROOT
BRANCH   1   8
ATOM      7  C   UNL     1       5.174   3.446  12.298  0.00  0.00    +0.000 C 
ATOM      8  O   UNL     1       6.383   3.808  12.959  0.00  0.00    +0.000 OA
ENDBRANCH   1   8
BRANCH   5   9
ATOM      9  O   UNL     1       7.810   6.029  17.088  0.00  0.00    +0.000 OA
ATOM     10  C   UNL     1       7.430   7.390  17.227  0.00  0.00    +0.000 C 
ENDBRANCH   5   9
BRANCH   6  11
ATOM     11  O   UNL     1       8.117   5.670  14.259  0.00  0.00    +0.000 OA
ATOM     12  C   UNL     1       8.269   5.504  12.856  0.00  0.00    +0.000 C 
ENDBRANCH   6  11
BRANCH   4  13
ATOM     13  C   UNL     1       5.841   4.764  18.556  0.00  0.00    +0.000 C 
BRANCH  13  14
ATOM     14  N   UNL     1       5.132   3.645  19.181  0.00  0.00    +0.000 N 
ATOM     15  H   UNL     1       5.335   2.767  18.707  0.00  0.00    +0.000 HD
BRANCH  14  16
ATOM     16  C   UNL     1       3.754   3.764  19.449  0.00  0.00    +0.000 A 
ATOM     17  C   UNL     1       3.198   4.918  20.030  0.00  0.00    +0.000 A 
ATOM     18  C   UNL     1       1.833   5.021  20.341  0.00  0.00    +0.000 A 
ATOM     19  C   UNL     1       1.280   6.266  20.969  0.00  0.00    +0.000 C 
ATOM     20  C   UNL     1       0.994   3.942  20.081  0.00  0.00    +0.000 A 
ATOM     21  C   UNL     1       1.521   2.768  19.547  0.00  0.00    +0.000 A 
ATOM     22  C   UNL     1       2.895   2.655  19.253  0.00  0.00    +0.000 A 
ATOM     23  C   UNL     1       3.402   1.333  18.744  0.00  0.00    +0.000 C 
ENDBRANCH  14  16
ENDBRANCH  13  14
ENDBRANCH   4  13
TORSDOF 6
ENDMDL
MODEL 8
REMARK VINA RESULT:      -6.4      1.146      1.370
REMARK  Name = 
REMARK  11 active torsions:
REMARK  status: ('A' for Active; 'I' for Inactive)
REMARK    1  A    between atoms: C_1  and  O_2
REMARK    2  A    between atoms: O_2  and  C_3
REMARK    3  A    between atoms: C_6  and  C_7
REMARK    4  A    between atoms: C_7  and  N_8
REMARK    5  A    between atoms: N_8  and  C_9
REMARK    6  A    between atoms: C_11  and  C_12
REMARK    7  A    between atoms: C_15  and  C_16
REMARK    8  A    between atoms: C_17  and  O_18
REMARK    9  A    between atoms: O_18  and  C_19
REMARK   10  A    between atoms: C_20  and  O_21
REMARK   11  A    between atoms: O_21  and  C_22
REMARK                            x       y       z     vdW  Elec       q    Type
REMARK                         _______ _______ _______ _____ _____    ______ ____
ROOT
ATOM      1  C   UNL     1       6.312   4.422  16.421  0.00  0.00    +0.000 A 
ATOM      2  C   UNL     1       5.230   4.043  15.617  0.00  0.00    +0.000 A 
ATOM      3  C   UNL     1       4.078   3.514  16.188  0.00  0.00    +0.000 A 
ATOM      4  C   UNL     1       4.000   3.298  17.569  0.00  0.00    +0.000 A 
ATOM      5  C   UNL     1       5.111   3.614  18.387  0.00  0.00    +0.000 A 
ATOM      6  C   UNL     1       6.280   4.181  17.812  0.00  0.00    +0.000 A 
ENDROOT
BRANCH   1   8
ATOM      7  C   UNL     1       7.443   5.089  14.443  0.00  0.00    +0.000 C 
ATOM      8  O   UNL     1       7.418   5.014  15.866  0.00  0.00    +0.000 OA
ENDBRANCH   1   8
BRANCH   5   9
ATOM      9  O   UNL     1       4.900   3.322  19.715  0.00  0.00    +0.000 OA
ATOM     10  C   UNL     1       4.876   1.971  20.150  0.00  0.00    +0.000 C 
ENDBRANCH   5   9
BRANCH   6  11
ATOM     11  O   UNL     1       7.278   4.548  18.681  0.00  0.00    +0.000 OA
ATOM     12  C   UNL     1       7.353   5.891  19.137  0.00  0.00    +0.000 C 
ENDBRANCH   6  11
BRANCH   4  13
ATOM     13  C   UNL     1       2.719   2.711  18.133  0.00  0.00    +0.000 C 
BRANCH  13  14
ATOM     14  N   UNL     1       1.620   3.674  18.048  0.00  0.00    +0.000 N 
ATOM     15  H   UNL     1       1.305   3.794  17.086  0.00  0.00    +0.000 HD
BRANCH  14  16
ATOM     16  C   UNL     1       1.741   4.920  18.694  0.00  0.00    +0.000 A 
ATOM     17  C   UNL     1       2.065   6.099  17.999  0.00  0.00    +0.000 A 
ATOM     18  C   UNL     1       2.234   7.333  18.647  0.00  0.00    +0.000 A 
ATOM     19  C   UNL     1       2.588   8.566  17.871  0.00  0.00    +0.000 C 
ATOM     20  C   UNL     1       2.089   7.398  20.029  0.00  0.00    +0.000 A 
ATOM     21  C   UNL     1       1.813   6.241  20.753  0.00  0.00    +0.000 A 
ATOM     22  C   UNL     1       1.664   4.997  20.106  0.00  0.00    +0.000 A 
ATOM     23  C   UNL     1       1.435   3.780  20.960  0.00  0.00    +0.000 C 
ENDBRANCH  14  16
ENDBRANCH  13  14
ENDBRANCH   4  13
TORSDOF 6
ENDMDL
MODEL 9
REMARK VINA RESULT:      -6.3      4.515      7.977
REMARK  Name = 
REMARK  11 active torsions:
REMARK  status: ('A' for Active; 'I' for Inactive)
REMARK    1  A    between atoms: C_1  and  O_2
REMARK    2  A    between atoms: O_2  and  C_3
REMARK    3  A    between atoms: C_6  and  C_7
REMARK    4  A    between atoms: C_7  and  N_8
REMARK    5  A    between atoms: N_8  and  C_9
REMARK    6  A    between atoms: C_11  and  C_12
REMARK    7  A    between atoms: C_15  and  C_16
REMARK    8  A    between atoms: C_17  and  O_18
REMARK    9  A    between atoms: O_18  and  C_19
REMARK   10  A    between atoms: C_20  and  O_21
REMARK   11  A    between atoms: O_21  and  C_22
REMARK                            x       y       z     vdW  Elec       q    Type
REMARK                         _______ _______ _______ _____ _____    ______ ____
ROOT
ATOM      1  C   UNL     1       0.263  10.329  22.004  0.00  0.00    +0.000 A 
ATOM      2  C   UNL     1       0.605   8.980  22.154  0.00  0.00    +0.000 A 
ATOM      3  C   UNL     1       1.172   8.274  21.098  0.00  0.00    +0.000 A 
ATOM      4  C   UNL     1       1.359   8.883  19.851  0.00  0.00    +0.000 A 
ATOM      5  C   UNL     1       0.956  10.227  19.665  0.00  0.00    +0.000 A 
ATOM      6  C   UNL     1       0.403  10.961  20.748  0.00  0.00    +0.000 A 
ENDROOT
BRANCH   1   8
ATOM      7  C   UNL     1      -1.640  11.204  23.122  0.00  0.00    +0.000 C 
ATOM      8  O   UNL     1      -0.225  11.047  23.067  0.00  0.00    +0.000 OA
ENDBRANCH   1   8
BRANCH   5   9
ATOM      9  O   UNL     1       1.173  10.680  18.385  0.00  0.00    +0.000 OA
ATOM     10  C   UNL     1       2.297  11.501  18.103  0.00  0.00    +0.000 C 
ENDBRANCH   5   9
BRANCH   6  11
ATOM     11  O   UNL     1       0.124  12.286  20.517  0.00  0.00    +0.000 OA
ATOM     12  C   UNL     1       1.043  13.281  20.945  0.00  0.00    +0.000 C 
ENDBRANCH   6  11
BRANCH   4  13
ATOM     13  C   UNL     1       1.975   8.059  18.735  0.00  0.00    +0.000 C 
BRANCH  13  14
ATOM     14  N   UNL     1       2.748   6.940  19.276  0.00  0.00    +0.000 N 
ATOM     15  H   UNL     1       3.712   7.211  19.464  0.00  0.00    +0.000 HD
BRANCH  14  16
ATOM     16  C   UNL     1       2.697   5.689  18.630  0.00  0.00    +0.000 A 
ATOM     17  C   UNL     1       1.781   4.688  19.001  0.00  0.00    +0.000 A 
ATOM     18  C   UNL     1       1.759   3.424  18.391  0.00  0.00    +0.000 A 
ATOM     19  C   UNL     1       0.772   2.380  18.821  0.00  0.00    +0.000 C 
ATOM     20  C   UNL     1       2.683   3.138  17.390  0.00  0.00    +0.000 A 
ATOM     21  C   UNL     1       3.632   4.091  17.030  0.00  0.00    +0.000 A 
ATOM     22  C   UNL     1       3.669   5.353  17.656  0.00  0.00    +0.000 A 
ATOM     23  C   UNL     1       4.767   6.305  17.264  0.00  0.00    +0.000 C 
ENDBRANCH  14  16
ENDBRANCH  13  14
ENDBRANCH   4  13
TORSDOF 6
ENDMDL
