MODEL 1
REMARK VINA RESULT:      -8.1      0.000      0.000
REMARK  Name = 
REMARK  1 active torsions:
REMARK  status: ('A' for Active; 'I' for Inactive)
REMARK    1  A    between atoms: C_2  and  C_4
REMARK                            x       y       z     vdW  Elec       q    Type
REMARK                         _______ _______ _______ _____ _____    ______ ____
ROOT
ATOM      1  C   UNL     1       6.929   5.190  18.154  0.00  0.00    +0.000 A 
ATOM      2  N   UNL     1       7.499   4.952  16.938  0.00  0.00    +0.000 NA
ATOM      3  C   UNL     1       6.748   4.355  15.985  0.00  0.00    +0.000 A 
ATOM      4  C   UNL     1       5.423   3.966  16.140  0.00  0.00    +0.000 A 
ATOM      5  C   UNL     1       4.827   4.224  17.384  0.00  0.00    +0.000 A 
ATOM      6  C   UNL     1       5.599   4.836  18.367  0.00  0.00    +0.000 A 
ATOM      7  N   UNL     1       4.804   4.993  19.478  0.00  0.00    +0.000 N 
ATOM      8  C   UNL     1       3.543   4.498  19.248  0.00  0.00    +0.000 A 
ATOM      9  C   UNL     1       2.425   4.452  20.090  0.00  0.00    +0.000 A 
ATOM     10  C   UNL     1       1.254   3.881  19.584  0.00  0.00    +0.000 A 
ATOM     11  C   UNL     1       1.208   3.373  18.288  0.00  0.00    +0.000 A 
ATOM     12  C   UNL     1       2.335   3.426  17.459  0.00  0.00    +0.000 A 
ATOM     13  C   UNL     1       3.528   4.002  17.944  0.00  0.00    +0.000 A 
ATOM     14  H   UNL     1       5.122   5.424  20.338  0.00  0.00    +0.000 HD
ENDROOT
BRANCH   1  16
ATOM     15  N   UNL     1       8.359   7.006  18.883  0.00  0.00    +0.000 N 
ATOM     16  C   UNL     1       7.748   5.831  19.217  0.00  0.00    +0.000 C 
ATOM     17  O   UNL     1       7.854   5.344  20.338  0.00  0.00    +0.000 OA
ATOM     18  H   UNL     1       8.881   7.507  19.588  0.00  0.00    +0.000 HD
ATOM     19  H   UNL     1       8.161   7.439  17.988  0.00  0.00    +0.000 HD
ENDBRANCH   1  16
TORSDOF 1
ENDMDL
MODEL 2
REMARK VINA RESULT:      -7.8      2.085      4.790
REMARK  Name = 
REMARK  1 active torsions:
REMARK  status: ('A' for Active; 'I' for Inactive)
REMARK    1  A    between atoms: C_2  and  C_4
REMARK                            x       y       z     vdW  Elec       q    Type
REMARK                         _______ _______ _______ _____ _____    ______ ____
ROOT
ATOM      1  C   UNL     1       6.576   5.244  17.991  0.00  0.00    +0.000 A 
ATOM      2  N   UNL     1       5.576   4.700  18.742  0.00  0.00    +0.000 NA
ATOM      3  C   UNL     1       4.646   3.943  18.118  0.00  0.00    +0.000 A 
ATOM      4  C   UNL     1       4.627   3.662  16.757  0.00  0.00    +0.000 A 
ATOM      5  C   UNL     1       5.663   4.207  15.982  0.00  0.00    +0.000 A 
ATOM      6  C   UNL     1       6.620   4.988  16.623  0.00  0.00    +0.000 A 
ATOM      7  N   UNL     1       7.526   5.394  15.671  0.00  0.00    +0.000 N 
ATOM      8  C   UNL     1       7.183   4.905  14.433  0.00  0.00    +0.000 A 
ATOM      9  C   UNL     1       7.817   5.065  13.195  0.00  0.00    +0.000 A 
ATOM     10  C   UNL     1       7.236   4.445  12.085  0.00  0.00    +0.000 A 
ATOM     11  C   UNL     1       6.066   3.699  12.211  0.00  0.00    +0.000 A 
ATOM     12  C   UNL     1       5.445   3.549  13.457  0.00  0.00    +0.000 A 
ATOM     13  C   UNL     1       6.014   4.161  14.595  0.00  0.00    +0.000 A 
ATOM     14  H   UNL     1       8.334   5.971  15.876  0.00  0.00    +0.000 HD
ENDROOT
BRANCH   1  16
ATOM     15  N   UNL     1       8.155   5.581  19.798  0.00  0.00    +0.000 N 
ATOM     16  C   UNL     1       7.596   6.092  18.662  0.00  0.00    +0.000 C 
ATOM     17  O   UNL     1       7.934   7.183  18.211  0.00  0.00    +0.000 OA
ATOM     18  H   UNL     1       8.892   6.096  20.259  0.00  0.00    +0.000 HD
ATOM     19  H   UNL     1       7.938   4.632  20.082  0.00  0.00    +0.000 HD
ENDBRANCH   1  16
TORSDOF 1
ENDMDL
MODEL 3
REMARK VINA RESULT:      -7.8      1.167      1.167
REMARK  Name = 
REMARK  1 active torsions:
REMARK  status: ('A' for Active; 'I' for Inactive)
REMARK    1  A    between atoms: C_2  and  C_4
REMARK                            x       y       z     vdW  Elec       q    Type
REMARK                         _______ _______ _______ _____ _____    ______ ____
ROOT
ATOM      1  C   UNL     1       6.805   5.972  16.993  0.00  0.00    +0.000 A 
ATOM      2  N   UNL     1       7.287   5.589  15.776  0.00  0.00    +0.000 NA
ATOM      3  C   UNL     1       6.569   4.701  15.053  0.00  0.00    +0.000 A 
ATOM      4  C   UNL     1       5.359   4.143  15.448  0.00  0.00    +0.000 A 
ATOM      5  C   UNL     1       4.851   4.546  16.693  0.00  0.00    +0.000 A 
ATOM      6  C   UNL     1       5.590   5.459  17.439  0.00  0.00    +0.000 A 
ATOM      7  N   UNL     1       4.892   5.705  18.598  0.00  0.00    +0.000 N 
ATOM      8  C   UNL     1       3.727   4.978  18.629  0.00  0.00    +0.000 A 
ATOM      9  C   UNL     1       2.724   4.923  19.605  0.00  0.00    +0.000 A 
ATOM     10  C   UNL     1       1.634   4.082  19.368  0.00  0.00    +0.000 A 
ATOM     11  C   UNL     1       1.554   3.323  18.202  0.00  0.00    +0.000 A 
ATOM     12  C   UNL     1       2.566   3.389  17.237  0.00  0.00    +0.000 A 
ATOM     13  C   UNL     1       3.675   4.235  17.449  0.00  0.00    +0.000 A 
ATOM     14  H   UNL     1       5.209   6.345  19.317  0.00  0.00    +0.000 HD
ENDROOT
BRANCH   1  16
ATOM     15  N   UNL     1       7.714   8.198  17.298  0.00  0.00    +0.000 N 
ATOM     16  C   UNL     1       7.593   6.935  17.806  0.00  0.00    +0.000 C 
ATOM     17  O   UNL     1       8.092   6.622  18.883  0.00  0.00    +0.000 OA
ATOM     18  H   UNL     1       8.193   8.902  17.840  0.00  0.00    +0.000 HD
ATOM     19  H   UNL     1       7.198   8.456  16.465  0.00  0.00    +0.000 HD
ENDBRANCH   1  16
TORSDOF 1
ENDMDL
MODEL 4
REMARK VINA RESULT:      -7.7      1.719      2.432
REMARK  Name = 
REMARK  1 active torsions:
REMARK  status: ('A' for Active; 'I' for Inactive)
REMARK    1  A    between atoms: C_2  and  C_4
REMARK                            x       y       z     vdW  Elec       q    Type
REMARK                         _______ _______ _______ _____ _____    ______ ____
ROOT
ATOM      1  C   UNL     1       5.959   5.360  17.580  0.00  0.00    +0.000 A 
ATOM      2  N   UNL     1       5.680   6.523  16.926  0.00  0.00    +0.000 NA
ATOM      3  C   UNL     1       4.454   7.070  17.088  0.00  0.00    +0.000 A 
ATOM      4  C   UNL     1       3.444   6.543  17.883  0.00  0.00    +0.000 A 
ATOM      5  C   UNL     1       3.732   5.354  18.571  0.00  0.00    +0.000 A 
ATOM      6  C   UNL     1       4.993   4.789  18.403  0.00  0.00    +0.000 A 
ATOM      7  N   UNL     1       5.042   3.652  19.176  0.00  0.00    +0.000 N 
ATOM      8  C   UNL     1       3.851   3.460  19.835  0.00  0.00    +0.000 A 
ATOM      9  C   UNL     1       3.464   2.445  20.719  0.00  0.00    +0.000 A 
ATOM     10  C   UNL     1       2.171   2.504  21.247  0.00  0.00    +0.000 A 
ATOM     11  C   UNL     1       1.302   3.535  20.900  0.00  0.00    +0.000 A 
ATOM     12  C   UNL     1       1.704   4.542  20.014  0.00  0.00    +0.000 A 
ATOM     13  C   UNL     1       3.006   4.509  19.471  0.00  0.00    +0.000 A 
ATOM     14  H   UNL     1       5.857   3.054  19.241  0.00  0.00    +0.000 HD
ENDROOT
BRANCH   1  16
ATOM     15  N   UNL     1       7.724   4.588  16.108  0.00  0.00    +0.000 N 
ATOM     16  C   UNL     1       7.298   4.738  17.397  0.00  0.00    +0.000 C 
ATOM     17  O   UNL     1       7.992   4.396  18.350  0.00  0.00    +0.000 OA
ATOM     18  H   UNL     1       8.650   4.222  15.935  0.00  0.00    +0.000 HD
ATOM     19  H   UNL     1       7.179   4.982  15.349  0.00  0.00    +0.000 HD
ENDBRANCH   1  16
TORSDOF 1
ENDMDL
MODEL 5
REMARK VINA RESULT:      -7.7      1.994      2.706
REMARK  Name = 
REMARK  1 active torsions:
REMARK  status: ('A' for Active; 'I' for Inactive)
REMARK    1  A    between atoms: C_2  and  C_4
REMARK                            x       y       z     vdW  Elec       q    Type
REMARK                         _______ _______ _______ _____ _____    ______ ____
ROOT
ATOM      1  C   UNL     1       5.970   5.513  16.652  0.00  0.00    +0.000 A 
ATOM      2  N   UNL     1       5.838   6.869  16.605  0.00  0.00    +0.000 NA
ATOM      3  C   UNL     1       4.688   7.417  17.057  0.00  0.00    +0.000 A 
ATOM      4  C   UNL     1       3.617   6.703  17.581  0.00  0.00    +0.000 A 
ATOM      5  C   UNL     1       3.754   5.307  17.645  0.00  0.00    +0.000 A 
ATOM      6  C   UNL     1       4.937   4.743  17.178  0.00  0.00    +0.000 A 
ATOM      7  N   UNL     1       4.842   3.382  17.355  0.00  0.00    +0.000 N 
ATOM      8  C   UNL     1       3.634   3.047  17.917  0.00  0.00    +0.000 A 
ATOM      9  C   UNL     1       3.120   1.792  18.268  0.00  0.00    +0.000 A 
ATOM     10  C   UNL     1       1.842   1.750  18.830  0.00  0.00    +0.000 A 
ATOM     11  C   UNL     1       1.106   2.916  19.028  0.00  0.00    +0.000 A 
ATOM     12  C   UNL     1       1.634   4.163  18.670  0.00  0.00    +0.000 A 
ATOM     13  C   UNL     1       2.925   4.234  18.105  0.00  0.00    +0.000 A 
ATOM     14  H   UNL     1       5.578   2.732  17.104  0.00  0.00    +0.000 HD
ENDROOT
BRANCH   1  16
ATOM     15  N   UNL     1       7.544   5.164  14.842  0.00  0.00    +0.000 N 
ATOM     16  C   UNL     1       7.224   4.896  16.143  0.00  0.00    +0.000 C 
ATOM     17  O   UNL     1       7.943   4.201  16.855  0.00  0.00    +0.000 OA
ATOM     18  H   UNL     1       8.415   4.813  14.467  0.00  0.00    +0.000 HD
ATOM     19  H   UNL     1       6.992   5.831  14.315  0.00  0.00    +0.000 HD
ENDBRANCH   1  16
TORSDOF 1
ENDMDL
MODEL 6
REMARK VINA RESULT:      -7.6      1.946      2.976
REMARK  Name = 
REMARK  1 active torsions:
REMARK  status: ('A' for Active; 'I' for Inactive)
REMARK    1  A    between atoms: C_2  and  C_4
REMARK                            x       y       z     vdW  Elec       q    Type
REMARK                         _______ _______ _______ _____ _____    ______ ____
ROOT
ATOM      1  C   UNL     1       6.617   4.818  16.580  0.00  0.00    +0.000 A 
ATOM      2  N   UNL     1       7.686   5.274  17.293  0.00  0.00    +0.000 NA
ATOM      3  C   UNL     1       7.516   5.529  18.610  0.00  0.00    +0.000 A 
ATOM      4  C   UNL     1       6.328   5.354  19.309  0.00  0.00    +0.000 A 
ATOM      5  C   UNL     1       5.228   4.870  18.583  0.00  0.00    +0.000 A 
ATOM      6  C   UNL     1       5.402   4.609  17.227  0.00  0.00    +0.000 A 
ATOM      7  N   UNL     1       4.205   4.138  16.741  0.00  0.00    +0.000 N 
ATOM      8  C   UNL     1       3.260   4.091  17.738  0.00  0.00    +0.000 A 
ATOM      9  C   UNL     1       1.922   3.679  17.692  0.00  0.00    +0.000 A 
ATOM     10  C   UNL     1       1.185   3.738  18.878  0.00  0.00    +0.000 A 
ATOM     11  C   UNL     1       1.764   4.195  20.059  0.00  0.00    +0.000 A 
ATOM     12  C   UNL     1       3.102   4.604  20.088  0.00  0.00    +0.000 A 
ATOM     13  C   UNL     1       3.870   4.550  18.905  0.00  0.00    +0.000 A 
ATOM     14  H   UNL     1       4.061   3.864  15.776  0.00  0.00    +0.000 HD
ENDROOT
BRANCH   1  16
ATOM     15  N   UNL     1       7.628   5.387  14.452  0.00  0.00    +0.000 N 
ATOM     16  C   UNL     1       6.786   4.550  15.127  0.00  0.00    +0.000 C 
ATOM     17  O   UNL     1       6.217   3.617  14.567  0.00  0.00    +0.000 OA
ATOM     18  H   UNL     1       7.817   5.211  13.475  0.00  0.00    +0.000 HD
ATOM     19  H   UNL     1       8.169   6.076  14.963  0.00  0.00    +0.000 HD
ENDBRANCH   1  16
TORSDOF 1
ENDMDL
MODEL 7
REMARK VINA RESULT:      -7.6      1.695      1.873
REMARK  Name = 
REMARK  1 active torsions:
REMARK  status: ('A' for Active; 'I' for Inactive)
REMARK    1  A    between atoms: C_2  and  C_4
REMARK                            x       y       z     vdW  Elec       q    Type
REMARK                         _______ _______ _______ _____ _____    ______ ____
ROOT
ATOM      1  C   UNL     1       6.511   5.451  18.063  0.00  0.00    +0.000 A 
ATOM      2  N   UNL     1       6.456   6.664  17.442  0.00  0.00    +0.000 NA
ATOM      3  C   UNL     1       5.253   7.114  17.021  0.00  0.00    +0.000 A 
ATOM      4  C   UNL     1       4.049   6.439  17.179  0.00  0.00    +0.000 A 
ATOM      5  C   UNL     1       4.098   5.197  17.832  0.00  0.00    +0.000 A 
ATOM      6  C   UNL     1       5.337   4.732  18.263  0.00  0.00    +0.000 A 
ATOM      7  N   UNL     1       5.130   3.518  18.877  0.00  0.00    +0.000 N 
ATOM      8  C   UNL     1       3.799   3.180  18.853  0.00  0.00    +0.000 A 
ATOM      9  C   UNL     1       3.147   2.048  19.357  0.00  0.00    +0.000 A 
ATOM     10  C   UNL     1       1.762   1.967  19.186  0.00  0.00    +0.000 A 
ATOM     11  C   UNL     1       1.061   2.978  18.533  0.00  0.00    +0.000 A 
ATOM     12  C   UNL     1       1.728   4.103  18.034  0.00  0.00    +0.000 A 
ATOM     13  C   UNL     1       3.125   4.211  18.197  0.00  0.00    +0.000 A 
ATOM     14  H   UNL     1       5.873   2.966  19.291  0.00  0.00    +0.000 HD
ENDROOT
BRANCH   1  16
ATOM     15  N   UNL     1       8.276   5.393  19.724  0.00  0.00    +0.000 N 
ATOM     16  C   UNL     1       7.831   4.937  18.516  0.00  0.00    +0.000 C 
ATOM     17  O   UNL     1       8.478   4.132  17.852  0.00  0.00    +0.000 OA
ATOM     18  H   UNL     1       9.141   5.030  20.099  0.00  0.00    +0.000 HD
ATOM     19  H   UNL     1       7.669   5.968  20.298  0.00  0.00    +0.000 HD
ENDBRANCH   1  16
TORSDOF 1
ENDMDL
MODEL 8
REMARK VINA RESULT:      -7.3      2.259      4.899
REMARK  Name = 
REMARK  1 active torsions:
REMARK  status: ('A' for Active; 'I' for Inactive)
REMARK    1  A    between atoms: C_2  and  C_4
REMARK                            x       y       z     vdW  Elec       q    Type
REMARK                         _______ _______ _______ _____ _____    ______ ____
ROOT
ATOM      1  C   UNL     1       6.501   5.863  17.484  0.00  0.00    +0.000 A 
ATOM      2  N   UNL     1       5.502   5.465  18.323  0.00  0.00    +0.000 NA
ATOM      3  C   UNL     1       4.561   4.622  17.843  0.00  0.00    +0.000 A 
ATOM      4  C   UNL     1       4.529   4.114  16.550  0.00  0.00    +0.000 A 
ATOM      5  C   UNL     1       5.564   4.509  15.687  0.00  0.00    +0.000 A 
ATOM      6  C   UNL     1       6.532   5.378  16.180  0.00  0.00    +0.000 A 
ATOM      7  N   UNL     1       7.435   5.607  15.167  0.00  0.00    +0.000 N 
ATOM      8  C   UNL     1       7.079   4.917  14.033  0.00  0.00    +0.000 A 
ATOM      9  C   UNL     1       7.704   4.858  12.781  0.00  0.00    +0.000 A 
ATOM     10  C   UNL     1       7.110   4.064  11.797  0.00  0.00    +0.000 A 
ATOM     11  C   UNL     1       5.935   3.362  12.056  0.00  0.00    +0.000 A 
ATOM     12  C   UNL     1       5.322   3.432  13.312  0.00  0.00    +0.000 A 
ATOM     13  C   UNL     1       5.905   4.223  14.326  0.00  0.00    +0.000 A 
ATOM     14  H   UNL     1       8.249   6.202  15.266  0.00  0.00    +0.000 HD
ENDROOT
BRANCH   1  16
ATOM     15  N   UNL     1       7.658   7.987  17.324  0.00  0.00    +0.000 N 
ATOM     16  C   UNL     1       7.534   6.803  17.995  0.00  0.00    +0.000 C 
ATOM     17  O   UNL     1       8.224   6.541  18.975  0.00  0.00    +0.000 OA
ATOM     18  H   UNL     1       8.308   8.681  17.667  0.00  0.00    +0.000 HD
ATOM     19  H   UNL     1       6.999   8.221  16.591  0.00  0.00    +0.000 HD
ENDBRANCH   1  16
TORSDOF 1
ENDMDL
MODEL 9
REMARK VINA RESULT:      -7.1      2.159      4.921
REMARK  Name = 
REMARK  1 active torsions:
REMARK  status: ('A' for Active; 'I' for Inactive)
REMARK    1  A    between atoms: C_2  and  C_4
REMARK                            x       y       z     vdW  Elec       q    Type
REMARK                         _______ _______ _______ _____ _____    ______ ____
ROOT
ATOM      1  C   UNL     1       2.925   3.018  19.767  0.00  0.00    +0.000 A 
ATOM      2  N   UNL     1       1.615   2.985  19.390  0.00  0.00    +0.000 NA
ATOM      3  C   UNL     1       1.287   3.467  18.170  0.00  0.00    +0.000 A 
ATOM      4  C   UNL     1       2.187   3.993  17.252  0.00  0.00    +0.000 A 
ATOM      5  C   UNL     1       3.539   4.015  17.629  0.00  0.00    +0.000 A 
ATOM      6  C   UNL     1       3.877   3.521  18.885  0.00  0.00    +0.000 A 
ATOM      7  N   UNL     1       5.242   3.635  19.020  0.00  0.00    +0.000 N 
ATOM      8  C   UNL     1       5.797   4.192  17.893  0.00  0.00    +0.000 A 
ATOM      9  C   UNL     1       7.134   4.486  17.598  0.00  0.00    +0.000 A 
ATOM     10  C   UNL     1       7.413   5.060  16.355  0.00  0.00    +0.000 A 
ATOM     11  C   UNL     1       6.393   5.332  15.446  0.00  0.00    +0.000 A 
ATOM     12  C   UNL     1       5.061   5.032  15.757  0.00  0.00    +0.000 A 
ATOM     13  C   UNL     1       4.753   4.448  17.004  0.00  0.00    +0.000 A 
ATOM     14  H   UNL     1       5.750   3.337  19.844  0.00  0.00    +0.000 HD
ENDROOT
BRANCH   1  16
ATOM     15  N   UNL     1       2.365   2.664  22.098  0.00  0.00    +0.000 N 
ATOM     16  C   UNL     1       3.297   2.506  21.112  0.00  0.00    +0.000 C 
ATOM     17  O   UNL     1       4.373   1.954  21.324  0.00  0.00    +0.000 OA
ATOM     18  H   UNL     1       2.550   2.283  23.016  0.00  0.00    +0.000 HD
ATOM     19  H   UNL     1       1.444   3.020  21.868  0.00  0.00    +0.000 HD
ENDBRANCH   1  16
TORSDOF 1
ENDMDL
