MODEL 1
REMARK VINA RESULT:      -7.7      0.000      0.000
REMARK  Name = 
REMARK  6 active torsions:
REMARK  status: ('A' for Active; 'I' for Inactive)
REMARK    1  A    between atoms: C_1  and  O_2
REMARK    2  A    between atoms: O_2  and  C_3
REMARK    3  A    between atoms: C_7  and  C_8
REMARK    4  A    between atoms: C_10  and  C_11
REMARK    5  A    between atoms: C_19  and  O_20
REMARK    6  A    between atoms: O_20  and  C_21
REMARK                            x       y       z     vdW  Elec       q    Type
REMARK                         _______ _______ _______ _____ _____    ______ ____
ROOT
ATOM      1  C   UNL     1       4.967   4.762  17.784  0.00  0.00    +0.000 A 
ATOM      2  N   UNL     1       4.903   4.769  16.464  0.00  0.00    +0.000 NA
ATOM      3  C   UNL     1       6.185   4.528  16.009  0.00  0.00    +0.000 A 
ATOM      4  C   UNL     1       7.034   4.326  17.071  0.00  0.00    +0.000 A 
ATOM      5  N   UNL     1       6.259   4.497  18.179  0.00  0.00    +0.000 N 
ATOM      6  H   UNL     1       6.546   4.442  19.146  0.00  0.00    +0.000 HD
ENDROOT
BRANCH   1  11
ATOM      7  C   UNL     1       2.043   4.070  20.111  0.00  0.00    +0.000 A 
ATOM      8  C   UNL     1       1.651   5.389  20.392  0.00  0.00    +0.000 A 
ATOM      9  C   UNL     1       2.326   6.465  19.830  0.00  0.00    +0.000 A 
ATOM     10  C   UNL     1       3.410   6.232  18.995  0.00  0.00    +0.000 A 
ATOM     11  C   UNL     1       3.851   4.925  18.726  0.00  0.00    +0.000 A 
ATOM     12  C   UNL     1       3.184   3.826  19.326  0.00  0.00    +0.000 A 
BRANCH   7  14
ATOM     13  C   UNL     1       1.771   2.530  21.874  0.00  0.00    +0.000 C 
ATOM     14  O   UNL     1       1.318   3.020  20.611  0.00  0.00    +0.000 OA
ENDBRANCH   7  14
BRANCH  12  15
ATOM     15  O   UNL     1       3.712   2.589  19.023  0.00  0.00    +0.000 OA
ATOM     16  C   UNL     1       3.126   1.804  17.995  0.00  0.00    +0.000 C 
ENDBRANCH  12  15
ENDBRANCH   1  11
BRANCH   3  17
ATOM     17  C   UNL     1       6.535   4.469  14.603  0.00  0.00    +0.000 A 
ATOM     18  C   UNL     1       7.529   5.293  14.055  0.00  0.00    +0.000 A 
ATOM     19  C   UNL     1       7.848   5.216  12.698  0.00  0.00    +0.000 A 
ATOM     20  C   UNL     1       7.178   4.312  11.877  0.00  0.00    +0.000 A 
ATOM     21  C   UNL     1       6.185   3.492  12.404  0.00  0.00    +0.000 A 
ATOM     22  C   UNL     1       5.862   3.574  13.760  0.00  0.00    +0.000 A 
ENDBRANCH   3  17
TORSDOF 4
ENDMDL
MODEL 2
REMARK VINA RESULT:      -7.6      0.706      1.266
REMARK  Name = 
REMARK  6 active torsions:
REMARK  status: ('A' for Active; 'I' for Inactive)
REMARK    1  A    between atoms: C_1  and  O_2
REMARK    2  A    between atoms: O_2  and  C_3
REMARK    3  A    between atoms: C_7  and  C_8
REMARK    4  A    between atoms: C_10  and  C_11
REMARK    5  A    between atoms: C_19  and  O_20
REMARK    6  A    between atoms: O_20  and  C_21
REMARK                            x       y       z     vdW  Elec       q    Type
REMARK                         _______ _______ _______ _____ _____    ______ ____
ROOT
ATOM      1  C   UNL     1       5.115   5.078  17.747  0.00  0.00    +0.000 A 
ATOM      2  N   UNL     1       4.965   4.955  16.440  0.00  0.00    +0.000 NA
ATOM      3  C   UNL     1       6.217   4.678  15.927  0.00  0.00    +0.000 A 
ATOM      4  C   UNL     1       7.136   4.585  16.944  0.00  0.00    +0.000 A 
ATOM      5  N   UNL     1       6.433   4.860  18.079  0.00  0.00    +0.000 N 
ATOM      6  H   UNL     1       6.783   4.901  19.026  0.00  0.00    +0.000 HD
ENDROOT
BRANCH   1  11
ATOM      7  C   UNL     1       2.607   4.653  20.570  0.00  0.00    +0.000 A 
ATOM      8  C   UNL     1       1.937   5.883  20.475  0.00  0.00    +0.000 A 
ATOM      9  C   UNL     1       2.300   6.816  19.511  0.00  0.00    +0.000 A 
ATOM     10  C   UNL     1       3.346   6.533  18.645  0.00  0.00    +0.000 A 
ATOM     11  C   UNL     1       4.062   5.327  18.740  0.00  0.00    +0.000 A 
ATOM     12  C   UNL     1       3.715   4.388  19.745  0.00  0.00    +0.000 A 
BRANCH   7  14
ATOM     13  C   UNL     1       1.098   2.902  21.031  0.00  0.00    +0.000 C 
ATOM     14  O   UNL     1       2.186   3.713  21.475  0.00  0.00    +0.000 OA
ENDBRANCH   7  14
BRANCH  12  15
ATOM     15  O   UNL     1       4.496   3.252  19.775  0.00  0.00    +0.000 OA
ATOM     16  C   UNL     1       4.025   2.057  19.171  0.00  0.00    +0.000 C 
ENDBRANCH  12  15
ENDBRANCH   1  11
BRANCH   3  17
ATOM     17  C   UNL     1       6.474   4.483  14.512  0.00  0.00    +0.000 A 
ATOM     18  C   UNL     1       5.720   3.585  13.743  0.00  0.00    +0.000 A 
ATOM     19  C   UNL     1       5.987   3.417  12.382  0.00  0.00    +0.000 A 
ATOM     20  C   UNL     1       7.008   4.147  11.779  0.00  0.00    +0.000 A 
ATOM     21  C   UNL     1       7.770   5.037  12.531  0.00  0.00    +0.000 A 
ATOM     22  C   UNL     1       7.506   5.201  13.893  0.00  0.00    +0.000 A 
ENDBRANCH   3  17
TORSDOF 4
ENDMDL
MODEL 3
REMARK VINA RESULT:      -7.0      1.134      2.205
REMARK  Name = 
REMARK  6 active torsions:
REMARK  status: ('A' for Active; 'I' for Inactive)
REMARK    1  A    between atoms: C_1  and  O_2
REMARK    2  A    between atoms: O_2  and  C_3
REMARK    3  A    between atoms: C_7  and  C_8
REMARK    4  A    between atoms: C_10  and  C_11
REMARK    5  A    between atoms: C_19  and  O_20
REMARK    6  A    between atoms: O_20  and  C_21
REMARK                            x       y       z     vdW  Elec       q    Type
REMARK                         _______ _______ _______ _____ _____    ______ ____
ROOT
ATOM      1  C   UNL     1       4.970   3.949  17.427  0.00  0.00    +0.000 A 
ATOM      2  N   UNL     1       4.940   3.931  16.106  0.00  0.00    +0.000 NA
ATOM      3  C   UNL     1       6.217   4.238  15.681  0.00  0.00    +0.000 A 
ATOM      4  C   UNL     1       7.050   4.400  16.763  0.00  0.00    +0.000 A 
ATOM      5  N   UNL     1       6.247   4.237  17.852  0.00  0.00    +0.000 N 
ATOM      6  H   UNL     1       6.509   4.302  18.826  0.00  0.00    +0.000 HD
ENDROOT
BRANCH   1  11
ATOM      7  C   UNL     1       2.425   4.123  20.244  0.00  0.00    +0.000 A 
ATOM      8  C   UNL     1       1.842   2.853  20.111  0.00  0.00    +0.000 A 
ATOM      9  C   UNL     1       2.277   1.972  19.129  0.00  0.00    +0.000 A 
ATOM     10  C   UNL     1       3.288   2.360  18.261  0.00  0.00    +0.000 A 
ATOM     11  C   UNL     1       3.864   3.639  18.343  0.00  0.00    +0.000 A 
ATOM     12  C   UNL     1       3.398   4.552  19.324  0.00  0.00    +0.000 A 
BRANCH   7  14
ATOM     13  C   UNL     1       1.209   6.042  20.870  0.00  0.00    +0.000 C 
ATOM     14  O   UNL     1       2.038   4.950  21.267  0.00  0.00    +0.000 OA
ENDBRANCH   7  14
BRANCH  12  15
ATOM     15  O   UNL     1       4.006   5.789  19.302  0.00  0.00    +0.000 OA
ATOM     16  C   UNL     1       3.534   6.791  18.413  0.00  0.00    +0.000 C 
ENDBRANCH  12  15
ENDBRANCH   1  11
BRANCH   3  17
ATOM     17  C   UNL     1       6.593   4.330  14.283  0.00  0.00    +0.000 A 
ATOM     18  C   UNL     1       7.531   5.271  13.833  0.00  0.00    +0.000 A 
ATOM     19  C   UNL     1       7.876   5.338  12.481  0.00  0.00    +0.000 A 
ATOM     20  C   UNL     1       7.290   4.463  11.570  0.00  0.00    +0.000 A 
ATOM     21  C   UNL     1       6.353   3.528  12.001  0.00  0.00    +0.000 A 
ATOM     22  C   UNL     1       6.004   3.465  13.351  0.00  0.00    +0.000 A 
ENDBRANCH   3  17
TORSDOF 4
ENDMDL
MODEL 4
REMARK VINA RESULT:      -6.9      3.473      7.924
REMARK  Name = 
REMARK  6 active torsions:
REMARK  status: ('A' for Active; 'I' for Inactive)
REMARK    1  A    between atoms: C_1  and  O_2
REMARK    2  A    between atoms: O_2  and  C_3
REMARK    3  A    between atoms: C_7  and  C_8
REMARK    4  A    between atoms: C_10  and  C_11
REMARK    5  A    between atoms: C_19  and  O_20
REMARK    6  A    between atoms: O_20  and  C_21
REMARK                            x       y       z     vdW  Elec       q    Type
REMARK                         _______ _______ _______ _____ _____    ______ ____
ROOT
ATOM      1  C   UNL     1       2.671   7.112  18.327  0.00  0.00    +0.000 A 
ATOM      2  N   UNL     1       2.064   7.351  19.476  0.00  0.00    +0.000 NA
ATOM      3  C   UNL     1       1.611   8.655  19.415  0.00  0.00    +0.000 A 
ATOM      4  C   UNL     1       1.909   9.202  18.191  0.00  0.00    +0.000 A 
ATOM      5  N   UNL     1       2.594   8.229  17.527  0.00  0.00    +0.000 N 
ATOM      6  H   UNL     1       2.989   8.278  16.598  0.00  0.00    +0.000 HD
ENDROOT
BRANCH   1  11
ATOM      7  C   UNL     1       4.937   4.544  16.680  0.00  0.00    +0.000 A 
ATOM      8  C   UNL     1       4.240   3.371  17.010  0.00  0.00    +0.000 A 
ATOM      9  C   UNL     1       3.063   3.428  17.746  0.00  0.00    +0.000 A 
ATOM     10  C   UNL     1       2.583   4.658  18.173  0.00  0.00    +0.000 A 
ATOM     11  C   UNL     1       3.279   5.847  17.893  0.00  0.00    +0.000 A 
ATOM     12  C   UNL     1       4.498   5.787  17.169  0.00  0.00    +0.000 A 
BRANCH   7  14
ATOM     13  C   UNL     1       5.791   4.217  14.507  0.00  0.00    +0.000 C 
ATOM     14  O   UNL     1       6.053   4.476  15.887  0.00  0.00    +0.000 OA
ENDBRANCH   7  14
BRANCH  12  15
ATOM     15  O   UNL     1       5.118   7.003  16.973  0.00  0.00    +0.000 OA
ATOM     16  C   UNL     1       6.437   7.207  17.458  0.00  0.00    +0.000 C 
ENDBRANCH  12  15
ENDBRANCH   1  11
BRANCH   3  17
ATOM     17  C   UNL     1       0.896   9.302  20.498  0.00  0.00    +0.000 A 
ATOM     18  C   UNL     1       0.135  10.462  20.289  0.00  0.00    +0.000 A 
ATOM     19  C   UNL     1      -0.545  11.066  21.349  0.00  0.00    +0.000 A 
ATOM     20  C   UNL     1      -0.474  10.514  22.625  0.00  0.00    +0.000 A 
ATOM     21  C   UNL     1       0.283   9.367  22.850  0.00  0.00    +0.000 A 
ATOM     22  C   UNL     1       0.967   8.767  21.791  0.00  0.00    +0.000 A 
ENDBRANCH   3  17
TORSDOF 4
ENDMDL
MODEL 5
REMARK VINA RESULT:      -6.9      1.136      2.442
REMARK  Name = 
REMARK  6 active torsions:
REMARK  status: ('A' for Active; 'I' for Inactive)
REMARK    1  A    between atoms: C_1  and  O_2
REMARK    2  A    between atoms: O_2  and  C_3
REMARK    3  A    between atoms: C_7  and  C_8
REMARK    4  A    between atoms: C_10  and  C_11
REMARK    5  A    between atoms: C_19  and  O_20
REMARK    6  A    between atoms: O_20  and  C_21
REMARK                            x       y       z     vdW  Elec       q    Type
REMARK                         _______ _______ _______ _____ _____    ______ ____
ROOT
ATOM      1  C   UNL     1       4.934   3.929  17.418  0.00  0.00    +0.000 A 
ATOM      2  N   UNL     1       4.902   3.904  16.097  0.00  0.00    +0.000 NA
ATOM      3  C   UNL     1       6.180   4.202  15.669  0.00  0.00    +0.000 A 
ATOM      4  C   UNL     1       7.015   4.366  16.748  0.00  0.00    +0.000 A 
ATOM      5  N   UNL     1       6.213   4.213  17.839  0.00  0.00    +0.000 N 
ATOM      6  H   UNL     1       6.477   4.283  18.812  0.00  0.00    +0.000 HD
ENDROOT
BRANCH   1  11
ATOM      7  C   UNL     1       2.401   4.127  20.244  0.00  0.00    +0.000 A 
ATOM      8  C   UNL     1       1.804   2.863  20.111  0.00  0.00    +0.000 A 
ATOM      9  C   UNL     1       2.225   1.979  19.126  0.00  0.00    +0.000 A 
ATOM     10  C   UNL     1       3.237   2.357  18.255  0.00  0.00    +0.000 A 
ATOM     11  C   UNL     1       3.828   3.629  18.337  0.00  0.00    +0.000 A 
ATOM     12  C   UNL     1       3.376   4.546  19.321  0.00  0.00    +0.000 A 
BRANCH   7  14
ATOM     13  C   UNL     1       1.247   6.084  20.871  0.00  0.00    +0.000 C 
ATOM     14  O   UNL     1       2.027   4.956  21.269  0.00  0.00    +0.000 OA
ENDBRANCH   7  14
BRANCH  12  15
ATOM     15  O   UNL     1       3.997   5.777  19.299  0.00  0.00    +0.000 OA
ATOM     16  C   UNL     1       3.572   6.764  18.370  0.00  0.00    +0.000 C 
ENDBRANCH  12  15
ENDBRANCH   1  11
BRANCH   3  17
ATOM     17  C   UNL     1       6.554   4.285  14.270  0.00  0.00    +0.000 A 
ATOM     18  C   UNL     1       5.981   3.446  13.303  0.00  0.00    +0.000 A 
ATOM     19  C   UNL     1       6.357   3.547  11.961  0.00  0.00    +0.000 A 
ATOM     20  C   UNL     1       7.308   4.488  11.575  0.00  0.00    +0.000 A 
ATOM     21  C   UNL     1       7.891   5.323  12.524  0.00  0.00    +0.000 A 
ATOM     22  C   UNL     1       7.518   5.218  13.866  0.00  0.00    +0.000 A 
ENDBRANCH   3  17
TORSDOF 4
ENDMDL
MODEL 6
REMARK VINA RESULT:      -6.9      3.526      7.978
REMARK  Name = 
REMARK  6 active torsions:
REMARK  status: ('A' for Active; 'I' for Inactive)
REMARK    1  A    between atoms: C_1  and  O_2
REMARK    2  A    between atoms: O_2  and  C_3
REMARK    3  A    between atoms: C_7  and  C_8
REMARK    4  A    between atoms: C_10  and  C_11
REMARK    5  A    between atoms: C_19  and  O_20
REMARK    6  A    between atoms: O_20  and  C_21
REMARK                            x       y       z     vdW  Elec       q    Type
REMARK                         _______ _______ _______ _____ _____    ______ ____
ROOT
ATOM      1  C   UNL     1       2.640   7.185  18.330  0.00  0.00    +0.000 A 
ATOM      2  N   UNL     1       2.038   7.420  19.482  0.00  0.00    +0.000 NA
ATOM      3  C   UNL     1       1.594   8.727  19.433  0.00  0.00    +0.000 A 
ATOM      4  C   UNL     1       1.891   9.281  18.211  0.00  0.00    +0.000 A 
ATOM      5  N   UNL     1       2.566   8.308  17.537  0.00  0.00    +0.000 N 
ATOM      6  H   UNL     1       2.959   8.361  16.608  0.00  0.00    +0.000 HD
ENDROOT
BRANCH   1  11
ATOM      7  C   UNL     1       4.898   4.614  16.677  0.00  0.00    +0.000 A 
ATOM      8  C   UNL     1       4.179   3.446  16.974  0.00  0.00    +0.000 A 
ATOM      9  C   UNL     1       2.991   3.507  17.691  0.00  0.00    +0.000 A 
ATOM     10  C   UNL     1       2.520   4.736  18.131  0.00  0.00    +0.000 A 
ATOM     11  C   UNL     1       3.237   5.919  17.884  0.00  0.00    +0.000 A 
ATOM     12  C   UNL     1       4.468   5.854  17.180  0.00  0.00    +0.000 A 
BRANCH   7  14
ATOM     13  C   UNL     1       5.795   4.184  14.541  0.00  0.00    +0.000 C 
ATOM     14  O   UNL     1       6.027   4.544  15.903  0.00  0.00    +0.000 OA
ENDBRANCH   7  14
BRANCH  12  15
ATOM     15  O   UNL     1       5.108   7.064  17.017  0.00  0.00    +0.000 OA
ATOM     16  C   UNL     1       6.454   7.213  17.445  0.00  0.00    +0.000 C 
ENDBRANCH  12  15
ENDBRANCH   1  11
BRANCH   3  17
ATOM     17  C   UNL     1       0.887   9.371  20.523  0.00  0.00    +0.000 A 
ATOM     18  C   UNL     1       0.673   8.723  21.748  0.00  0.00    +0.000 A 
ATOM     19  C   UNL     1      -0.009   9.367  22.783  0.00  0.00    +0.000 A 
ATOM     20  C   UNL     1      -0.481  10.665  22.603  0.00  0.00    +0.000 A 
ATOM     21  C   UNL     1      -0.281  11.319  21.390  0.00  0.00    +0.000 A 
ATOM     22  C   UNL     1       0.396  10.673  20.354  0.00  0.00    +0.000 A 
ENDBRANCH   3  17
TORSDOF 4
ENDMDL
MODEL 7
REMARK VINA RESULT:      -6.8      3.494      7.882
REMARK  Name = 
REMARK  6 active torsions:
REMARK  status: ('A' for Active; 'I' for Inactive)
REMARK    1  A    between atoms: C_1  and  O_2
REMARK    2  A    between atoms: O_2  and  C_3
REMARK    3  A    between atoms: C_7  and  C_8
REMARK    4  A    between atoms: C_10  and  C_11
REMARK    5  A    between atoms: C_19  and  O_20
REMARK    6  A    between atoms: O_20  and  C_21
REMARK                            x       y       z     vdW  Elec       q    Type
REMARK                         _______ _______ _______ _____ _____    ______ ____
ROOT
ATOM      1  C   UNL     1       2.402   7.718  18.556  0.00  0.00    +0.000 A 
ATOM      2  N   UNL     1       1.931   7.932  19.772  0.00  0.00    +0.000 NA
ATOM      3  C   UNL     1       1.154   9.071  19.695  0.00  0.00    +0.000 A 
ATOM      4  C   UNL     1       1.115   9.531  18.401  0.00  0.00    +0.000 A 
ATOM      5  N   UNL     1       1.921   8.684  17.702  0.00  0.00    +0.000 N 
ATOM      6  H   UNL     1       2.148   8.721  16.718  0.00  0.00    +0.000 HD
ENDROOT
BRANCH   1  11
ATOM      7  C   UNL     1       3.969   4.276  18.186  0.00  0.00    +0.000 A 
ATOM      8  C   UNL     1       5.016   4.589  17.304  0.00  0.00    +0.000 A 
ATOM      9  C   UNL     1       5.198   5.890  16.852  0.00  0.00    +0.000 A 
ATOM     10  C   UNL     1       4.324   6.886  17.266  0.00  0.00    +0.000 A 
ATOM     11  C   UNL     1       3.244   6.597  18.116  0.00  0.00    +0.000 A 
ATOM     12  C   UNL     1       3.037   5.262  18.552  0.00  0.00    +0.000 A 
BRANCH   7  14
ATOM     13  C   UNL     1       3.094   2.111  17.865  0.00  0.00    +0.000 C 
ATOM     14  O   UNL     1       3.851   3.004  18.683  0.00  0.00    +0.000 OA
ENDBRANCH   7  14
BRANCH  12  15
ATOM     15  O   UNL     1       1.933   5.078  19.358  0.00  0.00    +0.000 OA
ATOM     16  C   UNL     1       2.107   4.702  20.716  0.00  0.00    +0.000 C 
ENDBRANCH  12  15
ENDBRANCH   1  11
BRANCH   3  17
ATOM     17  C   UNL     1       0.464   9.645  20.835  0.00  0.00    +0.000 A 
ATOM     18  C   UNL     1      -0.288  10.823  20.725  0.00  0.00    +0.000 A 
ATOM     19  C   UNL     1      -0.944  11.355  21.838  0.00  0.00    +0.000 A 
ATOM     20  C   UNL     1      -0.855  10.711  23.069  0.00  0.00    +0.000 A 
ATOM     21  C   UNL     1      -0.106   9.544  23.197  0.00  0.00    +0.000 A 
ATOM     22  C   UNL     1       0.553   9.017  22.085  0.00  0.00    +0.000 A 
ENDBRANCH   3  17
TORSDOF 4
ENDMDL
MODEL 8
REMARK VINA RESULT:      -6.8      3.720      7.057
REMARK  Name = 
REMARK  6 active torsions:
REMARK  status: ('A' for Active; 'I' for Inactive)
REMARK    1  A    between atoms: C_1  and  O_2
REMARK    2  A    between atoms: O_2  and  C_3
REMARK    3  A    between atoms: C_7  and  C_8
REMARK    4  A    between atoms: C_10  and  C_11
REMARK    5  A    between atoms: C_19  and  O_20
REMARK    6  A    between atoms: O_20  and  C_21
REMARK                            x       y       z     vdW  Elec       q    Type
REMARK                         _______ _______ _______ _____ _____    ______ ____
ROOT
ATOM      1  C   UNL     1       2.379   7.131  18.643  0.00  0.00    +0.000 A 
ATOM      2  N   UNL     1       1.896   8.220  18.070  0.00  0.00    +0.000 NA
ATOM      3  C   UNL     1       1.407   9.014  19.088  0.00  0.00    +0.000 A 
ATOM      4  C   UNL     1       1.637   8.419  20.305  0.00  0.00    +0.000 A 
ATOM      5  N   UNL     1       2.229   7.227  20.008  0.00  0.00    +0.000 N 
ATOM      6  H   UNL     1       2.527   6.510  20.653  0.00  0.00    +0.000 HD
ENDROOT
BRANCH   1  11
ATOM      7  C   UNL     1       3.309   3.645  17.451  0.00  0.00    +0.000 A 
ATOM      8  C   UNL     1       4.517   3.936  16.797  0.00  0.00    +0.000 A 
ATOM      9  C   UNL     1       5.006   5.235  16.756  0.00  0.00    +0.000 A 
ATOM     10  C   UNL     1       4.283   6.258  17.353  0.00  0.00    +0.000 A 
ATOM     11  C   UNL     1       3.051   6.005  17.981  0.00  0.00    +0.000 A 
ATOM     12  C   UNL     1       2.534   4.684  17.996  0.00  0.00    +0.000 A 
BRANCH   7  14
ATOM     13  C   UNL     1       3.626   1.540  18.462  0.00  0.00    +0.000 C 
ATOM     14  O   UNL     1       2.880   2.346  17.550  0.00  0.00    +0.000 OA
ENDBRANCH   7  14
BRANCH  12  15
ATOM     15  O   UNL     1       1.306   4.546  18.609  0.00  0.00    +0.000 OA
ATOM     16  C   UNL     1       1.220   3.919  19.879  0.00  0.00    +0.000 C 
ENDBRANCH  12  15
ENDBRANCH   1  11
BRANCH   3  17
ATOM     17  C   UNL     1       0.780  10.302  18.864  0.00  0.00    +0.000 A 
ATOM     18  C   UNL     1       1.521  11.493  18.865  0.00  0.00    +0.000 A 
ATOM     19  C   UNL     1       0.893  12.721  18.645  0.00  0.00    +0.000 A 
ATOM     20  C   UNL     1      -0.480  12.769  18.419  0.00  0.00    +0.000 A 
ATOM     21  C   UNL     1      -1.231  11.596  18.422  0.00  0.00    +0.000 A 
ATOM     22  C   UNL     1      -0.603  10.370  18.647  0.00  0.00    +0.000 A 
ENDBRANCH   3  17
TORSDOF 4
ENDMDL
MODEL 9
REMARK VINA RESULT:      -6.8      3.850      7.295
REMARK  Name = 
REMARK  6 active torsions:
REMARK  status: ('A' for Active; 'I' for Inactive)
REMARK    1  A    between atoms: C_1  and  O_2
REMARK    2  A    between atoms: O_2  and  C_3
REMARK    3  A    between atoms: C_7  and  C_8
REMARK    4  A    between atoms: C_10  and  C_11
REMARK    5  A    between atoms: C_19  and  O_20
REMARK    6  A    between atoms: O_20  and  C_21
REMARK                            x       y       z     vdW  Elec       q    Type
REMARK                         _______ _______ _______ _____ _____    ______ ____
ROOT
ATOM      1  C   UNL     1       2.299   7.433  19.312  0.00  0.00    +0.000 A 
ATOM      2  N   UNL     1       1.832   8.442  18.597  0.00  0.00    +0.000 NA
ATOM      3  C   UNL     1       1.164   9.269  19.478  0.00  0.00    +0.000 A 
ATOM      4  C   UNL     1       1.265   8.778  20.758  0.00  0.00    +0.000 A 
ATOM      5  N   UNL     1       1.962   7.613  20.634  0.00  0.00    +0.000 N 
ATOM      6  H   UNL     1       2.214   6.965  21.367  0.00  0.00    +0.000 HD
ENDROOT
BRANCH   1  11
ATOM      7  C   UNL     1       4.011   4.055  18.996  0.00  0.00    +0.000 A 
ATOM      8  C   UNL     1       4.847   4.318  17.899  0.00  0.00    +0.000 A 
ATOM      9  C   UNL     1       4.847   5.567  17.290  0.00  0.00    +0.000 A 
ATOM     10  C   UNL     1       3.997   6.557  17.762  0.00  0.00    +0.000 A 
ATOM     11  C   UNL     1       3.121   6.313  18.833  0.00  0.00    +0.000 A 
ATOM     12  C   UNL     1       3.096   5.028  19.435  0.00  0.00    +0.000 A 
BRANCH   7  14
ATOM     13  C   UNL     1       3.629   1.733  18.857  0.00  0.00    +0.000 C 
ATOM     14  O   UNL     1       4.081   2.843  19.633  0.00  0.00    +0.000 OA
ENDBRANCH   7  14
BRANCH  12  15
ATOM     15  O   UNL     1       2.180   4.881  20.455  0.00  0.00    +0.000 OA
ATOM     16  C   UNL     1       1.012   4.102  20.245  0.00  0.00    +0.000 C 
ENDBRANCH  12  15
ENDBRANCH   1  11
BRANCH   3  17
ATOM     17  C   UNL     1       0.496  10.491  19.074  0.00  0.00    +0.000 A 
ATOM     18  C   UNL     1      -0.850  10.499  18.678  0.00  0.00    +0.000 A 
ATOM     19  C   UNL     1      -1.471  11.690  18.295  0.00  0.00    +0.000 A 
ATOM     20  C   UNL     1      -0.753  12.883  18.308  0.00  0.00    +0.000 A 
ATOM     21  C   UNL     1       0.585  12.891  18.694  0.00  0.00    +0.000 A 
ATOM     22  C   UNL     1       1.206  11.699  19.071  0.00  0.00    +0.000 A 
ENDBRANCH   3  17
TORSDOF 4
ENDMDL
