MODEL 1
REMARK VINA RESULT:      -6.5      0.000      0.000
REMARK  Name = 
REMARK  5 active torsions:
REMARK  status: ('A' for Active; 'I' for Inactive)
REMARK    1  A    between atoms: C_1  and  O_2
REMARK    2  A    between atoms: O_2  and  C_3
REMARK    3  A    between atoms: C_8  and  O_9
REMARK    4  A    between atoms: O_9  and  C_10
REMARK    5  A    between atoms: N_19  and  C_20
REMARK                            x       y       z     vdW  Elec       q    Type
REMARK                         _______ _______ _______ _____ _____    ______ ____
ROOT
ATOM      1  C   UNL     1      -3.437  10.770  16.734  0.00  0.00    +0.000 A 
ATOM      2  C   UNL     1      -2.145  10.294  16.864  0.00  0.00    +0.000 A 
ATOM      3  C   UNL     1      -1.413  10.563  18.003  0.00  0.00    +0.000 A 
ATOM      4  C   UNL     1      -1.963  11.329  19.057  0.00  0.00    +0.000 A 
ATOM      5  C   UNL     1      -3.277  11.874  18.984  0.00  0.00    +0.000 A 
ATOM      6  C   UNL     1      -4.004  11.598  17.764  0.00  0.00    +0.000 A 
ATOM      7  C   UNL     1      -3.789  12.664  20.190  0.00  0.00    +0.000 A 
ATOM      8  C   UNL     1      -5.010  13.380  20.266  0.00  0.00    +0.000 A 
ATOM      9  C   UNL     1      -5.346  14.091  21.424  0.00  0.00    +0.000 A 
ATOM     10  C   UNL     1      -4.545  14.093  22.531  0.00  0.00    +0.000 A 
ATOM     11  C   UNL     1      -3.370  13.415  22.541  0.00  0.00    +0.000 A 
ATOM     12  C   UNL     1      -2.978  12.744  21.362  0.00  0.00    +0.000 A 
ATOM     13  C   UNL     1      -1.548  12.321  21.382  0.00  0.00    +0.000 C 
ATOM     14  C   UNL     1      -1.048  11.416  20.275  0.00  0.00    +0.000 C 
ATOM     15  N   UNL     1       0.338  11.826  19.901  0.00  0.00    +0.000 NA
ATOM     16  C   UNL     1       1.284  11.865  21.015  0.00  0.00    +0.000 C 
ATOM     17  C   UNL     1       0.897  11.094  18.756  0.00  0.00    +0.000 C 
ATOM     18  C   UNL     1      -0.016  10.018  18.165  0.00  0.00    +0.000 C 
ATOM     19  O   UNL     1      -5.002  14.870  23.545  0.00  0.00    +0.000 OA
ATOM     20  C   UNL     1      -6.164  15.439  22.920  0.00  0.00    +0.000 C 
ATOM     21  O   UNL     1      -6.437  14.890  21.608  0.00  0.00    +0.000 OA
ENDROOT
BRANCH   1  23
ATOM     22  C   UNL     1      -3.390  10.162  14.418  0.00  0.00    +0.000 C 
ATOM     23  O   UNL     1      -4.143  10.491  15.587  0.00  0.00    +0.000 OA
ENDBRANCH   1  23
BRANCH   6  24
ATOM     24  O   UNL     1      -5.272  12.132  17.686  0.00  0.00    +0.000 OA
ATOM     25  C   UNL     1      -6.412  11.321  17.937  0.00  0.00    +0.000 C 
ENDBRANCH   6  24
TORSDOF 2
ENDMDL
MODEL 2
REMARK VINA RESULT:      -6.4      1.434      1.506
REMARK  Name = 
REMARK  5 active torsions:
REMARK  status: ('A' for Active; 'I' for Inactive)
REMARK    1  A    between atoms: C_1  and  O_2
REMARK    2  A    between atoms: O_2  and  C_3
REMARK    3  A    between atoms: C_8  and  O_9
REMARK    4  A    between atoms: O_9  and  C_10
REMARK    5  A    between atoms: N_19  and  C_20
REMARK                            x       y       z     vdW  Elec       q    Type
REMARK                         _______ _______ _______ _____ _____    ______ ____
ROOT
ATOM      1  C   UNL     1      -3.509  11.222  17.134  0.00  0.00    +0.000 A 
ATOM      2  C   UNL     1      -2.135  11.316  17.264  0.00  0.00    +0.000 A 
ATOM      3  C   UNL     1      -1.574  11.749  18.448  0.00  0.00    +0.000 A 
ATOM      4  C   UNL     1      -2.385  12.109  19.549  0.00  0.00    +0.000 A 
ATOM      5  C   UNL     1      -3.807  12.063  19.482  0.00  0.00    +0.000 A 
ATOM      6  C   UNL     1      -4.362  11.633  18.217  0.00  0.00    +0.000 A 
ATOM      7  C   UNL     1      -4.593  12.445  20.738  0.00  0.00    +0.000 A 
ATOM      8  C   UNL     1      -6.001  12.577  20.838  0.00  0.00    +0.000 A 
ATOM      9  C   UNL     1      -6.593  12.965  22.045  0.00  0.00    +0.000 A 
ATOM     10  C   UNL     1      -5.858  13.190  23.175  0.00  0.00    +0.000 A 
ATOM     11  C   UNL     1      -4.507  13.064  23.162  0.00  0.00    +0.000 A 
ATOM     12  C   UNL     1      -3.880  12.737  21.939  0.00  0.00    +0.000 A 
ATOM     13  C   UNL     1      -2.404  12.947  21.970  0.00  0.00    +0.000 C 
ATOM     14  C   UNL     1      -1.581  12.446  20.801  0.00  0.00    +0.000 C 
ATOM     15  N   UNL     1      -0.495  13.430  20.515  0.00  0.00    +0.000 NA
ATOM     16  C   UNL     1       0.357  13.747  21.660  0.00  0.00    +0.000 C 
ATOM     17  C   UNL     1       0.310  13.114  19.327  0.00  0.00    +0.000 C 
ATOM     18  C   UNL     1      -0.076  11.820  18.607  0.00  0.00    +0.000 C 
ATOM     19  O   UNL     1      -6.590  13.602  24.240  0.00  0.00    +0.000 OA
ATOM     20  C   UNL     1      -7.887  13.696  23.631  0.00  0.00    +0.000 C 
ATOM     21  O   UNL     1      -7.917  13.216  22.265  0.00  0.00    +0.000 OA
ENDROOT
BRANCH   1  23
ATOM     22  C   UNL     1      -3.143  10.220  14.990  0.00  0.00    +0.000 C 
ATOM     23  O   UNL     1      -4.043  10.790  15.942  0.00  0.00    +0.000 OA
ENDBRANCH   1  23
BRANCH   6  24
ATOM     24  O   UNL     1      -5.738  11.597  18.145  0.00  0.00    +0.000 OA
ATOM     25  C   UNL     1      -6.444  12.561  17.375  0.00  0.00    +0.000 C 
ENDBRANCH   6  24
TORSDOF 2
ENDMDL
MODEL 3
REMARK VINA RESULT:      -6.4      7.825     11.576
REMARK  Name = 
REMARK  5 active torsions:
REMARK  status: ('A' for Active; 'I' for Inactive)
REMARK    1  A    between atoms: C_1  and  O_2
REMARK    2  A    between atoms: O_2  and  C_3
REMARK    3  A    between atoms: C_8  and  O_9
REMARK    4  A    between atoms: O_9  and  C_10
REMARK    5  A    between atoms: N_19  and  C_20
REMARK                            x       y       z     vdW  Elec       q    Type
REMARK                         _______ _______ _______ _____ _____    ______ ____
ROOT
ATOM      1  C   UNL     1       2.575   3.992  21.087  0.00  0.00    +0.000 A 
ATOM      2  C   UNL     1       1.728   5.061  21.323  0.00  0.00    +0.000 A 
ATOM      3  C   UNL     1       1.707   6.138  20.460  0.00  0.00    +0.000 A 
ATOM      4  C   UNL     1       2.547   6.177  19.324  0.00  0.00    +0.000 A 
ATOM      5  C   UNL     1       3.464   5.126  19.030  0.00  0.00    +0.000 A 
ATOM      6  C   UNL     1       3.481   4.027  19.970  0.00  0.00    +0.000 A 
ATOM      7  C   UNL     1       4.307   5.251  17.760  0.00  0.00    +0.000 A 
ATOM      8  C   UNL     1       5.351   4.380  17.358  0.00  0.00    +0.000 A 
ATOM      9  C   UNL     1       6.069   4.627  16.182  0.00  0.00    +0.000 A 
ATOM     10  C   UNL     1       5.774   5.678  15.360  0.00  0.00    +0.000 A 
ATOM     11  C   UNL     1       4.776   6.543  15.668  0.00  0.00    +0.000 A 
ATOM     12  C   UNL     1       4.081   6.353  16.882  0.00  0.00    +0.000 A 
ATOM     13  C   UNL     1       3.249   7.530  17.265  0.00  0.00    +0.000 C 
ATOM     14  C   UNL     1       2.294   7.389  18.433  0.00  0.00    +0.000 C 
ATOM     15  N   UNL     1       2.290   8.661  19.214  0.00  0.00    +0.000 NA
ATOM     16  C   UNL     1       1.986   9.857  18.428  0.00  0.00    +0.000 C 
ATOM     17  C   UNL     1       1.484   8.614  20.441  0.00  0.00    +0.000 C 
ATOM     18  C   UNL     1       0.761   7.289  20.694  0.00  0.00    +0.000 C 
ATOM     19  O   UNL     1       6.600   5.793  14.290  0.00  0.00    +0.000 OA
ATOM     20  C   UNL     1       7.521   4.727  14.568  0.00  0.00    +0.000 C 
ATOM     21  O   UNL     1       7.147   3.930  15.719  0.00  0.00    +0.000 OA
ENDROOT
BRANCH   1  23
ATOM     22  C   UNL     1       1.364   2.194  22.105  0.00  0.00    +0.000 C 
ATOM     23  O   UNL     1       2.579   2.933  21.964  0.00  0.00    +0.000 OA
ENDBRANCH   1  23
BRANCH   6  24
ATOM     24  O   UNL     1       4.373   3.014  19.695  0.00  0.00    +0.000 OA
ATOM     25  C   UNL     1       3.915   1.773  19.173  0.00  0.00    +0.000 C 
ENDBRANCH   6  24
TORSDOF 2
ENDMDL
MODEL 4
REMARK VINA RESULT:      -6.4      2.548      4.501
REMARK  Name = 
REMARK  5 active torsions:
REMARK  status: ('A' for Active; 'I' for Inactive)
REMARK    1  A    between atoms: C_1  and  O_2
REMARK    2  A    between atoms: O_2  and  C_3
REMARK    3  A    between atoms: C_8  and  O_9
REMARK    4  A    between atoms: O_9  and  C_10
REMARK    5  A    between atoms: N_19  and  C_20
REMARK                            x       y       z     vdW  Elec       q    Type
REMARK                         _______ _______ _______ _____ _____    ______ ____
ROOT
ATOM      1  C   UNL     1      -3.069  11.096  17.588  0.00  0.00    +0.000 A 
ATOM      2  C   UNL     1      -4.401  10.726  17.551  0.00  0.00    +0.000 A 
ATOM      3  C   UNL     1      -5.263  11.121  18.554  0.00  0.00    +0.000 A 
ATOM      4  C   UNL     1      -4.807  11.905  19.638  0.00  0.00    +0.000 A 
ATOM      5  C   UNL     1      -3.444  12.303  19.758  0.00  0.00    +0.000 A 
ATOM      6  C   UNL     1      -2.563  11.847  18.705  0.00  0.00    +0.000 A 
ATOM      7  C   UNL     1      -3.059  13.176  20.954  0.00  0.00    +0.000 A 
ATOM      8  C   UNL     1      -1.746  13.573  21.312  0.00  0.00    +0.000 A 
ATOM      9  C   UNL     1      -1.528  14.351  22.455  0.00  0.00    +0.000 A 
ATOM     10  C   UNL     1      -2.556  14.791  23.241  0.00  0.00    +0.000 A 
ATOM     11  C   UNL     1      -3.841  14.469  22.950  0.00  0.00    +0.000 A 
ATOM     12  C   UNL     1      -4.082  13.630  21.839  0.00  0.00    +0.000 A 
ATOM     13  C   UNL     1      -5.470  13.085  21.814  0.00  0.00    +0.000 C 
ATOM     14  C   UNL     1      -5.929  12.339  20.578  0.00  0.00    +0.000 C 
ATOM     15  N   UNL     1      -6.781  11.186  20.994  0.00  0.00    +0.000 NA
ATOM     16  C   UNL     1      -7.917  11.544  21.844  0.00  0.00    +0.000 C 
ATOM     17  C   UNL     1      -7.200  10.313  19.889  0.00  0.00    +0.000 C 
ATOM     18  C   UNL     1      -6.724  10.749  18.501  0.00  0.00    +0.000 C 
ATOM     19  O   UNL     1      -2.159  15.494  24.331  0.00  0.00    +0.000 OA
ATOM     20  C   UNL     1      -0.733  15.383  24.196  0.00  0.00    +0.000 C 
ATOM     21  O   UNL     1      -0.322  14.732  22.969  0.00  0.00    +0.000 OA
ENDROOT
BRANCH   1  23
ATOM     22  C   UNL     1      -2.801  10.522  15.278  0.00  0.00    +0.000 C 
ATOM     23  O   UNL     1      -2.231  10.686  16.578  0.00  0.00    +0.000 OA
ENDBRANCH   1  23
BRANCH   6  24
ATOM     24  O   UNL     1      -1.242  12.221  18.823  0.00  0.00    +0.000 OA
ATOM     25  C   UNL     1      -0.240  11.250  19.095  0.00  0.00    +0.000 C 
ENDBRANCH   6  24
TORSDOF 2
ENDMDL
MODEL 5
REMARK VINA RESULT:      -6.3      2.774      6.419
REMARK  Name = 
REMARK  5 active torsions:
REMARK  status: ('A' for Active; 'I' for Inactive)
REMARK    1  A    between atoms: C_1  and  O_2
REMARK    2  A    between atoms: O_2  and  C_3
REMARK    3  A    between atoms: C_8  and  O_9
REMARK    4  A    between atoms: O_9  and  C_10
REMARK    5  A    between atoms: N_19  and  C_20
REMARK                            x       y       z     vdW  Elec       q    Type
REMARK                         _______ _______ _______ _____ _____    ______ ____
ROOT
ATOM      1  C   UNL     1      -0.004  11.049  21.493  0.00  0.00    +0.000 A 
ATOM      2  C   UNL     1      -0.693  11.880  22.358  0.00  0.00    +0.000 A 
ATOM      3  C   UNL     1      -1.900  12.433  21.983  0.00  0.00    +0.000 A 
ATOM      4  C   UNL     1      -2.456  12.170  20.710  0.00  0.00    +0.000 A 
ATOM      5  C   UNL     1      -1.793  11.345  19.755  0.00  0.00    +0.000 A 
ATOM      6  C   UNL     1      -0.517  10.805  20.171  0.00  0.00    +0.000 A 
ATOM      7  C   UNL     1      -2.495  11.098  18.418  0.00  0.00    +0.000 A 
ATOM      8  C   UNL     1      -1.952  10.413  17.302  0.00  0.00    +0.000 A 
ATOM      9  C   UNL     1      -2.691  10.283  16.121  0.00  0.00    +0.000 A 
ATOM     10  C   UNL     1      -3.964  10.767  16.005  0.00  0.00    +0.000 A 
ATOM     11  C   UNL     1      -4.557  11.418  17.037  0.00  0.00    +0.000 A 
ATOM     12  C   UNL     1      -3.808  11.619  18.217  0.00  0.00    +0.000 A 
ATOM     13  C   UNL     1      -4.431  12.611  19.139  0.00  0.00    +0.000 C 
ATOM     14  C   UNL     1      -3.846  12.773  20.527  0.00  0.00    +0.000 C 
ATOM     15  N   UNL     1      -3.877  14.217  20.902  0.00  0.00    +0.000 NA
ATOM     16  C   UNL     1      -5.197  14.841  20.813  0.00  0.00    +0.000 C 
ATOM     17  C   UNL     1      -3.233  14.523  22.187  0.00  0.00    +0.000 C 
ATOM     18  C   UNL     1      -2.671  13.312  22.935  0.00  0.00    +0.000 C 
ATOM     19  O   UNL     1      -4.514  10.594  14.777  0.00  0.00    +0.000 OA
ATOM     20  C   UNL     1      -3.400  10.008  14.084  0.00  0.00    +0.000 C 
ATOM     21  O   UNL     1      -2.270   9.730  14.946  0.00  0.00    +0.000 OA
ENDROOT
BRANCH   1  23
ATOM     22  C   UNL     1       1.176   9.200  22.455  0.00  0.00    +0.000 C 
ATOM     23  O   UNL     1       1.198  10.513  21.891  0.00  0.00    +0.000 OA
ENDBRANCH   1  23
BRANCH   6  24
ATOM     24  O   UNL     1       0.131  10.016  19.247  0.00  0.00    +0.000 OA
ATOM     25  C   UNL     1       1.321  10.474  18.616  0.00  0.00    +0.000 C 
ENDBRANCH   6  24
TORSDOF 2
ENDMDL
MODEL 6
REMARK VINA RESULT:      -6.2      6.982      9.692
REMARK  Name = 
REMARK  5 active torsions:
REMARK  status: ('A' for Active; 'I' for Inactive)
REMARK    1  A    between atoms: C_1  and  O_2
REMARK    2  A    between atoms: O_2  and  C_3
REMARK    3  A    between atoms: C_8  and  O_9
REMARK    4  A    between atoms: O_9  and  C_10
REMARK    5  A    between atoms: N_19  and  C_20
REMARK                            x       y       z     vdW  Elec       q    Type
REMARK                         _______ _______ _______ _____ _____    ______ ____
ROOT
ATOM      1  C   UNL     1       5.222   4.247  16.362  0.00  0.00    +0.000 A 
ATOM      2  C   UNL     1       4.942   3.114  17.104  0.00  0.00    +0.000 A 
ATOM      3  C   UNL     1       4.048   3.171  18.155  0.00  0.00    +0.000 A 
ATOM      4  C   UNL     1       3.405   4.383  18.498  0.00  0.00    +0.000 A 
ATOM      5  C   UNL     1       3.663   5.596  17.796  0.00  0.00    +0.000 A 
ATOM      6  C   UNL     1       4.626   5.506  16.720  0.00  0.00    +0.000 A 
ATOM      7  C   UNL     1       2.892   6.845  18.227  0.00  0.00    +0.000 A 
ATOM      8  C   UNL     1       3.091   8.162  17.739  0.00  0.00    +0.000 A 
ATOM      9  C   UNL     1       2.336   9.227  18.243  0.00  0.00    +0.000 A 
ATOM     10  C   UNL     1       1.361   9.044  19.182  0.00  0.00    +0.000 A 
ATOM     11  C   UNL     1       1.099   7.811  19.682  0.00  0.00    +0.000 A 
ATOM     12  C   UNL     1       1.892   6.730  19.238  0.00  0.00    +0.000 A 
ATOM     13  C   UNL     1       1.738   5.511  20.082  0.00  0.00    +0.000 C 
ATOM     14  C   UNL     1       2.369   4.219  19.606  0.00  0.00    +0.000 C 
ATOM     15  N   UNL     1       2.925   3.486  20.782  0.00  0.00    +0.000 NA
ATOM     16  C   UNL     1       1.963   3.236  21.854  0.00  0.00    +0.000 C 
ATOM     17  C   UNL     1       3.666   2.265  20.438  0.00  0.00    +0.000 C 
ATOM     18  C   UNL     1       3.713   1.932  18.946  0.00  0.00    +0.000 C 
ATOM     19  O   UNL     1       0.761  10.191  19.590  0.00  0.00    +0.000 OA
ATOM     20  C   UNL     1       1.532  11.153  18.852  0.00  0.00    +0.000 C 
ATOM     21  O   UNL     1       2.476  10.549  17.934  0.00  0.00    +0.000 OA
ENDROOT
BRANCH   1  23
ATOM     22  C   UNL     1       5.586   3.973  14.010  0.00  0.00    +0.000 C 
ATOM     23  O   UNL     1       6.119   4.164  15.322  0.00  0.00    +0.000 OA
ENDBRANCH   1  23
BRANCH   6  24
ATOM     24  O   UNL     1       4.885   6.679  16.046  0.00  0.00    +0.000 OA
ATOM     25  C   UNL     1       6.102   7.382  16.264  0.00  0.00    +0.000 C 
ENDBRANCH   6  24
TORSDOF 2
ENDMDL
MODEL 7
REMARK VINA RESULT:      -6.2      2.805      4.867
REMARK  Name = 
REMARK  5 active torsions:
REMARK  status: ('A' for Active; 'I' for Inactive)
REMARK    1  A    between atoms: C_1  and  O_2
REMARK    2  A    between atoms: O_2  and  C_3
REMARK    3  A    between atoms: C_8  and  O_9
REMARK    4  A    between atoms: O_9  and  C_10
REMARK    5  A    between atoms: N_19  and  C_20
REMARK                            x       y       z     vdW  Elec       q    Type
REMARK                         _______ _______ _______ _____ _____    ______ ____
ROOT
ATOM      1  C   UNL     1      -2.497  11.821  18.708  0.00  0.00    +0.000 A 
ATOM      2  C   UNL     1      -3.812  11.477  18.452  0.00  0.00    +0.000 A 
ATOM      3  C   UNL     1      -4.810  11.820  19.342  0.00  0.00    +0.000 A 
ATOM      4  C   UNL     1      -4.512  12.523  20.532  0.00  0.00    +0.000 A 
ATOM      5  C   UNL     1      -3.179  12.889  20.876  0.00  0.00    +0.000 A 
ATOM      6  C   UNL     1      -2.156  12.489  19.935  0.00  0.00    +0.000 A 
ATOM      7  C   UNL     1      -2.968  13.675  22.172  0.00  0.00    +0.000 A 
ATOM      8  C   UNL     1      -1.719  14.025  22.745  0.00  0.00    +0.000 A 
ATOM      9  C   UNL     1      -1.666  14.722  23.957  0.00  0.00    +0.000 A 
ATOM     10  C   UNL     1      -2.795  15.127  24.612  0.00  0.00    +0.000 A 
ATOM     11  C   UNL     1      -4.025  14.846  24.115  0.00  0.00    +0.000 A 
ATOM     12  C   UNL     1      -4.106  14.086  22.927  0.00  0.00    +0.000 A 
ATOM     13  C   UNL     1      -5.479  13.568  22.662  0.00  0.00    +0.000 C 
ATOM     14  C   UNL     1      -5.757  12.913  21.324  0.00  0.00    +0.000 C 
ATOM     15  N   UNL     1      -6.669  11.750  21.533  0.00  0.00    +0.000 NA
ATOM     16  C   UNL     1      -7.915  12.071  22.229  0.00  0.00    +0.000 C 
ATOM     17  C   UNL     1      -6.927  10.959  20.321  0.00  0.00    +0.000 C 
ATOM     18  C   UNL     1      -6.249  11.477  19.051  0.00  0.00    +0.000 C 
ATOM     19  O   UNL     1      -2.558  15.749  25.794  0.00  0.00    +0.000 OA
ATOM     20  C   UNL     1      -1.128  15.622  25.862  0.00  0.00    +0.000 C 
ATOM     21  O   UNL     1      -0.546  15.048  24.666  0.00  0.00    +0.000 OA
ENDROOT
BRANCH   1  23
ATOM     22  C   UNL     1      -1.488  10.100  17.382  0.00  0.00    +0.000 C 
ATOM     23  O   UNL     1      -1.522  11.465  17.806  0.00  0.00    +0.000 OA
ENDBRANCH   1  23
BRANCH   6  24
ATOM     24  O   UNL     1      -0.864  12.832  20.270  0.00  0.00    +0.000 OA
ATOM     25  C   UNL     1       0.076  11.830  20.638  0.00  0.00    +0.000 C 
ENDBRANCH   6  24
TORSDOF 2
ENDMDL
MODEL 8
REMARK VINA RESULT:      -6.1      7.652     11.607
REMARK  Name = 
REMARK  5 active torsions:
REMARK  status: ('A' for Active; 'I' for Inactive)
REMARK    1  A    between atoms: C_1  and  O_2
REMARK    2  A    between atoms: O_2  and  C_3
REMARK    3  A    between atoms: C_8  and  O_9
REMARK    4  A    between atoms: O_9  and  C_10
REMARK    5  A    between atoms: N_19  and  C_20
REMARK                            x       y       z     vdW  Elec       q    Type
REMARK                         _______ _______ _______ _____ _____    ______ ____
ROOT
ATOM      1  C   UNL     1       1.988   7.269  20.044  0.00  0.00    +0.000 A 
ATOM      2  C   UNL     1       1.526   6.224  20.823  0.00  0.00    +0.000 A 
ATOM      3  C   UNL     1       1.911   4.926  20.551  0.00  0.00    +0.000 A 
ATOM      4  C   UNL     1       2.778   4.636  19.474  0.00  0.00    +0.000 A 
ATOM      5  C   UNL     1       3.275   5.656  18.612  0.00  0.00    +0.000 A 
ATOM      6  C   UNL     1       2.828   7.000  18.907  0.00  0.00    +0.000 A 
ATOM      7  C   UNL     1       4.232   5.239  17.493  0.00  0.00    +0.000 A 
ATOM      8  C   UNL     1       4.736   6.078  16.467  0.00  0.00    +0.000 A 
ATOM      9  C   UNL     1       5.585   5.561  15.481  0.00  0.00    +0.000 A 
ATOM     10  C   UNL     1       5.992   4.256  15.485  0.00  0.00    +0.000 A 
ATOM     11  C   UNL     1       5.567   3.399  16.446  0.00  0.00    +0.000 A 
ATOM     12  C   UNL     1       4.658   3.880  17.415  0.00  0.00    +0.000 A 
ATOM     13  C   UNL     1       4.018   2.788  18.203  0.00  0.00    +0.000 C 
ATOM     14  C   UNL     1       3.181   3.165  19.408  0.00  0.00    +0.000 C 
ATOM     15  N   UNL     1       1.995   2.262  19.477  0.00  0.00    +0.000 NA
ATOM     16  C   UNL     1       2.315   0.835  19.487  0.00  0.00    +0.000 C 
ATOM     17  C   UNL     1       1.040   2.597  20.543  0.00  0.00    +0.000 C 
ATOM     18  C   UNL     1       1.437   3.787  21.419  0.00  0.00    +0.000 C 
ATOM     19  O   UNL     1       6.774   3.916  14.431  0.00  0.00    +0.000 OA
ATOM     20  C   UNL     1       6.755   5.150  13.696  0.00  0.00    +0.000 C 
ATOM     21  O   UNL     1       6.074   6.222  14.392  0.00  0.00    +0.000 OA
ENDROOT
BRANCH   1  23
ATOM     22  C   UNL     1       1.236   8.838  21.689  0.00  0.00    +0.000 C 
ATOM     23  O   UNL     1       1.587   8.551  20.334  0.00  0.00    +0.000 OA
ENDBRANCH   1  23
BRANCH   6  24
ATOM     24  O   UNL     1       3.299   7.987  18.070  0.00  0.00    +0.000 OA
ATOM     25  C   UNL     1       2.402   8.922  17.484  0.00  0.00    +0.000 C 
ENDBRANCH   6  24
TORSDOF 2
ENDMDL
MODEL 9
REMARK VINA RESULT:      -6.1      1.406      5.681
REMARK  Name = 
REMARK  5 active torsions:
REMARK  status: ('A' for Active; 'I' for Inactive)
REMARK    1  A    between atoms: C_1  and  O_2
REMARK    2  A    between atoms: O_2  and  C_3
REMARK    3  A    between atoms: C_8  and  O_9
REMARK    4  A    between atoms: O_9  and  C_10
REMARK    5  A    between atoms: N_19  and  C_20
REMARK                            x       y       z     vdW  Elec       q    Type
REMARK                         _______ _______ _______ _____ _____    ______ ____
ROOT
ATOM      1  C   UNL     1      -4.392  13.496  21.691  0.00  0.00    +0.000 A 
ATOM      2  C   UNL     1      -3.380  13.206  22.588  0.00  0.00    +0.000 A 
ATOM      3  C   UNL     1      -2.315  12.414  22.207  0.00  0.00    +0.000 A 
ATOM      4  C   UNL     1      -2.236  11.881  20.901  0.00  0.00    +0.000 A 
ATOM      5  C   UNL     1      -3.253  12.114  19.930  0.00  0.00    +0.000 A 
ATOM      6  C   UNL     1      -4.368  12.923  20.372  0.00  0.00    +0.000 A 
ATOM      7  C   UNL     1      -3.057  11.516  18.535  0.00  0.00    +0.000 A 
ATOM      8  C   UNL     1      -4.000  11.533  17.477  0.00  0.00    +0.000 A 
ATOM      9  C   UNL     1      -3.706  10.919  16.254  0.00  0.00    +0.000 A 
ATOM     10  C   UNL     1      -2.501  10.320  16.015  0.00  0.00    +0.000 A 
ATOM     11  C   UNL     1      -1.542  10.281  16.972  0.00  0.00    +0.000 A 
ATOM     12  C   UNL     1      -1.839  10.836  18.237  0.00  0.00    +0.000 A 
ATOM     13  C   UNL     1      -0.854  10.449  19.287  0.00  0.00    +0.000 C 
ATOM     14  C   UNL     1      -0.932  11.134  20.636  0.00  0.00    +0.000 C 
ATOM     15  N   UNL     1      -0.638  10.135  21.706  0.00  0.00    +0.000 NA
ATOM     16  C   UNL     1       0.634   9.430  21.547  0.00  0.00    +0.000 C 
ATOM     17  C   UNL     1      -0.792  10.650  23.073  0.00  0.00    +0.000 C 
ATOM     18  C   UNL     1      -1.192  12.123  23.171  0.00  0.00    +0.000 C 
ATOM     19  O   UNL     1      -2.405   9.736  14.794  0.00  0.00    +0.000 OA
ATOM     20  C   UNL     1      -3.736   9.962  14.302  0.00  0.00    +0.000 C 
ATOM     21  O   UNL     1      -4.542  10.781  15.184  0.00  0.00    +0.000 OA
ENDROOT
BRANCH   1  23
ATOM     22  C   UNL     1      -6.320  13.748  23.090  0.00  0.00    +0.000 C 
ATOM     23  O   UNL     1      -5.443  14.284  22.097  0.00  0.00    +0.000 OA
ENDBRANCH   1  23
BRANCH   6  24
ATOM     24  O   UNL     1      -5.358  13.142  19.439  0.00  0.00    +0.000 OA
ATOM     25  C   UNL     1      -6.622  12.503  19.565  0.00  0.00    +0.000 C 
ENDBRANCH   6  24
TORSDOF 2
ENDMDL
