MODEL 1
REMARK VINA RESULT:      -7.2      0.000      0.000
REMARK  Name = 
REMARK  5 active torsions:
REMARK  status: ('A' for Active; 'I' for Inactive)
REMARK    1  A    between atoms: O_1  and  C_2
REMARK    2  A    between atoms: C_9  and  C_10
REMARK    3  A    between atoms: N_11  and  C_12
REMARK    4  A    between atoms: C_12  and  C_13
REMARK    5  A    between atoms: C_13  and  C_14
REMARK                            x       y       z     vdW  Elec       q    Type
REMARK                         _______ _______ _______ _____ _____    ______ ____
ROOT
ATOM      1  C   UNL     1       6.481   5.387  19.358  0.00  0.00    +0.000 C 
ATOM      2  N   UNL     1       7.586   5.101  18.754  0.00  0.00    +0.000 NA
ENDROOT
BRANCH   1  10
ATOM      3  C   UNL     1       4.476   4.006  18.824  0.00  0.00    +0.000 A 
ATOM      4  C   UNL     1       3.151   3.872  18.379  0.00  0.00    +0.000 A 
ATOM      5 BR   UNL     1       2.329   2.167  18.266  0.00  0.00    +0.000 Br
ATOM      6  C   UNL     1       2.410   4.993  18.011  0.00  0.00    +0.000 A 
ATOM      7  C   UNL     1       2.986   6.253  18.135  0.00  0.00    +0.000 A 
ATOM      8 CL   UNL     1       2.083   7.651  17.696  0.00  0.00    +0.000 Cl
ATOM      9  C   UNL     1       4.287   6.396  18.607  0.00  0.00    +0.000 A 
ATOM     10  C   UNL     1       5.066   5.274  18.905  0.00  0.00    +0.000 A 
BRANCH   3  11
ATOM     11  O   UNL     1       5.199   2.898  19.180  0.00  0.00    +0.000 OA
ATOM     12  H   UNL     1       5.042   2.721  20.126  0.00  0.00    +0.000 HD
ENDBRANCH   3  11
ENDBRANCH   1  10
BRANCH   2  13
ATOM     13  C   UNL     1       7.625   4.529  17.413  0.00  0.00    +0.000 C 
BRANCH  13  14
ATOM     14  C   UNL     1       7.275   5.563  16.337  0.00  0.00    +0.000 C 
BRANCH  14  15
ATOM     15  C   UNL     1       6.737   4.940  15.069  0.00  0.00    +0.000 A 
ATOM     16  C   UNL     1       5.479   4.321  15.074  0.00  0.00    +0.000 A 
ATOM     17  C   UNL     1       4.977   3.723  13.919  0.00  0.00    +0.000 A 
ATOM     18  C   UNL     1       5.741   3.730  12.760  0.00  0.00    +0.000 A 
ATOM     19  F   UNL     1       5.262   3.147  11.652  0.00  0.00    +0.000 F 
ATOM     20  C   UNL     1       6.994   4.327  12.731  0.00  0.00    +0.000 A 
ATOM     21  C   UNL     1       7.495   4.936  13.883  0.00  0.00    +0.000 A 
ENDBRANCH  14  15
ENDBRANCH  13  14
ENDBRANCH   2  13
TORSDOF 5
ENDMDL
MODEL 2
REMARK VINA RESULT:      -7.1      0.150      1.088
REMARK  Name = 
REMARK  5 active torsions:
REMARK  status: ('A' for Active; 'I' for Inactive)
REMARK    1  A    between atoms: O_1  and  C_2
REMARK    2  A    between atoms: C_9  and  C_10
REMARK    3  A    between atoms: N_11  and  C_12
REMARK    4  A    between atoms: C_12  and  C_13
REMARK    5  A    between atoms: C_13  and  C_14
REMARK                            x       y       z     vdW  Elec       q    Type
REMARK                         _______ _______ _______ _____ _____    ______ ____
ROOT
ATOM      1  C   UNL     1       6.492   5.436  19.403  0.00  0.00    +0.000 C 
ATOM      2  N   UNL     1       7.588   5.135  18.788  0.00  0.00    +0.000 NA
ENDROOT
BRANCH   1  10
ATOM      3  C   UNL     1       4.479   4.039  18.946  0.00  0.00    +0.000 A 
ATOM      4  C   UNL     1       3.147   3.891  18.526  0.00  0.00    +0.000 A 
ATOM      5 BR   UNL     1       2.324   2.183  18.482  0.00  0.00    +0.000 Br
ATOM      6  C   UNL     1       2.401   4.999  18.134  0.00  0.00    +0.000 A 
ATOM      7  C   UNL     1       2.978   6.263  18.207  0.00  0.00    +0.000 A 
ATOM      8 CL   UNL     1       2.069   7.645  17.737  0.00  0.00    +0.000 Cl
ATOM      9  C   UNL     1       4.287   6.421  18.654  0.00  0.00    +0.000 A 
ATOM     10  C   UNL     1       5.070   5.308  18.976  0.00  0.00    +0.000 A 
BRANCH   3  11
ATOM     11  O   UNL     1       5.209   2.943  19.326  0.00  0.00    +0.000 OA
ATOM     12  H   UNL     1       6.145   3.108  19.108  0.00  0.00    +0.000 HD
ENDBRANCH   3  11
ENDBRANCH   1  10
BRANCH   2  13
ATOM     13  C   UNL     1       7.606   4.527  17.462  0.00  0.00    +0.000 C 
BRANCH  13  14
ATOM     14  C   UNL     1       7.263   5.537  16.362  0.00  0.00    +0.000 C 
BRANCH  14  15
ATOM     15  C   UNL     1       6.798   4.883  15.081  0.00  0.00    +0.000 A 
ATOM     16  C   UNL     1       7.540   5.046  13.904  0.00  0.00    +0.000 A 
ATOM     17  C   UNL     1       7.115   4.469  12.709  0.00  0.00    +0.000 A 
ATOM     18  C   UNL     1       5.934   3.738  12.687  0.00  0.00    +0.000 A 
ATOM     19  F   UNL     1       5.520   3.190  11.537  0.00  0.00    +0.000 F 
ATOM     20  C   UNL     1       5.175   3.570  13.837  0.00  0.00    +0.000 A 
ATOM     21  C   UNL     1       5.605   4.139  15.038  0.00  0.00    +0.000 A 
ENDBRANCH  14  15
ENDBRANCH  13  14
ENDBRANCH   2  13
TORSDOF 5
ENDMDL
MODEL 3
REMARK VINA RESULT:      -7.0      3.908      6.240
REMARK  Name = 
REMARK  5 active torsions:
REMARK  status: ('A' for Active; 'I' for Inactive)
REMARK    1  A    between atoms: O_1  and  C_2
REMARK    2  A    between atoms: C_9  and  C_10
REMARK    3  A    between atoms: N_11  and  C_12
REMARK    4  A    between atoms: C_12  and  C_13
REMARK    5  A    between atoms: C_13  and  C_14
REMARK                            x       y       z     vdW  Elec       q    Type
REMARK                         _______ _______ _______ _____ _____    ______ ____
ROOT
ATOM      1  C   UNL     1       4.450   3.268  18.985  0.00  0.00    +0.000 C 
ATOM      2  N   UNL     1       3.305   3.422  19.565  0.00  0.00    +0.000 NA
ENDROOT
BRANCH   1  10
ATOM      3  C   UNL     1       5.905   5.169  18.289  0.00  0.00    +0.000 A 
ATOM      4  C   UNL     1       6.525   5.954  17.303  0.00  0.00    +0.000 A 
ATOM      5 BR   UNL     1       7.600   7.441  17.777  0.00  0.00    +0.000 Br
ATOM      6  C   UNL     1       6.364   5.652  15.953  0.00  0.00    +0.000 A 
ATOM      7  C   UNL     1       5.616   4.535  15.595  0.00  0.00    +0.000 A 
ATOM      8 CL   UNL     1       5.415   4.140  13.932  0.00  0.00    +0.000 Cl
ATOM      9  C   UNL     1       5.026   3.734  16.568  0.00  0.00    +0.000 A 
ATOM     10  C   UNL     1       5.117   4.071  17.922  0.00  0.00    +0.000 A 
BRANCH   3  11
ATOM     11  O   UNL     1       6.064   5.475  19.615  0.00  0.00    +0.000 OA
ATOM     12  H   UNL     1       7.007   5.372  19.842  0.00  0.00    +0.000 HD
ENDBRANCH   3  11
ENDBRANCH   1  10
BRANCH   2  13
ATOM     13  C   UNL     1       2.413   4.537  19.265  0.00  0.00    +0.000 C 
BRANCH  13  14
ATOM     14  C   UNL     1       2.569   5.683  20.271  0.00  0.00    +0.000 C 
BRANCH  14  15
ATOM     15  C   UNL     1       2.200   7.031  19.694  0.00  0.00    +0.000 A 
ATOM     16  C   UNL     1       1.525   7.968  20.487  0.00  0.00    +0.000 A 
ATOM     17  C   UNL     1       1.157   9.207  19.966  0.00  0.00    +0.000 A 
ATOM     18  C   UNL     1       1.453   9.505  18.642  0.00  0.00    +0.000 A 
ATOM     19  F   UNL     1       1.093  10.693  18.138  0.00  0.00    +0.000 F 
ATOM     20  C   UNL     1       2.112   8.590  17.832  0.00  0.00    +0.000 A 
ATOM     21  C   UNL     1       2.490   7.352  18.356  0.00  0.00    +0.000 A 
ENDBRANCH  14  15
ENDBRANCH  13  14
ENDBRANCH   2  13
TORSDOF 5
ENDMDL
MODEL 4
REMARK VINA RESULT:      -7.0      3.753      6.103
REMARK  Name = 
REMARK  5 active torsions:
REMARK  status: ('A' for Active; 'I' for Inactive)
REMARK    1  A    between atoms: O_1  and  C_2
REMARK    2  A    between atoms: C_9  and  C_10
REMARK    3  A    between atoms: N_11  and  C_12
REMARK    4  A    between atoms: C_12  and  C_13
REMARK    5  A    between atoms: C_13  and  C_14
REMARK                            x       y       z     vdW  Elec       q    Type
REMARK                         _______ _______ _______ _____ _____    ______ ____
ROOT
ATOM      1  C   UNL     1       4.498   3.171  19.011  0.00  0.00    +0.000 C 
ATOM      2  N   UNL     1       3.355   3.257  19.607  0.00  0.00    +0.000 NA
ENDROOT
BRANCH   1  10
ATOM      3  C   UNL     1       5.894   5.112  18.307  0.00  0.00    +0.000 A 
ATOM      4  C   UNL     1       6.459   5.934  17.318  0.00  0.00    +0.000 A 
ATOM      5 BR   UNL     1       7.534   7.423  17.787  0.00  0.00    +0.000 Br
ATOM      6  C   UNL     1       6.240   5.670  15.968  0.00  0.00    +0.000 A 
ATOM      7  C   UNL     1       5.491   4.554  15.611  0.00  0.00    +0.000 A 
ATOM      8 CL   UNL     1       5.219   4.205  13.948  0.00  0.00    +0.000 Cl
ATOM      9  C   UNL     1       4.957   3.716  16.585  0.00  0.00    +0.000 A 
ATOM     10  C   UNL     1       5.105   4.014  17.943  0.00  0.00    +0.000 A 
BRANCH   3  11
ATOM     11  O   UNL     1       6.111   5.380  19.633  0.00  0.00    +0.000 OA
ATOM     12  H   UNL     1       6.827   4.799  19.950  0.00  0.00    +0.000 HD
ENDBRANCH   3  11
ENDBRANCH   1  10
BRANCH   2  13
ATOM     13  C   UNL     1       2.399   4.322  19.326  0.00  0.00    +0.000 C 
BRANCH  13  14
ATOM     14  C   UNL     1       2.577   5.517  20.268  0.00  0.00    +0.000 C 
BRANCH  14  15
ATOM     15  C   UNL     1       2.298   6.845  19.601  0.00  0.00    +0.000 A 
ATOM     16  C   UNL     1       2.744   7.077  18.293  0.00  0.00    +0.000 A 
ATOM     17  C   UNL     1       2.515   8.303  17.671  0.00  0.00    +0.000 A 
ATOM     18  C   UNL     1       1.849   9.306  18.363  0.00  0.00    +0.000 A 
ATOM     19  F   UNL     1       1.636  10.487  17.769  0.00  0.00    +0.000 F 
ATOM     20  C   UNL     1       1.406   9.105  19.663  0.00  0.00    +0.000 A 
ATOM     21  C   UNL     1       1.625   7.874  20.285  0.00  0.00    +0.000 A 
ENDBRANCH  14  15
ENDBRANCH  13  14
ENDBRANCH   2  13
TORSDOF 5
ENDMDL
MODEL 5
REMARK VINA RESULT:      -6.9      3.737      6.016
REMARK  Name = 
REMARK  5 active torsions:
REMARK  status: ('A' for Active; 'I' for Inactive)
REMARK    1  A    between atoms: O_1  and  C_2
REMARK    2  A    between atoms: C_9  and  C_10
REMARK    3  A    between atoms: N_11  and  C_12
REMARK    4  A    between atoms: C_12  and  C_13
REMARK    5  A    between atoms: C_13  and  C_14
REMARK                            x       y       z     vdW  Elec       q    Type
REMARK                         _______ _______ _______ _____ _____    ______ ____
ROOT
ATOM      1  C   UNL     1       4.852   3.085  19.126  0.00  0.00    +0.000 C 
ATOM      2  N   UNL     1       3.815   2.313  19.138  0.00  0.00    +0.000 NA
ENDROOT
BRANCH   1  10
ATOM      3  C   UNL     1       6.167   5.078  18.411  0.00  0.00    +0.000 A 
ATOM      4  C   UNL     1       6.674   5.933  17.420  0.00  0.00    +0.000 A 
ATOM      5 BR   UNL     1       7.722   7.444  17.879  0.00  0.00    +0.000 Br
ATOM      6  C   UNL     1       6.418   5.686  16.073  0.00  0.00    +0.000 A 
ATOM      7  C   UNL     1       5.690   4.554  15.721  0.00  0.00    +0.000 A 
ATOM      8 CL   UNL     1       5.372   4.226  14.062  0.00  0.00    +0.000 Cl
ATOM      9  C   UNL     1       5.213   3.684  16.696  0.00  0.00    +0.000 A 
ATOM     10  C   UNL     1       5.398   3.963  18.054  0.00  0.00    +0.000 A 
BRANCH   3  11
ATOM     11  O   UNL     1       6.420   5.330  19.735  0.00  0.00    +0.000 OA
ATOM     12  H   UNL     1       7.312   5.718  19.807  0.00  0.00    +0.000 HD
ENDBRANCH   3  11
ENDBRANCH   1  10
BRANCH   2  13
ATOM     13  C   UNL     1       2.905   2.198  18.004  0.00  0.00    +0.000 C 
BRANCH  13  14
ATOM     14  C   UNL     1       1.566   2.895  18.268  0.00  0.00    +0.000 C 
BRANCH  14  15
ATOM     15  C   UNL     1       1.724   4.291  18.827  0.00  0.00    +0.000 A 
ATOM     16  C   UNL     1       2.167   5.329  17.997  0.00  0.00    +0.000 A 
ATOM     17  C   UNL     1       2.340   6.617  18.501  0.00  0.00    +0.000 A 
ATOM     18  C   UNL     1       2.082   6.865  19.843  0.00  0.00    +0.000 A 
ATOM     19  F   UNL     1       2.256   8.101  20.330  0.00  0.00    +0.000 F 
ATOM     20  C   UNL     1       1.652   5.851  20.689  0.00  0.00    +0.000 A 
ATOM     21  C   UNL     1       1.469   4.563  20.184  0.00  0.00    +0.000 A 
ENDBRANCH  14  15
ENDBRANCH  13  14
ENDBRANCH   2  13
TORSDOF 5
ENDMDL
MODEL 6
REMARK VINA RESULT:      -6.8      3.735      5.951
REMARK  Name = 
REMARK  5 active torsions:
REMARK  status: ('A' for Active; 'I' for Inactive)
REMARK    1  A    between atoms: O_1  and  C_2
REMARK    2  A    between atoms: C_9  and  C_10
REMARK    3  A    between atoms: N_11  and  C_12
REMARK    4  A    between atoms: C_12  and  C_13
REMARK    5  A    between atoms: C_13  and  C_14
REMARK                            x       y       z     vdW  Elec       q    Type
REMARK                         _______ _______ _______ _____ _____    ______ ____
ROOT
ATOM      1  C   UNL     1       4.838   3.009  19.044  0.00  0.00    +0.000 C 
ATOM      2  N   UNL     1       3.777   2.271  19.060  0.00  0.00    +0.000 NA
ENDROOT
BRANCH   1  10
ATOM      3  C   UNL     1       6.131   5.029  18.365  0.00  0.00    +0.000 A 
ATOM      4  C   UNL     1       6.635   5.903  17.388  0.00  0.00    +0.000 A 
ATOM      5 BR   UNL     1       7.655   7.425  17.876  0.00  0.00    +0.000 Br
ATOM      6  C   UNL     1       6.396   5.667  16.037  0.00  0.00    +0.000 A 
ATOM      7  C   UNL     1       5.689   4.528  15.664  0.00  0.00    +0.000 A 
ATOM      8 CL   UNL     1       5.393   4.214  13.998  0.00  0.00    +0.000 Cl
ATOM      9  C   UNL     1       5.215   3.641  16.625  0.00  0.00    +0.000 A 
ATOM     10  C   UNL     1       5.382   3.907  17.988  0.00  0.00    +0.000 A 
BRANCH   3  11
ATOM     11  O   UNL     1       6.366   5.270  19.694  0.00  0.00    +0.000 OA
ATOM     12  H   UNL     1       7.283   5.589  19.789  0.00  0.00    +0.000 HD
ENDBRANCH   3  11
ENDBRANCH   1  10
BRANCH   2  13
ATOM     13  C   UNL     1       2.832   2.225  17.950  0.00  0.00    +0.000 C 
BRANCH  13  14
ATOM     14  C   UNL     1       1.527   2.958  18.277  0.00  0.00    +0.000 C 
BRANCH  14  15
ATOM     15  C   UNL     1       1.749   4.350  18.825  0.00  0.00    +0.000 A 
ATOM     16  C   UNL     1       1.475   4.622  20.171  0.00  0.00    +0.000 A 
ATOM     17  C   UNL     1       1.653   5.904  20.688  0.00  0.00    +0.000 A 
ATOM     18  C   UNL     1       2.093   6.921  19.852  0.00  0.00    +0.000 A 
ATOM     19  F   UNL     1       2.256   8.156  20.346  0.00  0.00    +0.000 F 
ATOM     20  C   UNL     1       2.362   6.680  18.511  0.00  0.00    +0.000 A 
ATOM     21  C   UNL     1       2.194   5.395  17.994  0.00  0.00    +0.000 A 
ENDBRANCH  14  15
ENDBRANCH  13  14
ENDBRANCH   2  13
TORSDOF 5
ENDMDL
MODEL 7
REMARK VINA RESULT:      -6.8      3.513      5.876
REMARK  Name = 
REMARK  5 active torsions:
REMARK  status: ('A' for Active; 'I' for Inactive)
REMARK    1  A    between atoms: O_1  and  C_2
REMARK    2  A    between atoms: C_9  and  C_10
REMARK    3  A    between atoms: N_11  and  C_12
REMARK    4  A    between atoms: C_12  and  C_13
REMARK    5  A    between atoms: C_13  and  C_14
REMARK                            x       y       z     vdW  Elec       q    Type
REMARK                         _______ _______ _______ _____ _____    ______ ____
ROOT
ATOM      1  C   UNL     1       5.022   3.582  19.524  0.00  0.00    +0.000 C 
ATOM      2  N   UNL     1       3.789   3.515  19.906  0.00  0.00    +0.000 NA
ENDROOT
BRANCH   1  10
ATOM      3  C   UNL     1       5.517   4.028  17.121  0.00  0.00    +0.000 A 
ATOM      4  C   UNL     1       6.135   4.775  16.105  0.00  0.00    +0.000 A 
ATOM      5 BR   UNL     1       5.940   4.288  14.284  0.00  0.00    +0.000 Br
ATOM      6  C   UNL     1       6.905   5.893  16.416  0.00  0.00    +0.000 A 
ATOM      7  C   UNL     1       7.017   6.287  17.746  0.00  0.00    +0.000 A 
ATOM      8 CL   UNL     1       7.955   7.672  18.149  0.00  0.00    +0.000 Cl
ATOM      9  C   UNL     1       6.380   5.572  18.755  0.00  0.00    +0.000 A 
ATOM     10  C   UNL     1       5.668   4.404  18.462  0.00  0.00    +0.000 A 
BRANCH   3  11
ATOM     11  O   UNL     1       4.764   2.926  16.808  0.00  0.00    +0.000 OA
ATOM     12  H   UNL     1       5.340   2.140  16.851  0.00  0.00    +0.000 HD
ENDBRANCH   3  11
ENDBRANCH   1  10
BRANCH   2  13
ATOM     13  C   UNL     1       2.739   4.343  19.325  0.00  0.00    +0.000 C 
BRANCH  13  14
ATOM     14  C   UNL     1       2.340   5.498  20.249  0.00  0.00    +0.000 C 
BRANCH  14  15
ATOM     15  C   UNL     1       2.225   6.822  19.529  0.00  0.00    +0.000 A 
ATOM     16  C   UNL     1       2.789   6.975  18.255  0.00  0.00    +0.000 A 
ATOM     17  C   UNL     1       2.712   8.195  17.586  0.00  0.00    +0.000 A 
ATOM     18  C   UNL     1       2.081   9.270  18.198  0.00  0.00    +0.000 A 
ATOM     19  F   UNL     1       2.015  10.446  17.558  0.00  0.00    +0.000 F 
ATOM     20  C   UNL     1       1.523   9.148  19.463  0.00  0.00    +0.000 A 
ATOM     21  C   UNL     1       1.590   7.923  20.132  0.00  0.00    +0.000 A 
ENDBRANCH  14  15
ENDBRANCH  13  14
ENDBRANCH   2  13
TORSDOF 5
ENDMDL
MODEL 8
REMARK VINA RESULT:      -6.7      5.050      6.309
REMARK  Name = 
REMARK  5 active torsions:
REMARK  status: ('A' for Active; 'I' for Inactive)
REMARK    1  A    between atoms: O_1  and  C_2
REMARK    2  A    between atoms: C_9  and  C_10
REMARK    3  A    between atoms: N_11  and  C_12
REMARK    4  A    between atoms: C_12  and  C_13
REMARK    5  A    between atoms: C_13  and  C_14
REMARK                            x       y       z     vdW  Elec       q    Type
REMARK                         _______ _______ _______ _____ _____    ______ ____
ROOT
ATOM      1  C   UNL     1       6.874   6.130  16.786  0.00  0.00    +0.000 C 
ATOM      2  N   UNL     1       7.733   7.095  16.822  0.00  0.00    +0.000 NA
ENDROOT
BRANCH   1  10
ATOM      3  C   UNL     1       5.311   4.830  18.228  0.00  0.00    +0.000 A 
ATOM      4  C   UNL     1       4.068   4.653  18.857  0.00  0.00    +0.000 A 
ATOM      5 BR   UNL     1       3.716   3.111  19.902  0.00  0.00    +0.000 Br
ATOM      6  C   UNL     1       3.065   5.611  18.726  0.00  0.00    +0.000 A 
ATOM      7  C   UNL     1       3.328   6.768  18.000  0.00  0.00    +0.000 A 
ATOM      8 CL   UNL     1       2.105   7.968  17.836  0.00  0.00    +0.000 Cl
ATOM      9  C   UNL     1       4.569   6.966  17.402  0.00  0.00    +0.000 A 
ATOM     10  C   UNL     1       5.556   5.977  17.462  0.00  0.00    +0.000 A 
BRANCH   3  11
ATOM     11  O   UNL     1       6.291   3.881  18.358  0.00  0.00    +0.000 OA
ATOM     12  H   UNL     1       7.082   4.308  18.737  0.00  0.00    +0.000 HD
ENDBRANCH   3  11
ENDBRANCH   1  10
BRANCH   2  13
ATOM     13  C   UNL     1       7.508   8.323  17.575  0.00  0.00    +0.000 C 
BRANCH  13  14
ATOM     14  C   UNL     1       8.599   8.562  18.624  0.00  0.00    +0.000 C 
BRANCH  14  15
ATOM     15  C   UNL     1       8.962  10.022  18.780  0.00  0.00    +0.000 A 
ATOM     16  C   UNL     1       8.653  10.931  17.760  0.00  0.00    +0.000 A 
ATOM     17  C   UNL     1       9.000  12.276  17.877  0.00  0.00    +0.000 A 
ATOM     18  C   UNL     1       9.669  12.711  19.013  0.00  0.00    +0.000 A 
ATOM     19  F   UNL     1      10.010  14.002  19.123  0.00  0.00    +0.000 F 
ATOM     20  C   UNL     1       9.996  11.828  20.034  0.00  0.00    +0.000 A 
ATOM     21  C   UNL     1       9.641  10.483  19.923  0.00  0.00    +0.000 A 
ENDBRANCH  14  15
ENDBRANCH  13  14
ENDBRANCH   2  13
TORSDOF 5
ENDMDL
MODEL 9
REMARK VINA RESULT:      -6.6      5.056      6.318
REMARK  Name = 
REMARK  5 active torsions:
REMARK  status: ('A' for Active; 'I' for Inactive)
REMARK    1  A    between atoms: O_1  and  C_2
REMARK    2  A    between atoms: C_9  and  C_10
REMARK    3  A    between atoms: N_11  and  C_12
REMARK    4  A    between atoms: C_12  and  C_13
REMARK    5  A    between atoms: C_13  and  C_14
REMARK                            x       y       z     vdW  Elec       q    Type
REMARK                         _______ _______ _______ _____ _____    ______ ____
ROOT
ATOM      1  C   UNL     1       6.806   6.159  16.748  0.00  0.00    +0.000 C 
ATOM      2  N   UNL     1       7.688   7.102  16.802  0.00  0.00    +0.000 NA
ENDROOT
BRANCH   1  10
ATOM      3  C   UNL     1       5.243   4.874  18.204  0.00  0.00    +0.000 A 
ATOM      4  C   UNL     1       4.002   4.708  18.841  0.00  0.00    +0.000 A 
ATOM      5 BR   UNL     1       3.646   3.172  19.893  0.00  0.00    +0.000 Br
ATOM      6  C   UNL     1       3.006   5.672  18.712  0.00  0.00    +0.000 A 
ATOM      7  C   UNL     1       3.271   6.825  17.980  0.00  0.00    +0.000 A 
ATOM      8 CL   UNL     1       2.056   8.032  17.819  0.00  0.00    +0.000 Cl
ATOM      9  C   UNL     1       4.510   7.012  17.374  0.00  0.00    +0.000 A 
ATOM     10  C   UNL     1       5.491   6.016  17.432  0.00  0.00    +0.000 A 
BRANCH   3  11
ATOM     11  O   UNL     1       6.217   3.919  18.332  0.00  0.00    +0.000 OA
ATOM     12  H   UNL     1       6.929   4.281  18.893  0.00  0.00    +0.000 HD
ENDBRANCH   3  11
ENDBRANCH   1  10
BRANCH   2  13
ATOM     13  C   UNL     1       7.498   8.313  17.592  0.00  0.00    +0.000 C 
BRANCH  13  14
ATOM     14  C   UNL     1       8.664   8.560  18.555  0.00  0.00    +0.000 C 
BRANCH  14  15
ATOM     15  C   UNL     1       8.955  10.028  18.770  0.00  0.00    +0.000 A 
ATOM     16  C   UNL     1       9.499  10.461  19.986  0.00  0.00    +0.000 A 
ATOM     17  C   UNL     1       9.753  11.813  20.210  0.00  0.00    +0.000 A 
ATOM     18  C   UNL     1       9.448  12.737  19.220  0.00  0.00    +0.000 A 
ATOM     19  F   UNL     1       9.684  14.038  19.438  0.00  0.00    +0.000 F 
ATOM     20  C   UNL     1       8.899  12.335  18.010  0.00  0.00    +0.000 A 
ATOM     21  C   UNL     1       8.653  10.980  17.779  0.00  0.00    +0.000 A 
ENDBRANCH  14  15
ENDBRANCH  13  14
ENDBRANCH   2  13
TORSDOF 5
ENDMDL
