MODEL 1
REMARK VINA RESULT:      -7.0      0.000      0.000
REMARK  Name = 
REMARK  7 active torsions:
REMARK  status: ('A' for Active; 'I' for Inactive)
REMARK    1  A    between atoms: C_1  and  C_2
REMARK    2  A    between atoms: C_2  and  C_3
REMARK    3  A    between atoms: C_8  and  N_9
REMARK    4  A    between atoms: C_10  and  C_12
REMARK    5  A    between atoms: C_12  and  C_13
REMARK    6  A    between atoms: C_13  and  C_14
REMARK    7  A    between atoms: C_14  and  C_16
REMARK                            x       y       z     vdW  Elec       q    Type
REMARK                         _______ _______ _______ _____ _____    ______ ____
ROOT
ATOM      1  N   UNL     1       5.075   4.996  18.387  0.00  0.00    +0.000 N 
ATOM      2  C   UNL     1       6.363   5.213  18.846  0.00  0.00    +0.000 C 
ATOM      3  O   UNL     1       6.723   5.318  20.016  0.00  0.00    +0.000 OA
ATOM      4  H   UNL     1       5.002   4.674  17.423  0.00  0.00    +0.000 HD
ENDROOT
BRANCH   1  10
ATOM      5  C   UNL     1       3.453   3.687  19.696  0.00  0.00    +0.000 A 
ATOM      6  C   UNL     1       2.317   3.669  20.534  0.00  0.00    +0.000 A 
ATOM      7  C   UNL     1       1.613   4.835  20.826  0.00  0.00    +0.000 A 
ATOM      8  C   UNL     1       2.022   6.039  20.274  0.00  0.00    +0.000 A 
ATOM      9  C   UNL     1       3.145   6.079  19.447  0.00  0.00    +0.000 A 
ATOM     10  C   UNL     1       3.896   4.924  19.172  0.00  0.00    +0.000 A 
BRANCH   5  12
ATOM     11  C   UNL     1       3.588   1.622  18.259  0.00  0.00    +0.000 C 
ATOM     12  C   UNL     1       4.148   2.363  19.465  0.00  0.00    +0.000 C 
ENDBRANCH   5  12
ENDBRANCH   1  10
BRANCH   2  13
ATOM     13  C   UNL     1       7.408   5.249  17.750  0.00  0.00    +0.000 C 
BRANCH  13  14
ATOM     14  C   UNL     1       6.972   4.388  16.567  0.00  0.00    +0.000 C 
BRANCH  14  15
ATOM     15  C   UNL     1       6.433   5.225  15.415  0.00  0.00    +0.000 C 
ATOM     16  O   UNL     1       6.043   6.376  15.627  0.00  0.00    +0.000 OA
BRANCH  15  17
ATOM     17  C   UNL     1       6.444   4.604  14.096  0.00  0.00    +0.000 A 
ATOM     18  C   UNL     1       5.565   3.694  13.535  0.00  0.00    +0.000 A 
ATOM     19  C   UNL     1       5.966   3.281  12.230  0.00  0.00    +0.000 A 
ATOM     20  C   UNL     1       7.120   3.909  11.823  0.00  0.00    +0.000 A 
ATOM     21  S   UNL     1       7.713   4.987  13.006  0.00  0.00    +0.000 S 
ENDBRANCH  15  17
ENDBRANCH  14  15
ENDBRANCH  13  14
ENDBRANCH   2  13
TORSDOF 6
ENDMDL
MODEL 2
REMARK VINA RESULT:      -7.0      3.363      5.674
REMARK  Name = 
REMARK  7 active torsions:
REMARK  status: ('A' for Active; 'I' for Inactive)
REMARK    1  A    between atoms: C_1  and  C_2
REMARK    2  A    between atoms: C_2  and  C_3
REMARK    3  A    between atoms: C_8  and  N_9
REMARK    4  A    between atoms: C_10  and  C_12
REMARK    5  A    between atoms: C_12  and  C_13
REMARK    6  A    between atoms: C_13  and  C_14
REMARK    7  A    between atoms: C_14  and  C_16
REMARK                            x       y       z     vdW  Elec       q    Type
REMARK                         _______ _______ _______ _____ _____    ______ ____
ROOT
ATOM      1  N   UNL     1       2.571   6.048  20.444  0.00  0.00    +0.000 N 
ATOM      2  C   UNL     1       1.803   4.913  20.649  0.00  0.00    +0.000 C 
ATOM      3  O   UNL     1       0.695   4.676  20.177  0.00  0.00    +0.000 OA
ATOM      4  H   UNL     1       3.556   5.960  20.689  0.00  0.00    +0.000 HD
ENDROOT
BRANCH   1  10
ATOM      5  C   UNL     1       1.383   8.198  20.289  0.00  0.00    +0.000 A 
ATOM      6  C   UNL     1       1.097   9.365  19.548  0.00  0.00    +0.000 A 
ATOM      7  C   UNL     1       1.575   9.536  18.251  0.00  0.00    +0.000 A 
ATOM      8  C   UNL     1       2.336   8.536  17.664  0.00  0.00    +0.000 A 
ATOM      9  C   UNL     1       2.634   7.377  18.382  0.00  0.00    +0.000 A 
ATOM     10  C   UNL     1       2.199   7.201  19.706  0.00  0.00    +0.000 A 
BRANCH   5  12
ATOM     11  C   UNL     1       1.070   9.417  22.472  0.00  0.00    +0.000 C 
ATOM     12  C   UNL     1       0.826   8.132  21.695  0.00  0.00    +0.000 C 
ENDBRANCH   5  12
ENDBRANCH   1  10
BRANCH   2  13
ATOM     13  C   UNL     1       2.482   3.858  21.497  0.00  0.00    +0.000 C 
BRANCH  13  14
ATOM     14  C   UNL     1       2.762   2.605  20.670  0.00  0.00    +0.000 C 
BRANCH  14  15
ATOM     15  C   UNL     1       4.195   2.561  20.160  0.00  0.00    +0.000 C 
ATOM     16  O   UNL     1       5.014   1.814  20.702  0.00  0.00    +0.000 OA
BRANCH  15  17
ATOM     17  C   UNL     1       4.505   3.405  19.012  0.00  0.00    +0.000 A 
ATOM     18  C   UNL     1       5.453   4.404  18.874  0.00  0.00    +0.000 A 
ATOM     19  C   UNL     1       5.395   5.039  17.598  0.00  0.00    +0.000 A 
ATOM     20  C   UNL     1       4.429   4.485  16.791  0.00  0.00    +0.000 A 
ATOM     21  S   UNL     1       3.598   3.212  17.568  0.00  0.00    +0.000 S 
ENDBRANCH  15  17
ENDBRANCH  14  15
ENDBRANCH  13  14
ENDBRANCH   2  13
TORSDOF 6
ENDMDL
MODEL 3
REMARK VINA RESULT:      -6.8      2.959      6.044
REMARK  Name = 
REMARK  7 active torsions:
REMARK  status: ('A' for Active; 'I' for Inactive)
REMARK    1  A    between atoms: C_1  and  C_2
REMARK    2  A    between atoms: C_2  and  C_3
REMARK    3  A    between atoms: C_8  and  N_9
REMARK    4  A    between atoms: C_10  and  C_12
REMARK    5  A    between atoms: C_12  and  C_13
REMARK    6  A    between atoms: C_13  and  C_14
REMARK    7  A    between atoms: C_14  and  C_16
REMARK                            x       y       z     vdW  Elec       q    Type
REMARK                         _______ _______ _______ _____ _____    ______ ____
ROOT
ATOM      1  N   UNL     1       4.669   3.303  17.838  0.00  0.00    +0.000 N 
ATOM      2  C   UNL     1       4.364   2.473  18.904  0.00  0.00    +0.000 C 
ATOM      3  O   UNL     1       4.870   2.492  20.023  0.00  0.00    +0.000 OA
ATOM      4  H   UNL     1       3.979   3.323  17.089  0.00  0.00    +0.000 HD
ENDROOT
BRANCH   1  10
ATOM      5  C   UNL     1       6.341   4.604  16.586  0.00  0.00    +0.000 A 
ATOM      6  C   UNL     1       7.290   5.649  16.573  0.00  0.00    +0.000 A 
ATOM      7  C   UNL     1       7.606   6.356  17.731  0.00  0.00    +0.000 A 
ATOM      8  C   UNL     1       6.992   6.021  18.928  0.00  0.00    +0.000 A 
ATOM      9  C   UNL     1       6.048   4.993  18.960  0.00  0.00    +0.000 A 
ATOM     10  C   UNL     1       5.681   4.295  17.798  0.00  0.00    +0.000 A 
BRANCH   5  12
ATOM     11  C   UNL     1       6.695   4.658  14.092  0.00  0.00    +0.000 C 
ATOM     12  C   UNL     1       6.065   3.921  15.264  0.00  0.00    +0.000 C 
ENDBRANCH   5  12
ENDBRANCH   1  10
BRANCH   2  13
ATOM     13  C   UNL     1       3.233   1.505  18.626  0.00  0.00    +0.000 C 
BRANCH  13  14
ATOM     14  C   UNL     1       2.014   2.249  18.084  0.00  0.00    +0.000 C 
BRANCH  14  15
ATOM     15  C   UNL     1       1.400   3.179  19.120  0.00  0.00    +0.000 C 
ATOM     16  O   UNL     1       0.645   2.720  19.981  0.00  0.00    +0.000 OA
BRANCH  15  17
ATOM     17  C   UNL     1       1.782   4.584  19.043  0.00  0.00    +0.000 A 
ATOM     18  C   UNL     1       2.060   5.370  17.938  0.00  0.00    +0.000 A 
ATOM     19  C   UNL     1       2.458   6.692  18.295  0.00  0.00    +0.000 A 
ATOM     20  C   UNL     1       2.441   6.885  19.657  0.00  0.00    +0.000 A 
ATOM     21  S   UNL     1       1.950   5.482  20.496  0.00  0.00    +0.000 S 
ENDBRANCH  15  17
ENDBRANCH  14  15
ENDBRANCH  13  14
ENDBRANCH   2  13
TORSDOF 6
ENDMDL
MODEL 4
REMARK VINA RESULT:      -6.8      1.144      2.070
REMARK  Name = 
REMARK  7 active torsions:
REMARK  status: ('A' for Active; 'I' for Inactive)
REMARK    1  A    between atoms: C_1  and  C_2
REMARK    2  A    between atoms: C_2  and  C_3
REMARK    3  A    between atoms: C_8  and  N_9
REMARK    4  A    between atoms: C_10  and  C_12
REMARK    5  A    between atoms: C_12  and  C_13
REMARK    6  A    between atoms: C_13  and  C_14
REMARK    7  A    between atoms: C_14  and  C_16
REMARK                            x       y       z     vdW  Elec       q    Type
REMARK                         _______ _______ _______ _____ _____    ______ ____
ROOT
ATOM      1  N   UNL     1       4.810   3.691  18.548  0.00  0.00    +0.000 N 
ATOM      2  C   UNL     1       5.873   4.570  18.683  0.00  0.00    +0.000 C 
ATOM      3  O   UNL     1       6.052   5.379  19.589  0.00  0.00    +0.000 OA
ATOM      4  H   UNL     1       4.958   2.923  17.895  0.00  0.00    +0.000 HD
ENDROOT
BRANCH   1  10
ATOM      5  C   UNL     1       2.523   4.383  19.136  0.00  0.00    +0.000 A 
ATOM      6  C   UNL     1       1.385   4.209  19.954  0.00  0.00    +0.000 A 
ATOM      7  C   UNL     1       1.387   3.309  21.017  0.00  0.00    +0.000 A 
ATOM      8  C   UNL     1       2.531   2.577  21.293  0.00  0.00    +0.000 A 
ATOM      9  C   UNL     1       3.665   2.731  20.493  0.00  0.00    +0.000 A 
ATOM     10  C   UNL     1       3.673   3.600  19.391  0.00  0.00    +0.000 A 
BRANCH   5  12
ATOM     11  C   UNL     1       2.608   6.809  18.462  0.00  0.00    +0.000 C 
ATOM     12  C   UNL     1       2.398   5.375  18.000  0.00  0.00    +0.000 C 
ENDBRANCH   5  12
ENDBRANCH   1  10
BRANCH   2  13
ATOM     13  C   UNL     1       6.930   4.425  17.608  0.00  0.00    +0.000 C 
BRANCH  13  14
ATOM     14  C   UNL     1       7.048   5.713  16.796  0.00  0.00    +0.000 C 
BRANCH  14  15
ATOM     15  C   UNL     1       5.949   5.837  15.751  0.00  0.00    +0.000 C 
ATOM     16  O   UNL     1       5.021   6.629  15.932  0.00  0.00    +0.000 OA
BRANCH  15  17
ATOM     17  C   UNL     1       6.089   5.012  14.557  0.00  0.00    +0.000 A 
ATOM     18  C   UNL     1       5.225   4.072  14.020  0.00  0.00    +0.000 A 
ATOM     19  C   UNL     1       5.764   3.434  12.865  0.00  0.00    +0.000 A 
ATOM     20  C   UNL     1       7.006   3.925  12.536  0.00  0.00    +0.000 A 
ATOM     21  S   UNL     1       7.516   5.146  13.614  0.00  0.00    +0.000 S 
ENDBRANCH  15  17
ENDBRANCH  14  15
ENDBRANCH  13  14
ENDBRANCH   2  13
TORSDOF 6
ENDMDL
MODEL 5
REMARK VINA RESULT:      -6.7      1.085      2.273
REMARK  Name = 
REMARK  7 active torsions:
REMARK  status: ('A' for Active; 'I' for Inactive)
REMARK    1  A    between atoms: C_1  and  C_2
REMARK    2  A    between atoms: C_2  and  C_3
REMARK    3  A    between atoms: C_8  and  N_9
REMARK    4  A    between atoms: C_10  and  C_12
REMARK    5  A    between atoms: C_12  and  C_13
REMARK    6  A    between atoms: C_13  and  C_14
REMARK    7  A    between atoms: C_14  and  C_16
REMARK                            x       y       z     vdW  Elec       q    Type
REMARK                         _______ _______ _______ _____ _____    ______ ____
ROOT
ATOM      1  N   UNL     1       4.606   5.288  18.464  0.00  0.00    +0.000 N 
ATOM      2  C   UNL     1       5.907   5.508  18.888  0.00  0.00    +0.000 C 
ATOM      3  O   UNL     1       6.406   5.155  19.953  0.00  0.00    +0.000 OA
ATOM      4  H   UNL     1       4.446   5.410  17.465  0.00  0.00    +0.000 HD
ENDROOT
BRANCH   1  10
ATOM      5  C   UNL     1       2.525   5.451  19.766  0.00  0.00    +0.000 A 
ATOM      6  C   UNL     1       1.468   4.795  20.433  0.00  0.00    +0.000 A 
ATOM      7  C   UNL     1       1.447   3.410  20.574  0.00  0.00    +0.000 A 
ATOM      8  C   UNL     1       2.492   2.654  20.064  0.00  0.00    +0.000 A 
ATOM      9  C   UNL     1       3.544   3.283  19.397  0.00  0.00    +0.000 A 
ATOM     10  C   UNL     1       3.565   4.674  19.205  0.00  0.00    +0.000 A 
BRANCH   5  12
ATOM     11  C   UNL     1       2.167   7.417  18.231  0.00  0.00    +0.000 C 
ATOM     12  C   UNL     1       2.430   6.958  19.658  0.00  0.00    +0.000 C 
ENDBRANCH   5  12
ENDBRANCH   1  10
BRANCH   2  13
ATOM     13  C   UNL     1       6.778   6.201  17.862  0.00  0.00    +0.000 C 
BRANCH  13  14
ATOM     14  C   UNL     1       6.305   5.872  16.447  0.00  0.00    +0.000 C 
BRANCH  14  15
ATOM     15  C   UNL     1       7.148   4.784  15.798  0.00  0.00    +0.000 C 
ATOM     16  O   UNL     1       8.024   4.216  16.455  0.00  0.00    +0.000 OA
BRANCH  15  17
ATOM     17  C   UNL     1       6.833   4.454  14.413  0.00  0.00    +0.000 A 
ATOM     18  C   UNL     1       5.776   3.729  13.891  0.00  0.00    +0.000 A 
ATOM     19  C   UNL     1       5.864   3.580  12.475  0.00  0.00    +0.000 A 
ATOM     20  C   UNL     1       6.964   4.221  11.957  0.00  0.00    +0.000 A 
ATOM     21  S   UNL     1       7.884   4.994  13.169  0.00  0.00    +0.000 S 
ENDBRANCH  15  17
ENDBRANCH  14  15
ENDBRANCH  13  14
ENDBRANCH   2  13
TORSDOF 6
ENDMDL
MODEL 6
REMARK VINA RESULT:      -6.7      2.749      6.211
REMARK  Name = 
REMARK  7 active torsions:
REMARK  status: ('A' for Active; 'I' for Inactive)
REMARK    1  A    between atoms: C_1  and  C_2
REMARK    2  A    between atoms: C_2  and  C_3
REMARK    3  A    between atoms: C_8  and  N_9
REMARK    4  A    between atoms: C_10  and  C_12
REMARK    5  A    between atoms: C_12  and  C_13
REMARK    6  A    between atoms: C_13  and  C_14
REMARK    7  A    between atoms: C_14  and  C_16
REMARK                            x       y       z     vdW  Elec       q    Type
REMARK                         _______ _______ _______ _____ _____    ______ ____
ROOT
ATOM      1  N   UNL     1       4.708   5.563  18.629  0.00  0.00    +0.000 N 
ATOM      2  C   UNL     1       3.405   6.009  18.779  0.00  0.00    +0.000 C 
ATOM      3  O   UNL     1       2.574   6.176  17.891  0.00  0.00    +0.000 OA
ATOM      4  H   UNL     1       5.159   5.234  19.481  0.00  0.00    +0.000 HD
ENDROOT
BRANCH   1  10
ATOM      5  C   UNL     1       6.688   5.743  17.178  0.00  0.00    +0.000 A 
ATOM      6  C   UNL     1       7.340   5.377  15.981  0.00  0.00    +0.000 A 
ATOM      7  C   UNL     1       6.704   4.598  15.017  0.00  0.00    +0.000 A 
ATOM      8  C   UNL     1       5.397   4.184  15.224  0.00  0.00    +0.000 A 
ATOM      9  C   UNL     1       4.736   4.531  16.403  0.00  0.00    +0.000 A 
ATOM     10  C   UNL     1       5.371   5.280  17.408  0.00  0.00    +0.000 A 
BRANCH   5  12
ATOM     11  C   UNL     1       7.756   7.979  17.637  0.00  0.00    +0.000 C 
ATOM     12  C   UNL     1       7.484   6.576  18.159  0.00  0.00    +0.000 C 
ENDBRANCH   5  12
ENDBRANCH   1  10
BRANCH   2  13
ATOM     13  C   UNL     1       2.995   6.233  20.220  0.00  0.00    +0.000 C 
BRANCH  13  14
ATOM     14  C   UNL     1       1.792   5.362  20.576  0.00  0.00    +0.000 C 
BRANCH  14  15
ATOM     15  C   UNL     1       2.200   3.944  20.951  0.00  0.00    +0.000 C 
ATOM     16  O   UNL     1       2.203   3.603  22.136  0.00  0.00    +0.000 OA
BRANCH  15  17
ATOM     17  C   UNL     1       2.539   3.051  19.850  0.00  0.00    +0.000 A 
ATOM     18  C   UNL     1       3.674   2.286  19.643  0.00  0.00    +0.000 A 
ATOM     19  C   UNL     1       3.643   1.589  18.399  0.00  0.00    +0.000 A 
ATOM     20  C   UNL     1       2.475   1.816  17.710  0.00  0.00    +0.000 A 
ATOM     21  S   UNL     1       1.426   2.863  18.557  0.00  0.00    +0.000 S 
ENDBRANCH  15  17
ENDBRANCH  14  15
ENDBRANCH  13  14
ENDBRANCH   2  13
TORSDOF 6
ENDMDL
MODEL 7
REMARK VINA RESULT:      -6.6      1.338      2.459
REMARK  Name = 
REMARK  7 active torsions:
REMARK  status: ('A' for Active; 'I' for Inactive)
REMARK    1  A    between atoms: C_1  and  C_2
REMARK    2  A    between atoms: C_2  and  C_3
REMARK    3  A    between atoms: C_8  and  N_9
REMARK    4  A    between atoms: C_10  and  C_12
REMARK    5  A    between atoms: C_12  and  C_13
REMARK    6  A    between atoms: C_13  and  C_14
REMARK    7  A    between atoms: C_14  and  C_16
REMARK                            x       y       z     vdW  Elec       q    Type
REMARK                         _______ _______ _______ _____ _____    ______ ____
ROOT
ATOM      1  N   UNL     1       4.336   4.985  17.787  0.00  0.00    +0.000 N 
ATOM      2  C   UNL     1       5.509   5.215  18.488  0.00  0.00    +0.000 C 
ATOM      3  O   UNL     1       5.877   4.654  19.516  0.00  0.00    +0.000 OA
ATOM      4  H   UNL     1       4.320   5.340  16.832  0.00  0.00    +0.000 HD
ENDROOT
BRANCH   1  10
ATOM      5  C   UNL     1       2.195   4.571  18.929  0.00  0.00    +0.000 A 
ATOM      6  C   UNL     1       1.134   3.685  19.213  0.00  0.00    +0.000 A 
ATOM      7  C   UNL     1       1.157   2.363  18.776  0.00  0.00    +0.000 A 
ATOM      8  C   UNL     1       2.248   1.897  18.059  0.00  0.00    +0.000 A 
ATOM      9  C   UNL     1       3.305   2.759  17.763  0.00  0.00    +0.000 A 
ATOM     10  C   UNL     1       3.286   4.107  18.157  0.00  0.00    +0.000 A 
BRANCH   5  12
ATOM     11  C   UNL     1       1.694   6.035  20.918  0.00  0.00    +0.000 C 
ATOM     12  C   UNL     1       2.052   5.989  19.440  0.00  0.00    +0.000 C 
ENDBRANCH   5  12
ENDBRANCH   1  10
BRANCH   2  13
ATOM     13  C   UNL     1       6.427   6.226  17.833  0.00  0.00    +0.000 C 
BRANCH  13  14
ATOM     14  C   UNL     1       6.341   6.121  16.312  0.00  0.00    +0.000 C 
BRANCH  14  15
ATOM     15  C   UNL     1       7.167   4.964  15.767  0.00  0.00    +0.000 C 
ATOM     16  O   UNL     1       8.003   4.417  16.492  0.00  0.00    +0.000 OA
BRANCH  15  17
ATOM     17  C   UNL     1       6.886   4.549  14.399  0.00  0.00    +0.000 A 
ATOM     18  C   UNL     1       5.912   3.695  13.911  0.00  0.00    +0.000 A 
ATOM     19  C   UNL     1       6.011   3.501  12.502  0.00  0.00    +0.000 A 
ATOM     20  C   UNL     1       7.036   4.235  11.952  0.00  0.00    +0.000 A 
ATOM     21  S   UNL     1       7.871   5.148  13.127  0.00  0.00    +0.000 S 
ENDBRANCH  15  17
ENDBRANCH  14  15
ENDBRANCH  13  14
ENDBRANCH   2  13
TORSDOF 6
ENDMDL
MODEL 8
REMARK VINA RESULT:      -6.6      2.991      4.947
REMARK  Name = 
REMARK  7 active torsions:
REMARK  status: ('A' for Active; 'I' for Inactive)
REMARK    1  A    between atoms: C_1  and  C_2
REMARK    2  A    between atoms: C_2  and  C_3
REMARK    3  A    between atoms: C_8  and  N_9
REMARK    4  A    between atoms: C_10  and  C_12
REMARK    5  A    between atoms: C_12  and  C_13
REMARK    6  A    between atoms: C_13  and  C_14
REMARK    7  A    between atoms: C_14  and  C_16
REMARK                            x       y       z     vdW  Elec       q    Type
REMARK                         _______ _______ _______ _____ _____    ______ ____
ROOT
ATOM      1  N   UNL     1       2.470   6.839  20.062  0.00  0.00    +0.000 N 
ATOM      2  C   UNL     1       2.470   5.598  19.446  0.00  0.00    +0.000 C 
ATOM      3  O   UNL     1       2.021   5.324  18.337  0.00  0.00    +0.000 OA
ATOM      4  H   UNL     1       3.111   6.937  20.849  0.00  0.00    +0.000 HD
ENDROOT
BRANCH   1  10
ATOM      5  C   UNL     1       0.941   8.747  20.340  0.00  0.00    +0.000 A 
ATOM      6  C   UNL     1       0.437   9.969  19.843  0.00  0.00    +0.000 A 
ATOM      7  C   UNL     1       0.827  10.462  18.601  0.00  0.00    +0.000 A 
ATOM      8  C   UNL     1       1.716   9.736  17.824  0.00  0.00    +0.000 A 
ATOM      9  C   UNL     1       2.230   8.528  18.300  0.00  0.00    +0.000 A 
ATOM     10  C   UNL     1       1.884   8.032  19.567  0.00  0.00    +0.000 A 
BRANCH   5  12
ATOM     11  C   UNL     1       0.449   9.475  22.702  0.00  0.00    +0.000 C 
ATOM     12  C   UNL     1       0.460   8.321  21.711  0.00  0.00    +0.000 C 
ENDBRANCH   5  12
ENDBRANCH   1  10
BRANCH   2  13
ATOM     13  C   UNL     1       3.171   4.517  20.242  0.00  0.00    +0.000 C 
BRANCH  13  14
ATOM     14  C   UNL     1       4.079   3.688  19.335  0.00  0.00    +0.000 C 
BRANCH  14  15
ATOM     15  C   UNL     1       5.332   4.449  18.926  0.00  0.00    +0.000 C 
ATOM     16  O   UNL     1       6.035   4.978  19.790  0.00  0.00    +0.000 OA
BRANCH  15  17
ATOM     17  C   UNL     1       5.642   4.476  17.502  0.00  0.00    +0.000 A 
ATOM     18  C   UNL     1       4.809   4.325  16.407  0.00  0.00    +0.000 A 
ATOM     19  C   UNL     1       5.520   4.355  15.171  0.00  0.00    +0.000 A 
ATOM     20  C   UNL     1       6.867   4.559  15.357  0.00  0.00    +0.000 A 
ATOM     21  S   UNL     1       7.269   4.710  17.009  0.00  0.00    +0.000 S 
ENDBRANCH  15  17
ENDBRANCH  14  15
ENDBRANCH  13  14
ENDBRANCH   2  13
TORSDOF 6
ENDMDL
MODEL 9
REMARK VINA RESULT:      -6.6      2.747      6.158
REMARK  Name = 
REMARK  7 active torsions:
REMARK  status: ('A' for Active; 'I' for Inactive)
REMARK    1  A    between atoms: C_1  and  C_2
REMARK    2  A    between atoms: C_2  and  C_3
REMARK    3  A    between atoms: C_8  and  N_9
REMARK    4  A    between atoms: C_10  and  C_12
REMARK    5  A    between atoms: C_12  and  C_13
REMARK    6  A    between atoms: C_13  and  C_14
REMARK    7  A    between atoms: C_14  and  C_16
REMARK                            x       y       z     vdW  Elec       q    Type
REMARK                         _______ _______ _______ _____ _____    ______ ____
ROOT
ATOM      1  N   UNL     1       4.536   5.594  18.521  0.00  0.00    +0.000 N 
ATOM      2  C   UNL     1       3.263   6.114  18.688  0.00  0.00    +0.000 C 
ATOM      3  O   UNL     1       2.442   6.356  17.807  0.00  0.00    +0.000 OA
ATOM      4  H   UNL     1       4.967   5.215  19.362  0.00  0.00    +0.000 HD
ENDROOT
BRANCH   1  10
ATOM      5  C   UNL     1       6.307   6.048  16.874  0.00  0.00    +0.000 A 
ATOM      6  C   UNL     1       6.963   5.681  15.679  0.00  0.00    +0.000 A 
ATOM      7  C   UNL     1       6.503   4.627  14.894  0.00  0.00    +0.000 A 
ATOM      8  C   UNL     1       5.369   3.929  15.280  0.00  0.00    +0.000 A 
ATOM      9  C   UNL     1       4.709   4.274  16.461  0.00  0.00    +0.000 A 
ATOM     10  C   UNL     1       5.178   5.305  17.290  0.00  0.00    +0.000 A 
BRANCH   5  12
ATOM     11  C   UNL     1       8.002   6.737  18.607  0.00  0.00    +0.000 C 
ATOM     12  C   UNL     1       6.909   7.198  17.654  0.00  0.00    +0.000 C 
ENDBRANCH   5  12
ENDBRANCH   1  10
BRANCH   2  13
ATOM     13  C   UNL     1       2.870   6.323  20.135  0.00  0.00    +0.000 C 
BRANCH  13  14
ATOM     14  C   UNL     1       1.710   5.404  20.513  0.00  0.00    +0.000 C 
BRANCH  14  15
ATOM     15  C   UNL     1       2.183   4.010  20.900  0.00  0.00    +0.000 C 
ATOM     16  O   UNL     1       2.246   3.695  22.091  0.00  0.00    +0.000 OA
BRANCH  15  17
ATOM     17  C   UNL     1       2.510   3.105  19.804  0.00  0.00    +0.000 A 
ATOM     18  C   UNL     1       1.782   2.779  18.674  0.00  0.00    +0.000 A 
ATOM     19  C   UNL     1       2.432   1.797  17.869  0.00  0.00    +0.000 A 
ATOM     20  C   UNL     1       3.650   1.427  18.392  0.00  0.00    +0.000 A 
ATOM     21  S   UNL     1       4.002   2.257  19.842  0.00  0.00    +0.000 S 
ENDBRANCH  15  17
ENDBRANCH  14  15
ENDBRANCH  13  14
ENDBRANCH   2  13
TORSDOF 6
ENDMDL
