MODEL 1
REMARK VINA RESULT:      -7.0      0.000      0.000
REMARK  Name = 
REMARK  15 active torsions:
REMARK  status: ('A' for Active; 'I' for Inactive)
REMARK    1  A    between atoms: C_1  and  C_2
REMARK    2  A    between atoms: C_5  and  C_6
REMARK    3  A    between atoms: C_7  and  C_8
REMARK    4  A    between atoms: C_8  and  N_9
REMARK    5  A    between atoms: C_10  and  C_11
REMARK    6  A    between atoms: C_11  and  C_12
REMARK    7  A    between atoms: C_12  and  C_13
REMARK    8  A    between atoms: C_12  and  C_14
REMARK    9  A    between atoms: C_16  and  C_17
REMARK   10  A    between atoms: C_18  and  C_19
REMARK   11  A    between atoms: C_19  and  O_21
REMARK   12  A    between atoms: O_21  and  C_22
REMARK   13  A    between atoms: C_22  and  C_23
REMARK   14  A    between atoms: C_26  and  C_27
REMARK   15  A    between atoms: C_27  and  O_29
REMARK                            x       y       z     vdW  Elec       q    Type
REMARK                         _______ _______ _______ _____ _____    ______ ____
ROOT
ATOM      1  C   UNL     1      -1.107  11.261  20.389  0.00  0.00    +0.000 A 
ATOM      2  C   UNL     1      -1.102  12.643  20.846  0.00  0.00    +0.000 A 
ATOM      3  C   UNL     1      -0.789  12.891  22.198  0.00  0.00    +0.000 A 
ATOM      4  N   UNL     1      -0.468  11.889  23.053  0.00  0.00    +0.000 NA
ATOM      5  C   UNL     1      -0.348  10.619  22.614  0.00  0.00    +0.000 A 
ATOM      6  C   UNL     1       0.113   9.670  23.683  0.00  0.00    +0.000 C 
ATOM      7  C   UNL     1      -0.648  10.253  21.298  0.00  0.00    +0.000 A 
ENDROOT
BRANCH   1  12
ATOM      8  C   UNL     1      -3.459  10.048  15.142  0.00  0.00    +0.000 C 
ATOM      9  C   UNL     1      -2.854  10.341  16.481  0.00  0.00    +0.000 A 
ATOM     10  C   UNL     1      -1.554   9.944  16.788  0.00  0.00    +0.000 A 
ATOM     11  C   UNL     1      -0.972  10.284  18.020  0.00  0.00    +0.000 A 
ATOM     12  C   UNL     1      -1.694  10.910  19.044  0.00  0.00    +0.000 A 
ATOM     13  C   UNL     1      -3.030  11.247  18.726  0.00  0.00    +0.000 A 
ATOM     14  C   UNL     1      -3.579  11.030  17.452  0.00  0.00    +0.000 A 
ENDBRANCH   1  12
BRANCH   7  15
ATOM     15  C   UNL     1      -0.355   8.841  20.906  0.00  0.00    +0.000 C 
ATOM     16  O   UNL     1      -1.088   7.899  21.131  0.00  0.00    +0.000 OA
BRANCH  15  17
ATOM     17  O   UNL     1       0.766   8.778  20.147  0.00  0.00    +0.000 OA
BRANCH  17  18
ATOM     18  C   UNL     1       1.886   8.088  20.734  0.00  0.00    +0.000 C 
BRANCH  18  19
ATOM     19  C   UNL     1       2.147   6.818  19.966  0.00  0.00    +0.000 A 
ATOM     20  C   UNL     1       2.752   6.859  18.700  0.00  0.00    +0.000 A 
ATOM     21  C   UNL     1       3.006   5.665  18.018  0.00  0.00    +0.000 A 
ATOM     22  C   UNL     1       2.676   4.428  18.592  0.00  0.00    +0.000 A 
ATOM     23  C   UNL     1       2.104   4.384  19.867  0.00  0.00    +0.000 A 
ATOM     24  C   UNL     1       1.847   5.573  20.548  0.00  0.00    +0.000 A 
BRANCH  22  25
ATOM     25  C   UNL     1       2.991   3.191  17.832  0.00  0.00    +0.000 C 
ATOM     26  O   UNL     1       2.182   2.641  17.114  0.00  0.00    +0.000 OA
BRANCH  25  27
ATOM     27  O   UNL     1       4.247   2.734  18.021  0.00  0.00    +0.000 OA
ATOM     28  H   UNL     1       4.383   1.800  17.785  0.00  0.00    +0.000 HD
ENDBRANCH  25  27
ENDBRANCH  22  25
ENDBRANCH  18  19
ENDBRANCH  17  18
ENDBRANCH  15  17
ENDBRANCH   7  15
BRANCH   2  29
ATOM     29  C   UNL     1      -1.502  13.772  19.902  0.00  0.00    +0.000 C 
BRANCH  29  30
ATOM     30  N   UNL     1      -0.507  14.184  18.914  0.00  0.00    +0.000 NA
ATOM     31  H   UNL     1      -0.112  13.363  18.460  0.00  0.00    +0.000 HD
ATOM     32  H   UNL     1       0.284  14.585  19.424  0.00  0.00    +0.000 HD
ENDBRANCH  29  30
ENDBRANCH   2  29
BRANCH   3  33
ATOM     33  C   UNL     1      -0.849  14.228  22.917  0.00  0.00    +0.000 C 
BRANCH  33  34
ATOM     34  C   UNL     1      -1.847  14.219  24.107  0.00  0.00    +0.000 C 
ATOM     35  C   UNL     1      -1.452  15.240  25.174  0.00  0.00    +0.000 C 
ATOM     36  C   UNL     1      -3.291  14.480  23.664  0.00  0.00    +0.000 C 
ENDBRANCH  33  34
ENDBRANCH   3  33
TORSDOF 11
ENDMDL
MODEL 2
REMARK VINA RESULT:      -6.9      2.777      5.587
REMARK  Name = 
REMARK  15 active torsions:
REMARK  status: ('A' for Active; 'I' for Inactive)
REMARK    1  A    between atoms: C_1  and  C_2
REMARK    2  A    between atoms: C_5  and  C_6
REMARK    3  A    between atoms: C_7  and  C_8
REMARK    4  A    between atoms: C_8  and  N_9
REMARK    5  A    between atoms: C_10  and  C_11
REMARK    6  A    between atoms: C_11  and  C_12
REMARK    7  A    between atoms: C_12  and  C_13
REMARK    8  A    between atoms: C_12  and  C_14
REMARK    9  A    between atoms: C_16  and  C_17
REMARK   10  A    between atoms: C_18  and  C_19
REMARK   11  A    between atoms: C_19  and  O_21
REMARK   12  A    between atoms: O_21  and  C_22
REMARK   13  A    between atoms: C_22  and  C_23
REMARK   14  A    between atoms: C_26  and  C_27
REMARK   15  A    between atoms: C_27  and  O_29
REMARK                            x       y       z     vdW  Elec       q    Type
REMARK                         _______ _______ _______ _____ _____    ______ ____
ROOT
ATOM      1  C   UNL     1      -3.469  12.653  20.219  0.00  0.00    +0.000 A 
ATOM      2  C   UNL     1      -4.920  12.557  20.257  0.00  0.00    +0.000 A 
ATOM      3  C   UNL     1      -5.573  11.966  19.156  0.00  0.00    +0.000 A 
ATOM      4  N   UNL     1      -4.885  11.468  18.100  0.00  0.00    +0.000 NA
ATOM      5  C   UNL     1      -3.536  11.439  18.107  0.00  0.00    +0.000 A 
ATOM      6  C   UNL     1      -2.958  10.759  16.898  0.00  0.00    +0.000 C 
ATOM      7  C   UNL     1      -2.783  12.009  19.138  0.00  0.00    +0.000 A 
ENDROOT
BRANCH   1  12
ATOM      8  C   UNL     1      -0.513  15.868  24.151  0.00  0.00    +0.000 C 
ATOM      9  C   UNL     1      -1.279  15.060  23.147  0.00  0.00    +0.000 A 
ATOM     10  C   UNL     1      -1.815  15.649  22.004  0.00  0.00    +0.000 A 
ATOM     11  C   UNL     1      -2.471  14.872  21.036  0.00  0.00    +0.000 A 
ATOM     12  C   UNL     1      -2.739  13.510  21.225  0.00  0.00    +0.000 A 
ATOM     13  C   UNL     1      -2.237  12.952  22.423  0.00  0.00    +0.000 A 
ATOM     14  C   UNL     1      -1.466  13.692  23.333  0.00  0.00    +0.000 A 
ENDBRANCH   1  12
BRANCH   7  15
ATOM     15  C   UNL     1      -1.304  11.799  19.090  0.00  0.00    +0.000 C 
ATOM     16  O   UNL     1      -0.519  12.565  18.567  0.00  0.00    +0.000 OA
BRANCH  15  17
ATOM     17  O   UNL     1      -0.949  10.718  19.825  0.00  0.00    +0.000 OA
BRANCH  17  18
ATOM     18  C   UNL     1       0.418  10.685  20.277  0.00  0.00    +0.000 C 
BRANCH  18  19
ATOM     19  C   UNL     1       1.109   9.483  19.688  0.00  0.00    +0.000 A 
ATOM     20  C   UNL     1       1.540   9.488  18.352  0.00  0.00    +0.000 A 
ATOM     21  C   UNL     1       2.201   8.370  17.835  0.00  0.00    +0.000 A 
ATOM     22  C   UNL     1       2.450   7.249  18.642  0.00  0.00    +0.000 A 
ATOM     23  C   UNL     1       2.050   7.254  19.981  0.00  0.00    +0.000 A 
ATOM     24  C   UNL     1       1.389   8.368  20.499  0.00  0.00    +0.000 A 
BRANCH  22  25
ATOM     25  C   UNL     1       3.177   6.099  18.047  0.00  0.00    +0.000 C 
ATOM     26  O   UNL     1       2.623   5.066  17.731  0.00  0.00    +0.000 OA
BRANCH  25  27
ATOM     27  O   UNL     1       4.503   6.302  17.899  0.00  0.00    +0.000 OA
ATOM     28  H   UNL     1       5.038   6.113  18.689  0.00  0.00    +0.000 HD
ENDBRANCH  25  27
ENDBRANCH  22  25
ENDBRANCH  18  19
ENDBRANCH  17  18
ENDBRANCH  15  17
ENDBRANCH   7  15
BRANCH   2  29
ATOM     29  C   UNL     1      -5.706  13.151  21.422  0.00  0.00    +0.000 C 
BRANCH  29  30
ATOM     30  N   UNL     1      -5.924  12.282  22.576  0.00  0.00    +0.000 NA
ATOM     31  H   UNL     1      -5.710  12.788  23.434  0.00  0.00    +0.000 HD
ATOM     32  H   UNL     1      -5.215  11.546  22.544  0.00  0.00    +0.000 HD
ENDBRANCH  29  30
ENDBRANCH   2  29
BRANCH   3  33
ATOM     33  C   UNL     1      -7.072  11.878  18.925  0.00  0.00    +0.000 C 
BRANCH  33  34
ATOM     34  C   UNL     1      -7.621  13.083  18.113  0.00  0.00    +0.000 C 
ATOM     35  C   UNL     1      -7.916  14.279  19.019  0.00  0.00    +0.000 C 
ATOM     36  C   UNL     1      -6.671  13.517  16.993  0.00  0.00    +0.000 C 
ENDBRANCH  33  34
ENDBRANCH   3  33
TORSDOF 11
ENDMDL
MODEL 3
REMARK VINA RESULT:      -6.9      3.112      4.369
REMARK  Name = 
REMARK  15 active torsions:
REMARK  status: ('A' for Active; 'I' for Inactive)
REMARK    1  A    between atoms: C_1  and  C_2
REMARK    2  A    between atoms: C_5  and  C_6
REMARK    3  A    between atoms: C_7  and  C_8
REMARK    4  A    between atoms: C_8  and  N_9
REMARK    5  A    between atoms: C_10  and  C_11
REMARK    6  A    between atoms: C_11  and  C_12
REMARK    7  A    between atoms: C_12  and  C_13
REMARK    8  A    between atoms: C_12  and  C_14
REMARK    9  A    between atoms: C_16  and  C_17
REMARK   10  A    between atoms: C_18  and  C_19
REMARK   11  A    between atoms: C_19  and  O_21
REMARK   12  A    between atoms: O_21  and  C_22
REMARK   13  A    between atoms: C_22  and  C_23
REMARK   14  A    between atoms: C_26  and  C_27
REMARK   15  A    between atoms: C_27  and  O_29
REMARK                            x       y       z     vdW  Elec       q    Type
REMARK                         _______ _______ _______ _____ _____    ______ ____
ROOT
ATOM      1  C   UNL     1      -4.301  11.850  19.260  0.00  0.00    +0.000 A 
ATOM      2  C   UNL     1      -5.694  11.868  19.680  0.00  0.00    +0.000 A 
ATOM      3  C   UNL     1      -5.976  12.195  21.022  0.00  0.00    +0.000 A 
ATOM      4  N   UNL     1      -4.995  12.518  21.900  0.00  0.00    +0.000 NA
ATOM      5  C   UNL     1      -3.714  12.627  21.494  0.00  0.00    +0.000 A 
ATOM      6  C   UNL     1      -2.790  13.093  22.584  0.00  0.00    +0.000 C 
ATOM      7  C   UNL     1      -3.314  12.312  20.191  0.00  0.00    +0.000 A 
ENDROOT
BRANCH   1  12
ATOM      8  C   UNL     1      -2.784   9.662  14.021  0.00  0.00    +0.000 C 
ATOM      9  C   UNL     1      -3.174  10.204  15.363  0.00  0.00    +0.000 A 
ATOM     10  C   UNL     1      -2.716   9.616  16.540  0.00  0.00    +0.000 A 
ATOM     11  C   UNL     1      -3.031  10.173  17.790  0.00  0.00    +0.000 A 
ATOM     12  C   UNL     1      -3.917  11.249  17.930  0.00  0.00    +0.000 A 
ATOM     13  C   UNL     1      -4.415  11.787  16.721  0.00  0.00    +0.000 A 
ATOM     14  C   UNL     1      -4.002  11.321  15.463  0.00  0.00    +0.000 A 
ENDBRANCH   1  12
BRANCH   7  15
ATOM     15  C   UNL     1      -1.891  12.594  19.835  0.00  0.00    +0.000 C 
ATOM     16  O   UNL     1      -1.467  13.686  19.510  0.00  0.00    +0.000 OA
BRANCH  15  17
ATOM     17  O   UNL     1      -1.116  11.505  20.058  0.00  0.00    +0.000 OA
BRANCH  17  18
ATOM     18  C   UNL     1       0.296  11.681  19.838  0.00  0.00    +0.000 C 
BRANCH  18  19
ATOM     19  C   UNL     1       0.929  10.341  19.566  0.00  0.00    +0.000 A 
ATOM     20  C   UNL     1       1.009   9.369  20.576  0.00  0.00    +0.000 A 
ATOM     21  C   UNL     1       1.579   8.124  20.293  0.00  0.00    +0.000 A 
ATOM     22  C   UNL     1       2.058   7.832  19.006  0.00  0.00    +0.000 A 
ATOM     23  C   UNL     1       1.949   8.787  17.991  0.00  0.00    +0.000 A 
ATOM     24  C   UNL     1       1.383  10.030  18.271  0.00  0.00    +0.000 A 
BRANCH  22  25
ATOM     25  C   UNL     1       2.632   6.486  18.756  0.00  0.00    +0.000 C 
ATOM     26  O   UNL     1       3.361   6.249  17.815  0.00  0.00    +0.000 OA
BRANCH  25  27
ATOM     27  O   UNL     1       2.262   5.553  19.659  0.00  0.00    +0.000 OA
ATOM     28  H   UNL     1       1.649   4.877  19.324  0.00  0.00    +0.000 HD
ENDBRANCH  25  27
ENDBRANCH  22  25
ENDBRANCH  18  19
ENDBRANCH  17  18
ENDBRANCH  15  17
ENDBRANCH   7  15
BRANCH   2  29
ATOM     29  C   UNL     1      -6.800  11.465  18.711  0.00  0.00    +0.000 C 
BRANCH  29  30
ATOM     30  N   UNL     1      -7.572  12.552  18.110  0.00  0.00    +0.000 NA
ATOM     31  H   UNL     1      -8.452  12.666  18.607  0.00  0.00    +0.000 HD
ATOM     32  H   UNL     1      -7.857  12.246  17.176  0.00  0.00    +0.000 HD
ENDBRANCH  29  30
ENDBRANCH   2  29
BRANCH   3  33
ATOM     33  C   UNL     1      -7.332  12.149  21.706  0.00  0.00    +0.000 C 
BRANCH  33  34
ATOM     34  C   UNL     1      -7.917  13.564  21.966  0.00  0.00    +0.000 C 
ATOM     35  C   UNL     1      -7.724  13.990  23.421  0.00  0.00    +0.000 C 
ATOM     36  C   UNL     1      -7.312  14.627  21.042  0.00  0.00    +0.000 C 
ENDBRANCH  33  34
ENDBRANCH   3  33
TORSDOF 11
ENDMDL
MODEL 4
REMARK VINA RESULT:      -6.8      2.680      3.784
REMARK  Name = 
REMARK  15 active torsions:
REMARK  status: ('A' for Active; 'I' for Inactive)
REMARK    1  A    between atoms: C_1  and  C_2
REMARK    2  A    between atoms: C_5  and  C_6
REMARK    3  A    between atoms: C_7  and  C_8
REMARK    4  A    between atoms: C_8  and  N_9
REMARK    5  A    between atoms: C_10  and  C_11
REMARK    6  A    between atoms: C_11  and  C_12
REMARK    7  A    between atoms: C_12  and  C_13
REMARK    8  A    between atoms: C_12  and  C_14
REMARK    9  A    between atoms: C_16  and  C_17
REMARK   10  A    between atoms: C_18  and  C_19
REMARK   11  A    between atoms: C_19  and  O_21
REMARK   12  A    between atoms: O_21  and  C_22
REMARK   13  A    between atoms: C_22  and  C_23
REMARK   14  A    between atoms: C_26  and  C_27
REMARK   15  A    between atoms: C_27  and  O_29
REMARK                            x       y       z     vdW  Elec       q    Type
REMARK                         _______ _______ _______ _____ _____    ______ ____
ROOT
ATOM      1  C   UNL     1      -3.359  12.312  19.773  0.00  0.00    +0.000 A 
ATOM      2  C   UNL     1      -4.603  12.385  20.525  0.00  0.00    +0.000 A 
ATOM      3  C   UNL     1      -4.546  12.854  21.853  0.00  0.00    +0.000 A 
ATOM      4  N   UNL     1      -3.383  13.259  22.419  0.00  0.00    +0.000 NA
ATOM      5  C   UNL     1      -2.246  13.314  21.696  0.00  0.00    +0.000 A 
ATOM      6  C   UNL     1      -1.088  13.884  22.465  0.00  0.00    +0.000 C 
ATOM      7  C   UNL     1      -2.179  12.861  20.374  0.00  0.00    +0.000 A 
ENDROOT
BRANCH   1  12
ATOM      8  C   UNL     1      -3.174   9.572  14.577  0.00  0.00    +0.000 C 
ATOM      9  C   UNL     1      -3.221  10.256  15.911  0.00  0.00    +0.000 A 
ATOM     10  C   UNL     1      -2.402   9.847  16.961  0.00  0.00    +0.000 A 
ATOM     11  C   UNL     1      -2.405  10.538  18.184  0.00  0.00    +0.000 A 
ATOM     12  C   UNL     1      -3.309  11.571  18.459  0.00  0.00    +0.000 A 
ATOM     13  C   UNL     1      -4.171  11.924  17.395  0.00  0.00    +0.000 A 
ATOM     14  C   UNL     1      -4.085  11.328  16.127  0.00  0.00    +0.000 A 
ENDBRANCH   1  12
BRANCH   7  15
ATOM     15  C   UNL     1      -0.896  13.092  19.645  0.00  0.00    +0.000 C 
ATOM     16  O   UNL     1      -0.625  14.107  19.035  0.00  0.00    +0.000 OA
BRANCH  15  17
ATOM     17  O   UNL     1      -0.026  12.078  19.873  0.00  0.00    +0.000 OA
BRANCH  17  18
ATOM     18  C   UNL     1       0.894  11.785  18.805  0.00  0.00    +0.000 C 
BRANCH  18  19
ATOM     19  C   UNL     1       1.301  10.336  18.880  0.00  0.00    +0.000 A 
ATOM     20  C   UNL     1       1.962   9.722  17.805  0.00  0.00    +0.000 A 
ATOM     21  C   UNL     1       2.352   8.383  17.908  0.00  0.00    +0.000 A 
ATOM     22  C   UNL     1       2.101   7.652  19.080  0.00  0.00    +0.000 A 
ATOM     23  C   UNL     1       1.472   8.272  20.163  0.00  0.00    +0.000 A 
ATOM     24  C   UNL     1       1.080   9.606  20.062  0.00  0.00    +0.000 A 
BRANCH  22  25
ATOM     25  C   UNL     1       2.558   6.241  19.142  0.00  0.00    +0.000 C 
ATOM     26  O   UNL     1       2.406   5.462  18.225  0.00  0.00    +0.000 OA
BRANCH  25  27
ATOM     27  O   UNL     1       3.147   5.904  20.310  0.00  0.00    +0.000 OA
ATOM     28  H   UNL     1       2.633   5.295  20.868  0.00  0.00    +0.000 HD
ENDBRANCH  25  27
ENDBRANCH  22  25
ENDBRANCH  18  19
ENDBRANCH  17  18
ENDBRANCH  15  17
ENDBRANCH   7  15
BRANCH   2  29
ATOM     29  C   UNL     1      -5.909  11.892  19.910  0.00  0.00    +0.000 C 
BRANCH  29  30
ATOM     30  N   UNL     1      -6.888  12.915  19.545  0.00  0.00    +0.000 NA
ATOM     31  H   UNL     1      -7.829  12.537  19.630  0.00  0.00    +0.000 HD
ATOM     32  H   UNL     1      -6.785  13.093  18.543  0.00  0.00    +0.000 HD
ENDBRANCH  29  30
ENDBRANCH   2  29
BRANCH   3  33
ATOM     33  C   UNL     1      -5.687  12.892  22.856  0.00  0.00    +0.000 C 
BRANCH  33  34
ATOM     34  C   UNL     1      -6.462  14.237  22.826  0.00  0.00    +0.000 C 
ATOM     35  C   UNL     1      -7.916  14.054  23.260  0.00  0.00    +0.000 C 
ATOM     36  C   UNL     1      -5.804  15.312  23.698  0.00  0.00    +0.000 C 
ENDBRANCH  33  34
ENDBRANCH   3  33
TORSDOF 11
ENDMDL
MODEL 5
REMARK VINA RESULT:      -6.8      1.434      1.761
REMARK  Name = 
REMARK  15 active torsions:
REMARK  status: ('A' for Active; 'I' for Inactive)
REMARK    1  A    between atoms: C_1  and  C_2
REMARK    2  A    between atoms: C_5  and  C_6
REMARK    3  A    between atoms: C_7  and  C_8
REMARK    4  A    between atoms: C_8  and  N_9
REMARK    5  A    between atoms: C_10  and  C_11
REMARK    6  A    between atoms: C_11  and  C_12
REMARK    7  A    between atoms: C_12  and  C_13
REMARK    8  A    between atoms: C_12  and  C_14
REMARK    9  A    between atoms: C_16  and  C_17
REMARK   10  A    between atoms: C_18  and  C_19
REMARK   11  A    between atoms: C_19  and  O_21
REMARK   12  A    between atoms: O_21  and  C_22
REMARK   13  A    between atoms: C_22  and  C_23
REMARK   14  A    between atoms: C_26  and  C_27
REMARK   15  A    between atoms: C_27  and  O_29
REMARK                            x       y       z     vdW  Elec       q    Type
REMARK                         _______ _______ _______ _____ _____    ______ ____
ROOT
ATOM      1  C   UNL     1      -1.256  11.119  19.862  0.00  0.00    +0.000 A 
ATOM      2  C   UNL     1      -1.980  11.913  20.844  0.00  0.00    +0.000 A 
ATOM      3  C   UNL     1      -1.534  11.877  22.181  0.00  0.00    +0.000 A 
ATOM      4  N   UNL     1      -0.447  11.158  22.553  0.00  0.00    +0.000 NA
ATOM      5  C   UNL     1       0.304  10.518  21.634  0.00  0.00    +0.000 A 
ATOM      6  C   UNL     1       1.521   9.862  22.225  0.00  0.00    +0.000 C 
ATOM      7  C   UNL     1      -0.049  10.471  20.282  0.00  0.00    +0.000 A 
ENDROOT
BRANCH   1  12
ATOM      8  C   UNL     1      -3.669  10.208  14.581  0.00  0.00    +0.000 C 
ATOM      9  C   UNL     1      -3.038  10.444  15.921  0.00  0.00    +0.000 A 
ATOM     10  C   UNL     1      -2.281  11.587  16.170  0.00  0.00    +0.000 A 
ATOM     11  C   UNL     1      -1.753  11.833  17.448  0.00  0.00    +0.000 A 
ATOM     12  C   UNL     1      -1.839  10.898  18.488  0.00  0.00    +0.000 A 
ATOM     13  C   UNL     1      -2.562   9.720  18.187  0.00  0.00    +0.000 A 
ATOM     14  C   UNL     1      -3.206   9.525  16.955  0.00  0.00    +0.000 A 
ENDBRANCH   1  12
BRANCH   7  15
ATOM     15  C   UNL     1       0.931   9.839  19.349  0.00  0.00    +0.000 C 
ATOM     16  O   UNL     1       1.522  10.431  18.467  0.00  0.00    +0.000 OA
BRANCH  15  17
ATOM     17  O   UNL     1       1.175   8.555  19.709  0.00  0.00    +0.000 OA
BRANCH  17  18
ATOM     18  C   UNL     1       2.377   7.969  19.174  0.00  0.00    +0.000 C 
BRANCH  18  19
ATOM     19  C   UNL     1       2.201   6.476  19.072  0.00  0.00    +0.000 A 
ATOM     20  C   UNL     1       2.493   5.801  17.876  0.00  0.00    +0.000 A 
ATOM     21  C   UNL     1       2.345   4.412  17.812  0.00  0.00    +0.000 A 
ATOM     22  C   UNL     1       1.921   3.686  18.936  0.00  0.00    +0.000 A 
ATOM     23  C   UNL     1       1.662   4.352  20.137  0.00  0.00    +0.000 A 
ATOM     24  C   UNL     1       1.806   5.737  20.202  0.00  0.00    +0.000 A 
BRANCH  22  25
ATOM     25  C   UNL     1       1.805   2.210  18.818  0.00  0.00    +0.000 C 
ATOM     26  O   UNL     1       1.250   1.528  19.655  0.00  0.00    +0.000 OA
BRANCH  25  27
ATOM     27  O   UNL     1       2.377   1.699  17.708  0.00  0.00    +0.000 OA
ATOM     28  H   UNL     1       1.754   1.351  17.047  0.00  0.00    +0.000 HD
ENDBRANCH  25  27
ENDBRANCH  22  25
ENDBRANCH  18  19
ENDBRANCH  17  18
ENDBRANCH  15  17
ENDBRANCH   7  15
BRANCH   2  29
ATOM     29  C   UNL     1      -3.228  12.692  20.442  0.00  0.00    +0.000 C 
BRANCH  29  30
ATOM     30  N   UNL     1      -3.060  14.126  20.216  0.00  0.00    +0.000 NA
ATOM     31  H   UNL     1      -3.932  14.612  20.417  0.00  0.00    +0.000 HD
ATOM     32  H   UNL     1      -2.929  14.265  19.211  0.00  0.00    +0.000 HD
ENDBRANCH  29  30
ENDBRANCH   2  29
BRANCH   3  33
ATOM     33  C   UNL     1      -2.207  12.517  23.383  0.00  0.00    +0.000 C 
BRANCH  33  34
ATOM     34  C   UNL     1      -1.607  13.906  23.734  0.00  0.00    +0.000 C 
ATOM     35  C   UNL     1      -0.560  14.337  22.706  0.00  0.00    +0.000 C 
ATOM     36  C   UNL     1      -2.678  14.994  23.856  0.00  0.00    +0.000 C 
ENDBRANCH  33  34
ENDBRANCH   3  33
TORSDOF 11
ENDMDL
MODEL 6
REMARK VINA RESULT:      -6.8      1.543      2.092
REMARK  Name = 
REMARK  15 active torsions:
REMARK  status: ('A' for Active; 'I' for Inactive)
REMARK    1  A    between atoms: C_1  and  C_2
REMARK    2  A    between atoms: C_5  and  C_6
REMARK    3  A    between atoms: C_7  and  C_8
REMARK    4  A    between atoms: C_8  and  N_9
REMARK    5  A    between atoms: C_10  and  C_11
REMARK    6  A    between atoms: C_11  and  C_12
REMARK    7  A    between atoms: C_12  and  C_13
REMARK    8  A    between atoms: C_12  and  C_14
REMARK    9  A    between atoms: C_16  and  C_17
REMARK   10  A    between atoms: C_18  and  C_19
REMARK   11  A    between atoms: C_19  and  O_21
REMARK   12  A    between atoms: O_21  and  C_22
REMARK   13  A    between atoms: C_22  and  C_23
REMARK   14  A    between atoms: C_26  and  C_27
REMARK   15  A    between atoms: C_27  and  O_29
REMARK                            x       y       z     vdW  Elec       q    Type
REMARK                         _______ _______ _______ _____ _____    ______ ____
ROOT
ATOM      1  C   UNL     1      -1.218  11.148  19.746  0.00  0.00    +0.000 A 
ATOM      2  C   UNL     1      -1.959  11.869  20.770  0.00  0.00    +0.000 A 
ATOM      3  C   UNL     1      -1.465  11.837  22.090  0.00  0.00    +0.000 A 
ATOM      4  N   UNL     1      -0.320  11.187  22.408  0.00  0.00    +0.000 NA
ATOM      5  C   UNL     1       0.442  10.620  21.450  0.00  0.00    +0.000 A 
ATOM      6  C   UNL     1       1.720  10.039  21.984  0.00  0.00    +0.000 C 
ATOM      7  C   UNL     1       0.045  10.577  20.109  0.00  0.00    +0.000 A 
ENDROOT
BRANCH   1  12
ATOM      8  C   UNL     1      -3.747  10.184  14.529  0.00  0.00    +0.000 C 
ATOM      9  C   UNL     1      -3.088  10.435  15.852  0.00  0.00    +0.000 A 
ATOM     10  C   UNL     1      -2.386  11.613  16.096  0.00  0.00    +0.000 A 
ATOM     11  C   UNL     1      -1.830  11.869  17.360  0.00  0.00    +0.000 A 
ATOM     12  C   UNL     1      -1.833  10.916  18.387  0.00  0.00    +0.000 A 
ATOM     13  C   UNL     1      -2.500   9.705  18.090  0.00  0.00    +0.000 A 
ATOM     14  C   UNL     1      -3.171   9.493  16.876  0.00  0.00    +0.000 A 
ENDBRANCH   1  12
BRANCH   7  15
ATOM     15  C   UNL     1       1.033  10.034  19.130  0.00  0.00    +0.000 C 
ATOM     16  O   UNL     1       1.699  10.716  18.375  0.00  0.00    +0.000 OA
BRANCH  15  17
ATOM     17  O   UNL     1       1.187   8.697  19.295  0.00  0.00    +0.000 OA
BRANCH  17  18
ATOM     18  C   UNL     1       2.239   8.085  18.527  0.00  0.00    +0.000 C 
BRANCH  18  19
ATOM     19  C   UNL     1       2.363   6.635  18.918  0.00  0.00    +0.000 A 
ATOM     20  C   UNL     1       2.115   6.226  20.238  0.00  0.00    +0.000 A 
ATOM     21  C   UNL     1       2.212   4.872  20.572  0.00  0.00    +0.000 A 
ATOM     22  C   UNL     1       2.541   3.917  19.597  0.00  0.00    +0.000 A 
ATOM     23  C   UNL     1       2.755   4.318  18.276  0.00  0.00    +0.000 A 
ATOM     24  C   UNL     1       2.661   5.668  17.941  0.00  0.00    +0.000 A 
BRANCH  22  25
ATOM     25  C   UNL     1       2.606   2.490  20.003  0.00  0.00    +0.000 C 
ATOM     26  O   UNL     1       3.002   2.137  21.094  0.00  0.00    +0.000 OA
BRANCH  25  27
ATOM     27  O   UNL     1       2.197   1.626  19.049  0.00  0.00    +0.000 OA
ATOM     28  H   UNL     1       2.508   0.712  19.161  0.00  0.00    +0.000 HD
ENDBRANCH  25  27
ENDBRANCH  22  25
ENDBRANCH  18  19
ENDBRANCH  17  18
ENDBRANCH  15  17
ENDBRANCH   7  15
BRANCH   2  29
ATOM     29  C   UNL     1      -3.272  12.568  20.428  0.00  0.00    +0.000 C 
BRANCH  29  30
ATOM     30  N   UNL     1      -3.197  14.001  20.148  0.00  0.00    +0.000 NA
ATOM     31  H   UNL     1      -3.953  14.270  19.522  0.00  0.00    +0.000 HD
ATOM     32  H   UNL     1      -2.352  14.162  19.595  0.00  0.00    +0.000 HD
ENDBRANCH  29  30
ENDBRANCH   2  29
BRANCH   3  33
ATOM     33  C   UNL     1      -2.139  12.403  23.329  0.00  0.00    +0.000 C 
BRANCH  33  34
ATOM     34  C   UNL     1      -1.654  13.839  23.666  0.00  0.00    +0.000 C 
ATOM     35  C   UNL     1      -0.573  14.307  22.692  0.00  0.00    +0.000 C 
ATOM     36  C   UNL     1      -2.799  14.857  23.681  0.00  0.00    +0.000 C 
ENDBRANCH  33  34
ENDBRANCH   3  33
TORSDOF 11
ENDMDL
MODEL 7
REMARK VINA RESULT:      -6.7      1.321      1.763
REMARK  Name = 
REMARK  15 active torsions:
REMARK  status: ('A' for Active; 'I' for Inactive)
REMARK    1  A    between atoms: C_1  and  C_2
REMARK    2  A    between atoms: C_5  and  C_6
REMARK    3  A    between atoms: C_7  and  C_8
REMARK    4  A    between atoms: C_8  and  N_9
REMARK    5  A    between atoms: C_10  and  C_11
REMARK    6  A    between atoms: C_11  and  C_12
REMARK    7  A    between atoms: C_12  and  C_13
REMARK    8  A    between atoms: C_12  and  C_14
REMARK    9  A    between atoms: C_16  and  C_17
REMARK   10  A    between atoms: C_18  and  C_19
REMARK   11  A    between atoms: C_19  and  O_21
REMARK   12  A    between atoms: O_21  and  C_22
REMARK   13  A    between atoms: C_22  and  C_23
REMARK   14  A    between atoms: C_26  and  C_27
REMARK   15  A    between atoms: C_27  and  O_29
REMARK                            x       y       z     vdW  Elec       q    Type
REMARK                         _______ _______ _______ _____ _____    ______ ____
ROOT
ATOM      1  C   UNL     1      -0.981  11.210  20.453  0.00  0.00    +0.000 A 
ATOM      2  C   UNL     1      -0.953  12.592  20.905  0.00  0.00    +0.000 A 
ATOM      3  C   UNL     1      -0.675  12.838  22.265  0.00  0.00    +0.000 A 
ATOM      4  N   UNL     1      -0.409  11.832  23.133  0.00  0.00    +0.000 NA
ATOM      5  C   UNL     1      -0.309  10.558  22.703  0.00  0.00    +0.000 A 
ATOM      6  C   UNL     1       0.093   9.601  23.790  0.00  0.00    +0.000 C 
ATOM      7  C   UNL     1      -0.578  10.193  21.379  0.00  0.00    +0.000 A 
ENDROOT
BRANCH   1  12
ATOM      8  C   UNL     1      -3.071   9.727  15.164  0.00  0.00    +0.000 C 
ATOM      9  C   UNL     1      -2.544  10.122  16.511  0.00  0.00    +0.000 A 
ATOM     10  C   UNL     1      -3.331  10.832  17.414  0.00  0.00    +0.000 A 
ATOM     11  C   UNL     1      -2.853  11.137  18.699  0.00  0.00    +0.000 A 
ATOM     12  C   UNL     1      -1.535  10.868  19.091  0.00  0.00    +0.000 A 
ATOM     13  C   UNL     1      -0.740  10.200  18.132  0.00  0.00    +0.000 A 
ATOM     14  C   UNL     1      -1.250   9.775  16.895  0.00  0.00    +0.000 A 
ENDBRANCH   1  12
BRANCH   7  15
ATOM     15  C   UNL     1      -0.310   8.773  21.002  0.00  0.00    +0.000 C 
ATOM     16  O   UNL     1      -1.148   7.892  21.004  0.00  0.00    +0.000 OA
BRANCH  15  17
ATOM     17  O   UNL     1       0.951   8.633  20.526  0.00  0.00    +0.000 OA
BRANCH  17  18
ATOM     18  C   UNL     1       1.599   7.381  20.819  0.00  0.00    +0.000 C 
BRANCH  18  19
ATOM     19  C   UNL     1       2.442   6.968  19.641  0.00  0.00    +0.000 A 
ATOM     20  C   UNL     1       2.530   7.785  18.503  0.00  0.00    +0.000 A 
ATOM     21  C   UNL     1       3.339   7.394  17.431  0.00  0.00    +0.000 A 
ATOM     22  C   UNL     1       4.074   6.199  17.489  0.00  0.00    +0.000 A 
ATOM     23  C   UNL     1       4.014   5.401  18.635  0.00  0.00    +0.000 A 
ATOM     24  C   UNL     1       3.206   5.789  19.704  0.00  0.00    +0.000 A 
BRANCH  22  25
ATOM     25  C   UNL     1       4.935   5.844  16.332  0.00  0.00    +0.000 C 
ATOM     26  O   UNL     1       5.045   4.707  15.923  0.00  0.00    +0.000 OA
BRANCH  25  27
ATOM     27  O   UNL     1       5.586   6.894  15.788  0.00  0.00    +0.000 OA
ATOM     28  H   UNL     1       5.234   7.198  14.934  0.00  0.00    +0.000 HD
ENDBRANCH  25  27
ENDBRANCH  22  25
ENDBRANCH  18  19
ENDBRANCH  17  18
ENDBRANCH  15  17
ENDBRANCH   7  15
BRANCH   2  29
ATOM     29  C   UNL     1      -1.293  13.728  19.944  0.00  0.00    +0.000 C 
BRANCH  29  30
ATOM     30  N   UNL     1      -2.581  14.389  20.142  0.00  0.00    +0.000 NA
ATOM     31  H   UNL     1      -2.982  14.639  19.240  0.00  0.00    +0.000 HD
ATOM     32  H   UNL     1      -2.398  15.292  20.586  0.00  0.00    +0.000 HD
ENDBRANCH  29  30
ENDBRANCH   2  29
BRANCH   3  33
ATOM     33  C   UNL     1      -0.722  14.180  22.976  0.00  0.00    +0.000 C 
BRANCH  33  34
ATOM     34  C   UNL     1      -1.814  14.231  24.079  0.00  0.00    +0.000 C 
ATOM     35  C   UNL     1      -2.008  15.653  24.607  0.00  0.00    +0.000 C 
ATOM     36  C   UNL     1      -3.160  13.680  23.598  0.00  0.00    +0.000 C 
ENDBRANCH  33  34
ENDBRANCH   3  33
TORSDOF 11
ENDMDL
MODEL 8
REMARK VINA RESULT:      -6.7      1.183      1.536
REMARK  Name = 
REMARK  15 active torsions:
REMARK  status: ('A' for Active; 'I' for Inactive)
REMARK    1  A    between atoms: C_1  and  C_2
REMARK    2  A    between atoms: C_5  and  C_6
REMARK    3  A    between atoms: C_7  and  C_8
REMARK    4  A    between atoms: C_8  and  N_9
REMARK    5  A    between atoms: C_10  and  C_11
REMARK    6  A    between atoms: C_11  and  C_12
REMARK    7  A    between atoms: C_12  and  C_13
REMARK    8  A    between atoms: C_12  and  C_14
REMARK    9  A    between atoms: C_16  and  C_17
REMARK   10  A    between atoms: C_18  and  C_19
REMARK   11  A    between atoms: C_19  and  O_21
REMARK   12  A    between atoms: O_21  and  C_22
REMARK   13  A    between atoms: C_22  and  C_23
REMARK   14  A    between atoms: C_26  and  C_27
REMARK   15  A    between atoms: C_27  and  O_29
REMARK                            x       y       z     vdW  Elec       q    Type
REMARK                         _______ _______ _______ _____ _____    ______ ____
ROOT
ATOM      1  C   UNL     1      -1.511  11.288  20.268  0.00  0.00    +0.000 A 
ATOM      2  C   UNL     1      -2.176  12.296  21.080  0.00  0.00    +0.000 A 
ATOM      3  C   UNL     1      -1.896  12.322  22.462  0.00  0.00    +0.000 A 
ATOM      4  N   UNL     1      -1.013  11.465  23.029  0.00  0.00    +0.000 NA
ATOM      5  C   UNL     1      -0.297  10.610  22.270  0.00  0.00    +0.000 A 
ATOM      6  C   UNL     1       0.701   9.816  23.063  0.00  0.00    +0.000 C 
ATOM      7  C   UNL     1      -0.501  10.485  20.891  0.00  0.00    +0.000 A 
ENDROOT
BRANCH   1  12
ATOM      8  C   UNL     1      -3.139  10.331  14.703  0.00  0.00    +0.000 C 
ATOM      9  C   UNL     1      -2.740  10.572  16.128  0.00  0.00    +0.000 A 
ATOM     10  C   UNL     1      -3.124   9.698  17.143  0.00  0.00    +0.000 A 
ATOM     11  C   UNL     1      -2.687   9.894  18.463  0.00  0.00    +0.000 A 
ATOM     12  C   UNL     1      -1.968  11.032  18.853  0.00  0.00    +0.000 A 
ATOM     13  C   UNL     1      -1.645  11.933  17.812  0.00  0.00    +0.000 A 
ATOM     14  C   UNL     1      -1.964  11.678  16.469  0.00  0.00    +0.000 A 
ENDBRANCH   1  12
BRANCH   7  15
ATOM     15  C   UNL     1       0.441   9.596  20.147  0.00  0.00    +0.000 C 
ATOM     16  O   UNL     1       1.253   9.984  19.330  0.00  0.00    +0.000 OA
BRANCH  15  17
ATOM     17  O   UNL     1       0.363   8.323  20.608  0.00  0.00    +0.000 OA
BRANCH  17  18
ATOM     18  C   UNL     1       1.602   7.738  21.051  0.00  0.00    +0.000 C 
BRANCH  18  19
ATOM     19  C   UNL     1       1.935   6.556  20.178  0.00  0.00    +0.000 A 
ATOM     20  C   UNL     1       2.532   6.741  18.921  0.00  0.00    +0.000 A 
ATOM     21  C   UNL     1       2.854   5.627  18.139  0.00  0.00    +0.000 A 
ATOM     22  C   UNL     1       2.599   4.328  18.604  0.00  0.00    +0.000 A 
ATOM     23  C   UNL     1       2.035   4.141  19.869  0.00  0.00    +0.000 A 
ATOM     24  C   UNL     1       1.711   5.250  20.650  0.00  0.00    +0.000 A 
BRANCH  22  25
ATOM     25  C   UNL     1       2.984   3.182  17.742  0.00  0.00    +0.000 C 
ATOM     26  O   UNL     1       2.197   2.623  17.007  0.00  0.00    +0.000 OA
BRANCH  25  27
ATOM     27  O   UNL     1       4.278   2.816  17.857  0.00  0.00    +0.000 OA
ATOM     28  H   UNL     1       4.917   3.548  17.819  0.00  0.00    +0.000 HD
ENDBRANCH  25  27
ENDBRANCH  22  25
ENDBRANCH  18  19
ENDBRANCH  17  18
ENDBRANCH  15  17
ENDBRANCH   7  15
BRANCH   2  29
ATOM     29  C   UNL     1      -3.204  13.237  20.459  0.00  0.00    +0.000 C 
BRANCH  29  30
ATOM     30  N   UNL     1      -2.773  14.614  20.225  0.00  0.00    +0.000 NA
ATOM     31  H   UNL     1      -1.765  14.684  20.343  0.00  0.00    +0.000 HD
ATOM     32  H   UNL     1      -3.149  15.186  20.984  0.00  0.00    +0.000 HD
ENDBRANCH  29  30
ENDBRANCH   2  29
BRANCH   3  33
ATOM     33  C   UNL     1      -2.567  13.193  23.511  0.00  0.00    +0.000 C 
BRANCH  33  34
ATOM     34  C   UNL     1      -4.103  12.974  23.573  0.00  0.00    +0.000 C 
ATOM     35  C   UNL     1      -4.511  12.235  24.847  0.00  0.00    +0.000 C 
ATOM     36  C   UNL     1      -4.887  14.287  23.475  0.00  0.00    +0.000 C 
ENDBRANCH  33  34
ENDBRANCH   3  33
TORSDOF 11
ENDMDL
MODEL 9
REMARK VINA RESULT:      -6.7      2.910      4.181
REMARK  Name = 
REMARK  15 active torsions:
REMARK  status: ('A' for Active; 'I' for Inactive)
REMARK    1  A    between atoms: C_1  and  C_2
REMARK    2  A    between atoms: C_5  and  C_6
REMARK    3  A    between atoms: C_7  and  C_8
REMARK    4  A    between atoms: C_8  and  N_9
REMARK    5  A    between atoms: C_10  and  C_11
REMARK    6  A    between atoms: C_11  and  C_12
REMARK    7  A    between atoms: C_12  and  C_13
REMARK    8  A    between atoms: C_12  and  C_14
REMARK    9  A    between atoms: C_16  and  C_17
REMARK   10  A    between atoms: C_18  and  C_19
REMARK   11  A    between atoms: C_19  and  O_21
REMARK   12  A    between atoms: O_21  and  C_22
REMARK   13  A    between atoms: C_22  and  C_23
REMARK   14  A    between atoms: C_26  and  C_27
REMARK   15  A    between atoms: C_27  and  O_29
REMARK                            x       y       z     vdW  Elec       q    Type
REMARK                         _______ _______ _______ _____ _____    ______ ____
ROOT
ATOM      1  C   UNL     1      -3.953  11.857  18.949  0.00  0.00    +0.000 A 
ATOM      2  C   UNL     1      -5.317  11.899  19.455  0.00  0.00    +0.000 A 
ATOM      3  C   UNL     1      -5.516  12.323  20.785  0.00  0.00    +0.000 A 
ATOM      4  N   UNL     1      -4.484  12.713  21.573  0.00  0.00    +0.000 NA
ATOM      5  C   UNL     1      -3.232  12.797  21.079  0.00  0.00    +0.000 A 
ATOM      6  C   UNL     1      -2.246  13.345  22.071  0.00  0.00    +0.000 C 
ATOM      7  C   UNL     1      -2.913  12.390  19.779  0.00  0.00    +0.000 A 
ENDROOT
BRANCH   1  12
ATOM      8  C   UNL     1      -2.722   9.295  13.806  0.00  0.00    +0.000 C 
ATOM      9  C   UNL     1      -3.042   9.933  15.124  0.00  0.00    +0.000 A 
ATOM     10  C   UNL     1      -2.701   9.317  16.326  0.00  0.00    +0.000 A 
ATOM     11  C   UNL     1      -2.943   9.955  17.553  0.00  0.00    +0.000 A 
ATOM     12  C   UNL     1      -3.650  11.161  17.645  0.00  0.00    +0.000 A 
ATOM     13  C   UNL     1      -4.038  11.733  16.411  0.00  0.00    +0.000 A 
ATOM     14  C   UNL     1      -3.684  11.169  15.175  0.00  0.00    +0.000 A 
ENDBRANCH   1  12
BRANCH   7  15
ATOM     15  C   UNL     1      -1.518  12.651  19.312  0.00  0.00    +0.000 C 
ATOM     16  O   UNL     1      -0.990  13.745  19.305  0.00  0.00    +0.000 OA
BRANCH  15  17
ATOM     17  O   UNL     1      -0.881  11.488  19.034  0.00  0.00    +0.000 OA
BRANCH  17  18
ATOM     18  C   UNL     1      -0.240  10.838  20.148  0.00  0.00    +0.000 C 
BRANCH  18  19
ATOM     19  C   UNL     1       0.674   9.756  19.637  0.00  0.00    +0.000 A 
ATOM     20  C   UNL     1       1.130   8.741  20.492  0.00  0.00    +0.000 A 
ATOM     21  C   UNL     1       1.958   7.733  19.989  0.00  0.00    +0.000 A 
ATOM     22  C   UNL     1       2.325   7.718  18.634  0.00  0.00    +0.000 A 
ATOM     23  C   UNL     1       1.845   8.710  17.774  0.00  0.00    +0.000 A 
ATOM     24  C   UNL     1       1.021   9.717  18.274  0.00  0.00    +0.000 A 
BRANCH  22  25
ATOM     25  C   UNL     1       3.187   6.611  18.149  0.00  0.00    +0.000 C 
ATOM     26  O   UNL     1       2.905   5.442  18.313  0.00  0.00    +0.000 OA
BRANCH  25  27
ATOM     27  O   UNL     1       4.310   7.021  17.521  0.00  0.00    +0.000 OA
ATOM     28  H   UNL     1       4.565   6.490  16.748  0.00  0.00    +0.000 HD
ENDBRANCH  25  27
ENDBRANCH  22  25
ENDBRANCH  18  19
ENDBRANCH  17  18
ENDBRANCH  15  17
ENDBRANCH   7  15
BRANCH   2  29
ATOM     29  C   UNL     1      -6.479  11.422  18.590  0.00  0.00    +0.000 C 
BRANCH  29  30
ATOM     30  N   UNL     1      -7.254  12.456  17.906  0.00  0.00    +0.000 NA
ATOM     31  H   UNL     1      -6.724  13.325  17.883  0.00  0.00    +0.000 HD
ATOM     32  H   UNL     1      -8.060  12.676  18.495  0.00  0.00    +0.000 HD
ENDBRANCH  29  30
ENDBRANCH   2  29
BRANCH   3  33
ATOM     33  C   UNL     1      -6.825  12.321  21.555  0.00  0.00    +0.000 C 
BRANCH  33  34
ATOM     34  C   UNL     1      -6.866  13.409  22.663  0.00  0.00    +0.000 C 
ATOM     35  C   UNL     1      -7.552  14.683  22.170  0.00  0.00    +0.000 C 
ATOM     36  C   UNL     1      -7.559  12.920  23.940  0.00  0.00    +0.000 C 
ENDBRANCH  33  34
ENDBRANCH   3  33
TORSDOF 11
ENDMDL
