MODEL 1
REMARK VINA RESULT:      -7.6      0.000      0.000
REMARK  Name = 
REMARK  5 active torsions:
REMARK  status: ('A' for Active; 'I' for Inactive)
REMARK    1  A    between atoms: C_1  and  C_2
REMARK    2  A    between atoms: C_7  and  N_8
REMARK    3  A    between atoms: C_11  and  C_12
REMARK    4  A    between atoms: N_17  and  C_18
REMARK    5  A    between atoms: C_18  and  C_19
REMARK                            x       y       z     vdW  Elec       q    Type
REMARK                         _______ _______ _______ _____ _____    ______ ____
ROOT
ATOM      1  C   UNL     1       1.201   9.122  20.195  0.00  0.00    +0.000 C 
ATOM      2  O   UNL     1       1.042   9.348  21.398  0.00  0.00    +0.000 OA
ATOM      3  N   UNL     1       1.709   7.908  19.743  0.00  0.00    +0.000 N 
ATOM      4  C   UNL     1       1.952   6.868  20.742  0.00  0.00    +0.000 C 
ATOM      5  C   UNL     1       2.008   5.451  20.141  0.00  0.00    +0.000 C 
ATOM      6  N   UNL     1       2.870   5.289  18.953  0.00  0.00    +0.000 NA
ATOM      7  C   UNL     1       2.511   6.321  17.960  0.00  0.00    +0.000 C 
ATOM      8  C   UNL     1       2.455   7.769  18.487  0.00  0.00    +0.000 C 
ENDROOT
BRANCH   1  12
ATOM      9  N   UNL     1      -0.587  11.749  20.178  0.00  0.00    +0.000 N 
ATOM     10  C   UNL     1       0.762  12.216  20.369  0.00  0.00    +0.000 C 
ATOM     11  C   UNL     1       1.529  11.480  19.280  0.00  0.00    +0.000 C 
ATOM     12  C   UNL     1       0.778  10.145  19.151  0.00  0.00    +0.000 C 
ATOM     13  C   UNL     1      -0.642  10.583  19.420  0.00  0.00    +0.000 C 
ATOM     14  O   UNL     1      -1.642   9.992  19.040  0.00  0.00    +0.000 OA
BRANCH   9  21
ATOM     15  C   UNL     1      -0.934  10.936  23.038  0.00  0.00    +0.000 C 
ATOM     16  C   UNL     1      -1.891  11.811  22.275  0.00  0.00    +0.000 A 
ATOM     17  C   UNL     1      -3.039  12.281  22.934  0.00  0.00    +0.000 A 
ATOM     18  C   UNL     1      -3.929  13.145  22.299  0.00  0.00    +0.000 A 
ATOM     19  C   UNL     1      -3.675  13.577  21.000  0.00  0.00    +0.000 A 
ATOM     20  C   UNL     1      -2.533  13.133  20.335  0.00  0.00    +0.000 A 
ATOM     21  C   UNL     1      -1.659  12.233  20.949  0.00  0.00    +0.000 A 
ENDBRANCH   9  21
ENDBRANCH   1  12
BRANCH   6  22
ATOM     22  C   UNL     1       4.309   5.296  19.262  0.00  0.00    +0.000 C 
BRANCH  22  23
ATOM     23  C   UNL     1       5.226   5.123  18.061  0.00  0.00    +0.000 A 
ATOM     24  C   UNL     1       5.046   4.095  17.121  0.00  0.00    +0.000 A 
ATOM     25  C   UNL     1       5.894   3.978  16.016  0.00  0.00    +0.000 A 
ATOM     26  C   UNL     1       6.917   4.902  15.818  0.00  0.00    +0.000 A 
ATOM     27  C   UNL     1       7.084   5.951  16.718  0.00  0.00    +0.000 A 
ATOM     28  C   UNL     1       6.242   6.064  17.828  0.00  0.00    +0.000 A 
ENDBRANCH  22  23
ENDBRANCH   6  22
TORSDOF 4
ENDMDL
MODEL 2
REMARK VINA RESULT:      -7.2      2.550      4.641
REMARK  Name = 
REMARK  5 active torsions:
REMARK  status: ('A' for Active; 'I' for Inactive)
REMARK    1  A    between atoms: C_1  and  C_2
REMARK    2  A    between atoms: C_7  and  N_8
REMARK    3  A    between atoms: C_11  and  C_12
REMARK    4  A    between atoms: N_17  and  C_18
REMARK    5  A    between atoms: C_18  and  C_19
REMARK                            x       y       z     vdW  Elec       q    Type
REMARK                         _______ _______ _______ _____ _____    ______ ____
ROOT
ATOM      1  C   UNL     1      -0.942  12.762  22.345  0.00  0.00    +0.000 C 
ATOM      2  O   UNL     1      -0.703  13.065  23.518  0.00  0.00    +0.000 OA
ATOM      3  N   UNL     1      -0.697  11.481  21.860  0.00  0.00    +0.000 N 
ATOM      4  C   UNL     1      -0.243  10.474  22.820  0.00  0.00    +0.000 C 
ATOM      5  C   UNL     1      -0.489   9.030  22.347  0.00  0.00    +0.000 C 
ATOM      6  N   UNL     1      -0.051   8.720  20.970  0.00  0.00    +0.000 NA
ATOM      7  C   UNL     1      -0.614   9.730  20.052  0.00  0.00    +0.000 C 
ATOM      8  C   UNL     1      -0.388  11.202  20.453  0.00  0.00    +0.000 C 
ENDROOT
BRANCH   1  12
ATOM      9  N   UNL     1      -3.713  14.312  22.208  0.00  0.00    +0.000 N 
ATOM     10  C   UNL     1      -2.809  15.218  22.867  0.00  0.00    +0.000 C 
ATOM     11  C   UNL     1      -1.589  15.198  21.958  0.00  0.00    +0.000 C 
ATOM     12  C   UNL     1      -1.581  13.767  21.399  0.00  0.00    +0.000 C 
ATOM     13  C   UNL     1      -3.062  13.488  21.293  0.00  0.00    +0.000 C 
ATOM     14  O   UNL     1      -3.570  12.669  20.541  0.00  0.00    +0.000 OA
BRANCH   9  21
ATOM     15  C   UNL     1      -4.208  12.479  24.522  0.00  0.00    +0.000 C 
ATOM     16  C   UNL     1      -5.286  13.162  23.725  0.00  0.00    +0.000 A 
ATOM     17  C   UNL     1      -6.626  12.927  24.074  0.00  0.00    +0.000 A 
ATOM     18  C   UNL     1      -7.665  13.581  23.414  0.00  0.00    +0.000 A 
ATOM     19  C   UNL     1      -7.383  14.501  22.408  0.00  0.00    +0.000 A 
ATOM     20  C   UNL     1      -6.058  14.759  22.059  0.00  0.00    +0.000 A 
ATOM     21  C   UNL     1      -5.013  14.077  22.686  0.00  0.00    +0.000 A 
ENDBRANCH   9  21
ENDBRANCH   1  12
BRANCH   6  22
ATOM     22  C   UNL     1       1.409   8.596  20.829  0.00  0.00    +0.000 C 
BRANCH  22  23
ATOM     23  C   UNL     1       1.878   7.389  20.032  0.00  0.00    +0.000 A 
ATOM     24  C   UNL     1       2.504   7.512  18.782  0.00  0.00    +0.000 A 
ATOM     25  C   UNL     1       2.942   6.382  18.085  0.00  0.00    +0.000 A 
ATOM     26  C   UNL     1       2.786   5.114  18.639  0.00  0.00    +0.000 A 
ATOM     27  C   UNL     1       2.203   4.976  19.896  0.00  0.00    +0.000 A 
ATOM     28  C   UNL     1       1.757   6.105  20.590  0.00  0.00    +0.000 A 
ENDBRANCH  22  23
ENDBRANCH   6  22
TORSDOF 4
ENDMDL
MODEL 3
REMARK VINA RESULT:      -7.2      1.347      2.113
REMARK  Name = 
REMARK  5 active torsions:
REMARK  status: ('A' for Active; 'I' for Inactive)
REMARK    1  A    between atoms: C_1  and  C_2
REMARK    2  A    between atoms: C_7  and  N_8
REMARK    3  A    between atoms: C_11  and  C_12
REMARK    4  A    between atoms: N_17  and  C_18
REMARK    5  A    between atoms: C_18  and  C_19
REMARK                            x       y       z     vdW  Elec       q    Type
REMARK                         _______ _______ _______ _____ _____    ______ ____
ROOT
ATOM      1  C   UNL     1       1.171   9.280  20.001  0.00  0.00    +0.000 C 
ATOM      2  O   UNL     1       1.008   9.575  21.189  0.00  0.00    +0.000 OA
ATOM      3  N   UNL     1       1.681   8.043  19.622  0.00  0.00    +0.000 N 
ATOM      4  C   UNL     1       1.921   7.061  20.680  0.00  0.00    +0.000 C 
ATOM      5  C   UNL     1       1.979   5.613  20.162  0.00  0.00    +0.000 C 
ATOM      6  N   UNL     1       2.846   5.383  18.988  0.00  0.00    +0.000 NA
ATOM      7  C   UNL     1       2.491   6.356  17.936  0.00  0.00    +0.000 C 
ATOM      8  C   UNL     1       2.433   7.832  18.379  0.00  0.00    +0.000 C 
ENDROOT
BRANCH   1  12
ATOM      9  N   UNL     1       0.319  12.338  19.852  0.00  0.00    +0.000 N 
ATOM     10  C   UNL     1       1.731  12.329  19.573  0.00  0.00    +0.000 C 
ATOM     11  C   UNL     1       1.859  11.239  18.519  0.00  0.00    +0.000 C 
ATOM     12  C   UNL     1       0.753  10.241  18.899  0.00  0.00    +0.000 C 
ATOM     13  C   UNL     1      -0.314  11.175  19.421  0.00  0.00    +0.000 C 
ATOM     14  O   UNL     1      -1.509  10.922  19.461  0.00  0.00    +0.000 OA
BRANCH   9  21
ATOM     15  C   UNL     1      -0.389  15.112  18.979  0.00  0.00    +0.000 C 
ATOM     16  C   UNL     1      -0.535  14.594  20.383  0.00  0.00    +0.000 A 
ATOM     17  C   UNL     1      -1.029  15.464  21.369  0.00  0.00    +0.000 A 
ATOM     18  C   UNL     1      -1.246  15.022  22.674  0.00  0.00    +0.000 A 
ATOM     19  C   UNL     1      -0.996  13.695  23.011  0.00  0.00    +0.000 A 
ATOM     20  C   UNL     1      -0.519  12.813  22.042  0.00  0.00    +0.000 A 
ATOM     21  C   UNL     1      -0.259  13.258  20.744  0.00  0.00    +0.000 A 
ENDBRANCH   9  21
ENDBRANCH   1  12
BRANCH   6  22
ATOM     22  C   UNL     1       4.284   5.408  19.302  0.00  0.00    +0.000 C 
BRANCH  22  23
ATOM     23  C   UNL     1       5.207   5.267  18.101  0.00  0.00    +0.000 A 
ATOM     24  C   UNL     1       6.272   6.151  17.865  0.00  0.00    +0.000 A 
ATOM     25  C   UNL     1       7.114   5.980  16.762  0.00  0.00    +0.000 A 
ATOM     26  C   UNL     1       6.922   4.908  15.895  0.00  0.00    +0.000 A 
ATOM     27  C   UNL     1       5.895   3.999  16.136  0.00  0.00    +0.000 A 
ATOM     28  C   UNL     1       5.047   4.173  17.234  0.00  0.00    +0.000 A 
ENDBRANCH  22  23
ENDBRANCH   6  22
TORSDOF 4
ENDMDL
MODEL 4
REMARK VINA RESULT:      -7.2      2.529      3.765
REMARK  Name = 
REMARK  5 active torsions:
REMARK  status: ('A' for Active; 'I' for Inactive)
REMARK    1  A    between atoms: C_1  and  C_2
REMARK    2  A    between atoms: C_7  and  N_8
REMARK    3  A    between atoms: C_11  and  C_12
REMARK    4  A    between atoms: N_17  and  C_18
REMARK    5  A    between atoms: C_18  and  C_19
REMARK                            x       y       z     vdW  Elec       q    Type
REMARK                         _______ _______ _______ _____ _____    ______ ____
ROOT
ATOM      1  C   UNL     1       0.812  10.583  19.399  0.00  0.00    +0.000 C 
ATOM      2  O   UNL     1       0.467  11.308  18.461  0.00  0.00    +0.000 OA
ATOM      3  N   UNL     1       1.466   9.374  19.182  0.00  0.00    +0.000 N 
ATOM      4  C   UNL     1       1.823   9.041  17.803  0.00  0.00    +0.000 C 
ATOM      5  C   UNL     1       2.953   8.000  17.703  0.00  0.00    +0.000 C 
ATOM      6  N   UNL     1       2.792   6.793  18.539  0.00  0.00    +0.000 NA
ATOM      7  C   UNL     1       2.514   7.210  19.929  0.00  0.00    +0.000 C 
ATOM      8  C   UNL     1       1.379   8.238  20.107  0.00  0.00    +0.000 C 
ENDROOT
BRANCH   1  12
ATOM      9  N   UNL     1      -0.274  13.199  20.841  0.00  0.00    +0.000 N 
ATOM     10  C   UNL     1      -1.417  12.330  20.730  0.00  0.00    +0.000 C 
ATOM     11  C   UNL     1      -0.885  11.005  21.256  0.00  0.00    +0.000 C 
ATOM     12  C   UNL     1       0.594  11.022  20.839  0.00  0.00    +0.000 C 
ATOM     13  C   UNL     1       0.918  12.491  20.974  0.00  0.00    +0.000 C 
ATOM     14  O   UNL     1       2.037  12.949  21.151  0.00  0.00    +0.000 OA
BRANCH   9  21
ATOM     15  C   UNL     1      -0.578  15.289  22.961  0.00  0.00    +0.000 C 
ATOM     16  C   UNL     1      -0.558  15.567  21.483  0.00  0.00    +0.000 A 
ATOM     17  C   UNL     1      -0.700  16.895  21.050  0.00  0.00    +0.000 A 
ATOM     18  C   UNL     1      -0.625  17.221  19.696  0.00  0.00    +0.000 A 
ATOM     19  C   UNL     1      -0.382  16.228  18.752  0.00  0.00    +0.000 A 
ATOM     20  C   UNL     1      -0.224  14.905  19.165  0.00  0.00    +0.000 A 
ATOM     21  C   UNL     1      -0.340  14.564  20.515  0.00  0.00    +0.000 A 
ENDBRANCH   9  21
ENDBRANCH   1  12
BRANCH   6  22
ATOM     22  C   UNL     1       1.779   5.854  18.030  0.00  0.00    +0.000 C 
BRANCH  22  23
ATOM     23  C   UNL     1       2.173   4.386  18.097  0.00  0.00    +0.000 A 
ATOM     24  C   UNL     1       3.416   3.921  17.639  0.00  0.00    +0.000 A 
ATOM     25  C   UNL     1       3.755   2.568  17.735  0.00  0.00    +0.000 A 
ATOM     26  C   UNL     1       2.868   1.664  18.313  0.00  0.00    +0.000 A 
ATOM     27  C   UNL     1       1.647   2.114  18.809  0.00  0.00    +0.000 A 
ATOM     28  C   UNL     1       1.304   3.466  18.706  0.00  0.00    +0.000 A 
ENDBRANCH  22  23
ENDBRANCH   6  22
TORSDOF 4
ENDMDL
MODEL 5
REMARK VINA RESULT:      -7.1      0.477      1.330
REMARK  Name = 
REMARK  5 active torsions:
REMARK  status: ('A' for Active; 'I' for Inactive)
REMARK    1  A    between atoms: C_1  and  C_2
REMARK    2  A    between atoms: C_7  and  N_8
REMARK    3  A    between atoms: C_11  and  C_12
REMARK    4  A    between atoms: N_17  and  C_18
REMARK    5  A    between atoms: C_18  and  C_19
REMARK                            x       y       z     vdW  Elec       q    Type
REMARK                         _______ _______ _______ _____ _____    ______ ____
ROOT
ATOM      1  C   UNL     1       1.231   8.945  20.448  0.00  0.00    +0.000 C 
ATOM      2  O   UNL     1       1.078   9.061  21.667  0.00  0.00    +0.000 OA
ATOM      3  N   UNL     1       1.732   7.775  19.885  0.00  0.00    +0.000 N 
ATOM      4  C   UNL     1       1.974   6.646  20.784  0.00  0.00    +0.000 C 
ATOM      5  C   UNL     1       2.020   5.290  20.056  0.00  0.00    +0.000 C 
ATOM      6  N   UNL     1       2.877   5.233  18.855  0.00  0.00    +0.000 NA
ATOM      7  C   UNL     1       2.519   6.354  17.961  0.00  0.00    +0.000 C 
ATOM      8  C   UNL     1       2.473   7.748  18.619  0.00  0.00    +0.000 C 
ENDROOT
BRANCH   1  12
ATOM      9  N   UNL     1      -0.625  11.517  20.651  0.00  0.00    +0.000 N 
ATOM     10  C   UNL     1       0.706  11.992  20.928  0.00  0.00    +0.000 C 
ATOM     11  C   UNL     1       1.521  11.392  19.792  0.00  0.00    +0.000 C 
ATOM     12  C   UNL     1       0.810  10.061  19.504  0.00  0.00    +0.000 C 
ATOM     13  C   UNL     1      -0.628  10.435  19.775  0.00  0.00    +0.000 C 
ATOM     14  O   UNL     1      -1.602   9.862  19.307  0.00  0.00    +0.000 OA
BRANCH   9  21
ATOM     15  C   UNL     1      -3.033  12.805  19.427  0.00  0.00    +0.000 C 
ATOM     16  C   UNL     1      -2.846  12.567  20.901  0.00  0.00    +0.000 A 
ATOM     17  C   UNL     1      -3.860  12.981  21.779  0.00  0.00    +0.000 A 
ATOM     18  C   UNL     1      -3.772  12.731  23.148  0.00  0.00    +0.000 A 
ATOM     19  C   UNL     1      -2.678  12.040  23.661  0.00  0.00    +0.000 A 
ATOM     20  C   UNL     1      -1.668  11.608  22.802  0.00  0.00    +0.000 A 
ATOM     21  C   UNL     1      -1.729  11.892  21.436  0.00  0.00    +0.000 A 
ENDBRANCH   9  21
ENDBRANCH   1  12
BRANCH   6  22
ATOM     22  C   UNL     1       4.317   5.205  19.158  0.00  0.00    +0.000 C 
BRANCH  22  23
ATOM     23  C   UNL     1       5.225   5.037  17.948  0.00  0.00    +0.000 A 
ATOM     24  C   UNL     1       5.014   4.038  16.985  0.00  0.00    +0.000 A 
ATOM     25  C   UNL     1       5.855   3.925  15.873  0.00  0.00    +0.000 A 
ATOM     26  C   UNL     1       6.903   4.824  15.695  0.00  0.00    +0.000 A 
ATOM     27  C   UNL     1       7.103   5.846  16.620  0.00  0.00    +0.000 A 
ATOM     28  C   UNL     1       6.267   5.955  17.736  0.00  0.00    +0.000 A 
ENDBRANCH  22  23
ENDBRANCH   6  22
TORSDOF 4
ENDMDL
MODEL 6
REMARK VINA RESULT:      -7.1      0.609      1.636
REMARK  Name = 
REMARK  5 active torsions:
REMARK  status: ('A' for Active; 'I' for Inactive)
REMARK    1  A    between atoms: C_1  and  C_2
REMARK    2  A    between atoms: C_7  and  N_8
REMARK    3  A    between atoms: C_11  and  C_12
REMARK    4  A    between atoms: N_17  and  C_18
REMARK    5  A    between atoms: C_18  and  C_19
REMARK                            x       y       z     vdW  Elec       q    Type
REMARK                         _______ _______ _______ _____ _____    ______ ____
ROOT
ATOM      1  C   UNL     1       1.292   8.836  20.309  0.00  0.00    +0.000 C 
ATOM      2  O   UNL     1       1.118   8.966  21.524  0.00  0.00    +0.000 OA
ATOM      3  N   UNL     1       1.751   7.642  19.762  0.00  0.00    +0.000 N 
ATOM      4  C   UNL     1       1.923   6.508  20.671  0.00  0.00    +0.000 C 
ATOM      5  C   UNL     1       1.923   5.148  19.951  0.00  0.00    +0.000 C 
ATOM      6  N   UNL     1       2.803   5.045  18.769  0.00  0.00    +0.000 NA
ATOM      7  C   UNL     1       2.515   6.176  17.863  0.00  0.00    +0.000 C 
ATOM      8  C   UNL     1       2.517   7.574  18.512  0.00  0.00    +0.000 C 
ENDROOT
BRANCH   1  12
ATOM      9  N   UNL     1      -0.212  11.627  20.533  0.00  0.00    +0.000 N 
ATOM     10  C   UNL     1       1.185  11.939  20.695  0.00  0.00    +0.000 C 
ATOM     11  C   UNL     1       1.831  11.204  19.530  0.00  0.00    +0.000 C 
ATOM     12  C   UNL     1       0.941   9.964  19.350  0.00  0.00    +0.000 C 
ATOM     13  C   UNL     1      -0.415  10.525  19.706  0.00  0.00    +0.000 C 
ATOM     14  O   UNL     1      -1.484  10.066  19.333  0.00  0.00    +0.000 OA
BRANCH   9  21
ATOM     15  C   UNL     1      -1.572  14.213  19.883  0.00  0.00    +0.000 C 
ATOM     16  C   UNL     1      -1.804  13.416  21.137  0.00  0.00    +0.000 A 
ATOM     17  C   UNL     1      -2.714  13.911  22.085  0.00  0.00    +0.000 A 
ATOM     18  C   UNL     1      -3.018  13.186  23.236  0.00  0.00    +0.000 A 
ATOM     19  C   UNL     1      -2.436  11.940  23.450  0.00  0.00    +0.000 A 
ATOM     20  C   UNL     1      -1.541  11.425  22.512  0.00  0.00    +0.000 A 
ATOM     21  C   UNL     1      -1.199  12.164  21.377  0.00  0.00    +0.000 A 
ENDBRANCH   9  21
ENDBRANCH   1  12
BRANCH   6  22
ATOM     22  C   UNL     1       4.233   4.955  19.103  0.00  0.00    +0.000 C 
BRANCH  22  23
ATOM     23  C   UNL     1       5.175   4.985  17.908  0.00  0.00    +0.000 A 
ATOM     24  C   UNL     1       6.223   5.914  17.803  0.00  0.00    +0.000 A 
ATOM     25  C   UNL     1       7.084   5.900  16.701  0.00  0.00    +0.000 A 
ATOM     26  C   UNL     1       6.927   4.942  15.702  0.00  0.00    +0.000 A 
ATOM     27  C   UNL     1       5.919   3.988  15.811  0.00  0.00    +0.000 A 
ATOM     28  C   UNL     1       5.052   4.006  16.908  0.00  0.00    +0.000 A 
ENDBRANCH  22  23
ENDBRANCH   6  22
TORSDOF 4
ENDMDL
MODEL 7
REMARK VINA RESULT:      -7.0      1.955      9.591
REMARK  Name = 
REMARK  5 active torsions:
REMARK  status: ('A' for Active; 'I' for Inactive)
REMARK    1  A    between atoms: C_1  and  C_2
REMARK    2  A    between atoms: C_7  and  N_8
REMARK    3  A    between atoms: C_11  and  C_12
REMARK    4  A    between atoms: N_17  and  C_18
REMARK    5  A    between atoms: C_18  and  C_19
REMARK                            x       y       z     vdW  Elec       q    Type
REMARK                         _______ _______ _______ _____ _____    ______ ____
ROOT
ATOM      1  C   UNL     1       1.734   6.560  19.765  0.00  0.00    +0.000 C 
ATOM      2  O   UNL     1       1.866   5.668  20.608  0.00  0.00    +0.000 OA
ATOM      3  N   UNL     1       1.469   7.876  20.133  0.00  0.00    +0.000 N 
ATOM      4  C   UNL     1       1.455   8.184  21.563  0.00  0.00    +0.000 C 
ATOM      5  C   UNL     1       1.672   9.679  21.863  0.00  0.00    +0.000 C 
ATOM      6  N   UNL     1       0.837  10.619  21.086  0.00  0.00    +0.000 NA
ATOM      7  C   UNL     1       0.966  10.296  19.651  0.00  0.00    +0.000 C 
ATOM      8  C   UNL     1       0.742   8.817  19.273  0.00  0.00    +0.000 C 
ENDROOT
BRANCH   1  12
ATOM      9  N   UNL     1       4.048   5.321  17.975  0.00  0.00    +0.000 N 
ATOM     10  C   UNL     1       3.179   4.215  18.281  0.00  0.00    +0.000 C 
ATOM     11  C   UNL     1       1.801   4.769  17.951  0.00  0.00    +0.000 C 
ATOM     12  C   UNL     1       1.925   6.264  18.285  0.00  0.00    +0.000 C 
ATOM     13  C   UNL     1       3.361   6.530  17.899  0.00  0.00    +0.000 C 
ATOM     14  O   UNL     1       3.814   7.623  17.595  0.00  0.00    +0.000 OA
BRANCH   9  21
ATOM     15  C   UNL     1       5.705   4.284  15.708  0.00  0.00    +0.000 C 
ATOM     16  C   UNL     1       6.247   4.668  17.057  0.00  0.00    +0.000 A 
ATOM     17  C   UNL     1       7.625   4.528  17.289  0.00  0.00    +0.000 A 
ATOM     18  C   UNL     1       8.194   4.927  18.498  0.00  0.00    +0.000 A 
ATOM     19  C   UNL     1       7.399   5.497  19.488  0.00  0.00    +0.000 A 
ATOM     20  C   UNL     1       6.031   5.658  19.270  0.00  0.00    +0.000 A 
ATOM     21  C   UNL     1       5.446   5.222  18.079  0.00  0.00    +0.000 A 
ENDBRANCH   9  21
ENDBRANCH   1  12
BRANCH   6  22
ATOM     22  C   UNL     1      -0.568  10.658  21.521  0.00  0.00    +0.000 C 
BRANCH  22  23
ATOM     23  C   UNL     1      -0.978  11.924  22.258  0.00  0.00    +0.000 A 
ATOM     24  C   UNL     1      -0.271  13.130  22.128  0.00  0.00    +0.000 A 
ATOM     25  C   UNL     1      -0.688  14.282  22.803  0.00  0.00    +0.000 A 
ATOM     26  C   UNL     1      -1.833  14.252  23.596  0.00  0.00    +0.000 A 
ATOM     27  C   UNL     1      -2.568  13.075  23.704  0.00  0.00    +0.000 A 
ATOM     28  C   UNL     1      -2.148  11.921  23.036  0.00  0.00    +0.000 A 
ENDBRANCH  22  23
ENDBRANCH   6  22
TORSDOF 4
ENDMDL
MODEL 8
REMARK VINA RESULT:      -7.0      2.487      4.545
REMARK  Name = 
REMARK  5 active torsions:
REMARK  status: ('A' for Active; 'I' for Inactive)
REMARK    1  A    between atoms: C_1  and  C_2
REMARK    2  A    between atoms: C_7  and  N_8
REMARK    3  A    between atoms: C_11  and  C_12
REMARK    4  A    between atoms: N_17  and  C_18
REMARK    5  A    between atoms: C_18  and  C_19
REMARK                            x       y       z     vdW  Elec       q    Type
REMARK                         _______ _______ _______ _____ _____    ______ ____
ROOT
ATOM      1  C   UNL     1      -0.107  10.549  19.020  0.00  0.00    +0.000 C 
ATOM      2  O   UNL     1      -0.495  11.014  17.945  0.00  0.00    +0.000 OA
ATOM      3  N   UNL     1       0.792   9.488  19.073  0.00  0.00    +0.000 N 
ATOM      4  C   UNL     1       1.341   9.008  17.804  0.00  0.00    +0.000 C 
ATOM      5  C   UNL     1       2.658   8.229  17.970  0.00  0.00    +0.000 C 
ATOM      6  N   UNL     1       2.658   7.176  19.005  0.00  0.00    +0.000 NA
ATOM      7  C   UNL     1       2.169   7.755  20.273  0.00  0.00    +0.000 C 
ATOM      8  C   UNL     1       0.841   8.534  20.187  0.00  0.00    +0.000 C 
ENDROOT
BRANCH   1  12
ATOM      9  N   UNL     1       0.103  13.423  20.361  0.00  0.00    +0.000 N 
ATOM     10  C   UNL     1      -1.186  13.402  19.720  0.00  0.00    +0.000 C 
ATOM     11  C   UNL     1      -1.776  12.081  20.192  0.00  0.00    +0.000 C 
ATOM     12  C   UNL     1      -0.546  11.171  20.337  0.00  0.00    +0.000 C 
ATOM     13  C   UNL     1       0.496  12.161  20.800  0.00  0.00    +0.000 C 
ATOM     14  O   UNL     1       1.503  11.877  21.432  0.00  0.00    +0.000 OA
BRANCH   9  21
ATOM     15  C   UNL     1       2.143  13.556  18.175  0.00  0.00    +0.000 C 
ATOM     16  C   UNL     1       1.996  14.575  19.271  0.00  0.00    +0.000 A 
ATOM     17  C   UNL     1       2.877  15.669  19.290  0.00  0.00    +0.000 A 
ATOM     18  C   UNL     1       2.749  16.678  20.243  0.00  0.00    +0.000 A 
ATOM     19  C   UNL     1       1.722  16.625  21.181  0.00  0.00    +0.000 A 
ATOM     20  C   UNL     1       0.829  15.554  21.169  0.00  0.00    +0.000 A 
ATOM     21  C   UNL     1       0.976  14.518  20.244  0.00  0.00    +0.000 A 
ENDBRANCH   9  21
ENDBRANCH   1  12
BRANCH   6  22
ATOM     22  C   UNL     1       1.905   5.970  18.621  0.00  0.00    +0.000 C 
BRANCH  22  23
ATOM     23  C   UNL     1       2.102   4.771  19.537  0.00  0.00    +0.000 A 
ATOM     24  C   UNL     1       1.071   4.268  20.346  0.00  0.00    +0.000 A 
ATOM     25  C   UNL     1       1.279   3.151  21.161  0.00  0.00    +0.000 A 
ATOM     26  C   UNL     1       2.512   2.503  21.157  0.00  0.00    +0.000 A 
ATOM     27  C   UNL     1       3.533   2.964  20.330  0.00  0.00    +0.000 A 
ATOM     28  C   UNL     1       3.328   4.087  19.522  0.00  0.00    +0.000 A 
ENDBRANCH  22  23
ENDBRANCH   6  22
TORSDOF 4
ENDMDL
MODEL 9
REMARK VINA RESULT:      -6.9      2.469      4.453
REMARK  Name = 
REMARK  5 active torsions:
REMARK  status: ('A' for Active; 'I' for Inactive)
REMARK    1  A    between atoms: C_1  and  C_2
REMARK    2  A    between atoms: C_7  and  N_8
REMARK    3  A    between atoms: C_11  and  C_12
REMARK    4  A    between atoms: N_17  and  C_18
REMARK    5  A    between atoms: C_18  and  C_19
REMARK                            x       y       z     vdW  Elec       q    Type
REMARK                         _______ _______ _______ _____ _____    ______ ____
ROOT
ATOM      1  C   UNL     1      -0.091  10.554  19.056  0.00  0.00    +0.000 C 
ATOM      2  O   UNL     1      -0.498  11.025  17.990  0.00  0.00    +0.000 OA
ATOM      3  N   UNL     1       0.801   9.486  19.087  0.00  0.00    +0.000 N 
ATOM      4  C   UNL     1       1.320   9.007  17.805  0.00  0.00    +0.000 C 
ATOM      5  C   UNL     1       2.635   8.218  17.941  0.00  0.00    +0.000 C 
ATOM      6  N   UNL     1       2.648   7.161  18.973  0.00  0.00    +0.000 NA
ATOM      7  C   UNL     1       2.190   7.739  20.252  0.00  0.00    +0.000 C 
ATOM      8  C   UNL     1       0.866   8.528  20.196  0.00  0.00    +0.000 C 
ENDROOT
BRANCH   1  12
ATOM      9  N   UNL     1       0.025  13.458  20.342  0.00  0.00    +0.000 N 
ATOM     10  C   UNL     1      -1.290  13.356  19.766  0.00  0.00    +0.000 C 
ATOM     11  C   UNL     1      -1.782  12.013  20.287  0.00  0.00    +0.000 C 
ATOM     12  C   UNL     1      -0.498  11.174  20.384  0.00  0.00    +0.000 C 
ATOM     13  C   UNL     1       0.509  12.227  20.779  0.00  0.00    +0.000 C 
ATOM     14  O   UNL     1       1.559  12.009  21.364  0.00  0.00    +0.000 OA
BRANCH   9  21
ATOM     15  C   UNL     1       0.258  15.541  22.478  0.00  0.00    +0.000 C 
ATOM     16  C   UNL     1       0.902  15.631  21.122  0.00  0.00    +0.000 A 
ATOM     17  C   UNL     1       1.663  16.772  20.817  0.00  0.00    +0.000 A 
ATOM     18  C   UNL     1       2.335  16.883  19.600  0.00  0.00    +0.000 A 
ATOM     19  C   UNL     1       2.279  15.844  18.675  0.00  0.00    +0.000 A 
ATOM     20  C   UNL     1       1.541  14.697  18.967  0.00  0.00    +0.000 A 
ATOM     21  C   UNL     1       0.830  14.597  20.165  0.00  0.00    +0.000 A 
ENDBRANCH   9  21
ENDBRANCH   1  12
BRANCH   6  22
ATOM     22  C   UNL     1       1.879   5.962  18.600  0.00  0.00    +0.000 C 
BRANCH  22  23
ATOM     23  C   UNL     1       2.127   4.743  19.475  0.00  0.00    +0.000 A 
ATOM     24  C   UNL     1       3.353   4.058  19.478  0.00  0.00    +0.000 A 
ATOM     25  C   UNL     1       3.553   2.952  20.311  0.00  0.00    +0.000 A 
ATOM     26  C   UNL     1       2.542   2.532  21.172  0.00  0.00    +0.000 A 
ATOM     27  C   UNL     1       1.335   3.224  21.210  0.00  0.00    +0.000 A 
ATOM     28  C   UNL     1       1.130   4.324  20.372  0.00  0.00    +0.000 A 
ENDBRANCH  22  23
ENDBRANCH   6  22
TORSDOF 4
ENDMDL
