MODEL 1
REMARK VINA RESULT:      -7.0      0.000      0.000
REMARK  Name = 
REMARK  5 active torsions:
REMARK  status: ('A' for Active; 'I' for Inactive)
REMARK    1  A    between atoms: C_1  and  C_2
REMARK    2  A    between atoms: C_4  and  C_5
REMARK    3  A    between atoms: C_7  and  S_8
REMARK    4  A    between atoms: S_8  and  C_9
REMARK    5  A    between atoms: C_14  and  O_15
REMARK                            x       y       z     vdW  Elec       q    Type
REMARK                         _______ _______ _______ _____ _____    ______ ____
ROOT
ATOM      1  S   UNL     1       3.225   3.210  17.166  0.00  0.00    +0.000 S 
ENDROOT
BRANCH   1   8
ATOM      2  C   UNL     1       7.239   5.654  19.120  0.00  0.00    +0.000 C 
ATOM      3  C   UNL     1       6.565   5.135  17.885  0.00  0.00    +0.000 A 
ATOM      4  C   UNL     1       7.157   5.273  16.645  0.00  0.00    +0.000 A 
ATOM      5  C   UNL     1       6.461   4.766  15.567  0.00  0.00    +0.000 A 
ATOM      6  C   UNL     1       7.016   4.836  14.178  0.00  0.00    +0.000 C 
ATOM      7  N   UNL     1       5.262   4.168  15.702  0.00  0.00    +0.000 NA
ATOM      8  C   UNL     1       4.768   4.062  16.947  0.00  0.00    +0.000 A 
ATOM      9  N   UNL     1       5.374   4.528  18.051  0.00  0.00    +0.000 NA
ENDBRANCH   1   8
BRANCH   1  10
ATOM     10  C   UNL     1       2.892   3.570  18.944  0.00  0.00    +0.000 C 
ATOM     11  C   UNL     1       1.401   3.879  19.153  0.00  0.00    +0.000 C 
ATOM     12  C   UNL     1       1.071   4.105  20.628  0.00  0.00    +0.000 C 
ATOM     13  C   UNL     1       1.504   2.922  21.485  0.00  0.00    +0.000 C 
ATOM     14  C   UNL     1       2.984   2.618  21.295  0.00  0.00    +0.000 C 
ATOM     15  C   UNL     1       3.332   2.375  19.823  0.00  0.00    +0.000 C 
BRANCH  15  16
ATOM     16  O   UNL     1       4.742   2.143  19.753  0.00  0.00    +0.000 OA
ATOM     17  H   UNL     1       4.975   1.952  18.828  0.00  0.00    +0.000 HD
ENDBRANCH  15  16
ENDBRANCH   1  10
TORSDOF 3
ENDMDL
MODEL 2
REMARK VINA RESULT:      -7.0      0.125      2.134
REMARK  Name = 
REMARK  5 active torsions:
REMARK  status: ('A' for Active; 'I' for Inactive)
REMARK    1  A    between atoms: C_1  and  C_2
REMARK    2  A    between atoms: C_4  and  C_5
REMARK    3  A    between atoms: C_7  and  S_8
REMARK    4  A    between atoms: S_8  and  C_9
REMARK    5  A    between atoms: C_14  and  O_15
REMARK                            x       y       z     vdW  Elec       q    Type
REMARK                         _______ _______ _______ _____ _____    ______ ____
ROOT
ATOM      1  S   UNL     1       3.354   3.069  17.222  0.00  0.00    +0.000 S 
ENDROOT
BRANCH   1   8
ATOM      2  C   UNL     1       6.999   4.892  14.175  0.00  0.00    +0.000 C 
ATOM      3  C   UNL     1       6.497   4.742  15.579  0.00  0.00    +0.000 A 
ATOM      4  C   UNL     1       7.187   5.295  16.640  0.00  0.00    +0.000 A 
ATOM      5  C   UNL     1       6.648   5.102  17.897  0.00  0.00    +0.000 A 
ATOM      6  C   UNL     1       7.296   5.676  19.118  0.00  0.00    +0.000 C 
ATOM      7  N   UNL     1       5.510   4.409  18.092  0.00  0.00    +0.000 NA
ATOM      8  C   UNL     1       4.896   3.921  17.002  0.00  0.00    +0.000 A 
ATOM      9  N   UNL     1       5.349   4.057  15.745  0.00  0.00    +0.000 NA
ENDBRANCH   1   8
BRANCH   1  10
ATOM     10  C   UNL     1       2.964   3.521  18.966  0.00  0.00    +0.000 C 
ATOM     11  C   UNL     1       1.477   3.887  19.101  0.00  0.00    +0.000 C 
ATOM     12  C   UNL     1       1.098   4.192  20.550  0.00  0.00    +0.000 C 
ATOM     13  C   UNL     1       1.457   3.038  21.476  0.00  0.00    +0.000 C 
ATOM     14  C   UNL     1       2.933   2.679  21.360  0.00  0.00    +0.000 C 
ATOM     15  C   UNL     1       3.329   2.356  19.916  0.00  0.00    +0.000 C 
BRANCH  15  16
ATOM     16  O   UNL     1       4.732   2.076  19.913  0.00  0.00    +0.000 OA
ATOM     17  H   UNL     1       5.060   2.147  20.827  0.00  0.00    +0.000 HD
ENDBRANCH  15  16
ENDBRANCH   1  10
TORSDOF 3
ENDMDL
MODEL 3
REMARK VINA RESULT:      -6.9      1.894      2.730
REMARK  Name = 
REMARK  5 active torsions:
REMARK  status: ('A' for Active; 'I' for Inactive)
REMARK    1  A    between atoms: C_1  and  C_2
REMARK    2  A    between atoms: C_4  and  C_5
REMARK    3  A    between atoms: C_7  and  S_8
REMARK    4  A    between atoms: S_8  and  C_9
REMARK    5  A    between atoms: C_14  and  O_15
REMARK                            x       y       z     vdW  Elec       q    Type
REMARK                         _______ _______ _______ _____ _____    ______ ____
ROOT
ATOM      1  S   UNL     1       2.853   6.244  18.133  0.00  0.00    +0.000 S 
ENDROOT
BRANCH   1   8
ATOM      2  C   UNL     1       6.008   3.755  15.011  0.00  0.00    +0.000 C 
ATOM      3  C   UNL     1       5.840   4.875  15.993  0.00  0.00    +0.000 A 
ATOM      4  C   UNL     1       6.891   5.720  16.289  0.00  0.00    +0.000 A 
ATOM      5  C   UNL     1       6.642   6.721  17.207  0.00  0.00    +0.000 A 
ATOM      6  C   UNL     1       7.699   7.710  17.587  0.00  0.00    +0.000 C 
ATOM      7  N   UNL     1       5.440   6.874  17.794  0.00  0.00    +0.000 NA
ATOM      8  C   UNL     1       4.469   6.018  17.434  0.00  0.00    +0.000 A 
ATOM      9  N   UNL     1       4.623   5.015  16.554  0.00  0.00    +0.000 NA
ENDBRANCH   1   8
BRANCH   1  10
ATOM     10  C   UNL     1       2.689   4.688  19.110  0.00  0.00    +0.000 C 
ATOM     11  C   UNL     1       2.314   5.011  20.565  0.00  0.00    +0.000 C 
ATOM     12  C   UNL     1       2.092   3.742  21.387  0.00  0.00    +0.000 C 
ATOM     13  C   UNL     1       1.047   2.838  20.748  0.00  0.00    +0.000 C 
ATOM     14  C   UNL     1       1.418   2.500  19.310  0.00  0.00    +0.000 C 
ATOM     15  C   UNL     1       1.631   3.760  18.466  0.00  0.00    +0.000 C 
BRANCH  15  16
ATOM     16  O   UNL     1       2.015   3.333  17.155  0.00  0.00    +0.000 OA
ATOM     17  H   UNL     1       1.211   3.242  16.615  0.00  0.00    +0.000 HD
ENDBRANCH  15  16
ENDBRANCH   1  10
TORSDOF 3
ENDMDL
MODEL 4
REMARK VINA RESULT:      -6.8      1.722      1.920
REMARK  Name = 
REMARK  5 active torsions:
REMARK  status: ('A' for Active; 'I' for Inactive)
REMARK    1  A    between atoms: C_1  and  C_2
REMARK    2  A    between atoms: C_4  and  C_5
REMARK    3  A    between atoms: C_7  and  S_8
REMARK    4  A    between atoms: S_8  and  C_9
REMARK    5  A    between atoms: C_14  and  O_15
REMARK                            x       y       z     vdW  Elec       q    Type
REMARK                         _______ _______ _______ _____ _____    ______ ____
ROOT
ATOM      1  S   UNL     1       3.129   6.084  18.121  0.00  0.00    +0.000 S 
ENDROOT
BRANCH   1   8
ATOM      2  C   UNL     1       8.114   5.684  19.062  0.00  0.00    +0.000 C 
ATOM      3  C   UNL     1       6.997   5.443  18.091  0.00  0.00    +0.000 A 
ATOM      4  C   UNL     1       7.237   4.837  16.874  0.00  0.00    +0.000 A 
ATOM      5  C   UNL     1       6.147   4.659  16.046  0.00  0.00    +0.000 A 
ATOM      6  C   UNL     1       6.282   3.991  14.713  0.00  0.00    +0.000 C 
ATOM      7  N   UNL     1       4.908   5.055  16.393  0.00  0.00    +0.000 NA
ATOM      8  C   UNL     1       4.763   5.621  17.603  0.00  0.00    +0.000 A 
ATOM      9  N   UNL     1       5.766   5.836  18.471  0.00  0.00    +0.000 NA
ENDBRANCH   1   8
BRANCH   1  10
ATOM     10  C   UNL     1       2.601   4.545  18.989  0.00  0.00    +0.000 C 
ATOM     11  C   UNL     1       1.961   4.891  20.343  0.00  0.00    +0.000 C 
ATOM     12  C   UNL     1       1.440   3.645  21.057  0.00  0.00    +0.000 C 
ATOM     13  C   UNL     1       0.467   2.865  20.183  0.00  0.00    +0.000 C 
ATOM     14  C   UNL     1       1.098   2.505  18.845  0.00  0.00    +0.000 C 
ATOM     15  C   UNL     1       1.615   3.744  18.106  0.00  0.00    +0.000 C 
BRANCH  15  16
ATOM     16  O   UNL     1       2.222   3.292  16.892  0.00  0.00    +0.000 OA
ATOM     17  H   UNL     1       2.725   2.481  17.084  0.00  0.00    +0.000 HD
ENDBRANCH  15  16
ENDBRANCH   1  10
TORSDOF 3
ENDMDL
MODEL 5
REMARK VINA RESULT:      -6.4      1.364      2.282
REMARK  Name = 
REMARK  5 active torsions:
REMARK  status: ('A' for Active; 'I' for Inactive)
REMARK    1  A    between atoms: C_1  and  C_2
REMARK    2  A    between atoms: C_4  and  C_5
REMARK    3  A    between atoms: C_7  and  S_8
REMARK    4  A    between atoms: S_8  and  C_9
REMARK    5  A    between atoms: C_14  and  O_15
REMARK                            x       y       z     vdW  Elec       q    Type
REMARK                         _______ _______ _______ _____ _____    ______ ____
ROOT
ATOM      1  S   UNL     1       3.574   2.538  17.466  0.00  0.00    +0.000 S 
ENDROOT
BRANCH   1   8
ATOM      2  C   UNL     1       6.851   4.823  14.315  0.00  0.00    +0.000 C 
ATOM      3  C   UNL     1       5.818   4.992  15.388  0.00  0.00    +0.000 A 
ATOM      4  C   UNL     1       5.451   6.249  15.826  0.00  0.00    +0.000 A 
ATOM      5  C   UNL     1       4.493   6.304  16.818  0.00  0.00    +0.000 A 
ATOM      6  C   UNL     1       4.000   7.612  17.354  0.00  0.00    +0.000 C 
ATOM      7  N   UNL     1       3.939   5.195  17.344  0.00  0.00    +0.000 NA
ATOM      8  C   UNL     1       4.342   4.014  16.846  0.00  0.00    +0.000 A 
ATOM      9  N   UNL     1       5.269   3.867  15.886  0.00  0.00    +0.000 NA
ENDBRANCH   1   8
BRANCH   1  10
ATOM     10  C   UNL     1       2.917   3.150  19.077  0.00  0.00    +0.000 C 
ATOM     11  C   UNL     1       1.382   3.210  19.038  0.00  0.00    +0.000 C 
ATOM     12  C   UNL     1       0.798   3.638  20.383  0.00  0.00    +0.000 C 
ATOM     13  C   UNL     1       1.275   2.736  21.513  0.00  0.00    +0.000 C 
ATOM     14  C   UNL     1       2.796   2.683  21.569  0.00  0.00    +0.000 C 
ATOM     15  C   UNL     1       3.401   2.241  20.232  0.00  0.00    +0.000 C 
BRANCH  15  16
ATOM     16  O   UNL     1       4.823   2.267  20.381  0.00  0.00    +0.000 OA
ATOM     17  H   UNL     1       5.101   1.440  20.813  0.00  0.00    +0.000 HD
ENDBRANCH  15  16
ENDBRANCH   1  10
TORSDOF 3
ENDMDL
MODEL 6
REMARK VINA RESULT:      -6.4      1.363      1.484
REMARK  Name = 
REMARK  5 active torsions:
REMARK  status: ('A' for Active; 'I' for Inactive)
REMARK    1  A    between atoms: C_1  and  C_2
REMARK    2  A    between atoms: C_4  and  C_5
REMARK    3  A    between atoms: C_7  and  S_8
REMARK    4  A    between atoms: S_8  and  C_9
REMARK    5  A    between atoms: C_14  and  O_15
REMARK                            x       y       z     vdW  Elec       q    Type
REMARK                         _______ _______ _______ _____ _____    ______ ____
ROOT
ATOM      1  S   UNL     1       3.514   2.521  17.405  0.00  0.00    +0.000 S 
ENDROOT
BRANCH   1   8
ATOM      2  C   UNL     1       3.973   7.589  17.439  0.00  0.00    +0.000 C 
ATOM      3  C   UNL     1       4.442   6.291  16.855  0.00  0.00    +0.000 A 
ATOM      4  C   UNL     1       5.452   6.263  15.912  0.00  0.00    +0.000 A 
ATOM      5  C   UNL     1       5.815   5.021  15.431  0.00  0.00    +0.000 A 
ATOM      6  C   UNL     1       6.913   4.866  14.425  0.00  0.00    +0.000 C 
ATOM      7  N   UNL     1       5.222   3.887  15.848  0.00  0.00    +0.000 NA
ATOM      8  C   UNL     1       4.262   4.005  16.780  0.00  0.00    +0.000 A 
ATOM      9  N   UNL     1       3.842   5.170  17.301  0.00  0.00    +0.000 NA
ENDBRANCH   1   8
BRANCH   1  10
ATOM     10  C   UNL     1       2.923   3.109  19.051  0.00  0.00    +0.000 C 
ATOM     11  C   UNL     1       1.387   3.154  19.079  0.00  0.00    +0.000 C 
ATOM     12  C   UNL     1       0.858   3.561  20.453  0.00  0.00    +0.000 C 
ATOM     13  C   UNL     1       1.392   2.651  21.550  0.00  0.00    +0.000 C 
ATOM     14  C   UNL     1       2.915   2.612  21.540  0.00  0.00    +0.000 C 
ATOM     15  C   UNL     1       3.465   2.191  20.173  0.00  0.00    +0.000 C 
BRANCH  15  16
ATOM     16  O   UNL     1       4.892   2.229  20.259  0.00  0.00    +0.000 OA
ATOM     17  H   UNL     1       5.203   3.049  19.838  0.00  0.00    +0.000 HD
ENDBRANCH  15  16
ENDBRANCH   1  10
TORSDOF 3
ENDMDL
MODEL 7
REMARK VINA RESULT:      -6.3      1.275      1.348
REMARK  Name = 
REMARK  5 active torsions:
REMARK  status: ('A' for Active; 'I' for Inactive)
REMARK    1  A    between atoms: C_1  and  C_2
REMARK    2  A    between atoms: C_4  and  C_5
REMARK    3  A    between atoms: C_7  and  S_8
REMARK    4  A    between atoms: S_8  and  C_9
REMARK    5  A    between atoms: C_14  and  O_15
REMARK                            x       y       z     vdW  Elec       q    Type
REMARK                         _______ _______ _______ _____ _____    ______ ____
ROOT
ATOM      1  S   UNL     1       2.940   5.481  17.851  0.00  0.00    +0.000 S 
ENDROOT
BRANCH   1   8
ATOM      2  C   UNL     1       7.813   6.905  18.198  0.00  0.00    +0.000 C 
ATOM      3  C   UNL     1       6.777   6.157  17.413  0.00  0.00    +0.000 A 
ATOM      4  C   UNL     1       7.118   5.478  16.260  0.00  0.00    +0.000 A 
ATOM      5  C   UNL     1       6.096   4.821  15.604  0.00  0.00    +0.000 A 
ATOM      6  C   UNL     1       6.351   4.031  14.358  0.00  0.00    +0.000 C 
ATOM      7  N   UNL     1       4.827   4.836  16.054  0.00  0.00    +0.000 NA
ATOM      8  C   UNL     1       4.589   5.507  17.193  0.00  0.00    +0.000 A 
ATOM      9  N   UNL     1       5.519   6.177  17.893  0.00  0.00    +0.000 NA
ENDBRANCH   1   8
BRANCH   1  10
ATOM     10  C   UNL     1       3.231   4.623  19.457  0.00  0.00    +0.000 C 
ATOM     11  C   UNL     1       1.974   4.701  20.337  0.00  0.00    +0.000 C 
ATOM     12  C   UNL     1       2.151   3.932  21.646  0.00  0.00    +0.000 C 
ATOM     13  C   UNL     1       2.545   2.483  21.394  0.00  0.00    +0.000 C 
ATOM     14  C   UNL     1       3.799   2.395  20.534  0.00  0.00    +0.000 C 
ATOM     15  C   UNL     1       3.636   3.150  19.210  0.00  0.00    +0.000 C 
BRANCH  15  16
ATOM     16  O   UNL     1       4.876   3.041  18.505  0.00  0.00    +0.000 OA
ATOM     17  H   UNL     1       4.713   2.568  17.670  0.00  0.00    +0.000 HD
ENDBRANCH  15  16
ENDBRANCH   1  10
TORSDOF 3
ENDMDL
MODEL 8
REMARK VINA RESULT:      -6.2      1.235      2.477
REMARK  Name = 
REMARK  5 active torsions:
REMARK  status: ('A' for Active; 'I' for Inactive)
REMARK    1  A    between atoms: C_1  and  C_2
REMARK    2  A    between atoms: C_4  and  C_5
REMARK    3  A    between atoms: C_7  and  S_8
REMARK    4  A    between atoms: S_8  and  C_9
REMARK    5  A    between atoms: C_14  and  O_15
REMARK                            x       y       z     vdW  Elec       q    Type
REMARK                         _______ _______ _______ _____ _____    ______ ____
ROOT
ATOM      1  S   UNL     1       2.822   4.771  17.512  0.00  0.00    +0.000 S 
ENDROOT
BRANCH   1   8
ATOM      2  C   UNL     1       6.705   4.156  14.280  0.00  0.00    +0.000 C 
ATOM      3  C   UNL     1       6.275   4.520  15.669  0.00  0.00    +0.000 A 
ATOM      4  C   UNL     1       7.201   4.903  16.619  0.00  0.00    +0.000 A 
ATOM      5  C   UNL     1       6.711   5.217  17.870  0.00  0.00    +0.000 A 
ATOM      6  C   UNL     1       7.618   5.669  18.972  0.00  0.00    +0.000 C 
ATOM      7  N   UNL     1       5.398   5.155  18.164  0.00  0.00    +0.000 NA
ATOM      8  C   UNL     1       4.566   4.789  17.175  0.00  0.00    +0.000 A 
ATOM      9  N   UNL     1       4.955   4.463  15.932  0.00  0.00    +0.000 NA
ENDBRANCH   1   8
BRANCH   1  10
ATOM     10  C   UNL     1       2.793   3.813  19.087  0.00  0.00    +0.000 C 
ATOM     11  C   UNL     1       2.434   4.735  20.263  0.00  0.00    +0.000 C 
ATOM     12  C   UNL     1       2.322   3.960  21.576  0.00  0.00    +0.000 C 
ATOM     13  C   UNL     1       1.327   2.813  21.465  0.00  0.00    +0.000 C 
ATOM     14  C   UNL     1       1.684   1.886  20.311  0.00  0.00    +0.000 C 
ATOM     15  C   UNL     1       1.787   2.642  18.982  0.00  0.00    +0.000 C 
BRANCH  15  16
ATOM     16  O   UNL     1       2.166   1.692  17.982  0.00  0.00    +0.000 OA
ATOM     17  H   UNL     1       3.078   1.888  17.703  0.00  0.00    +0.000 HD
ENDBRANCH  15  16
ENDBRANCH   1  10
TORSDOF 3
ENDMDL
MODEL 9
REMARK VINA RESULT:      -6.2      1.858      2.935
REMARK  Name = 
REMARK  5 active torsions:
REMARK  status: ('A' for Active; 'I' for Inactive)
REMARK    1  A    between atoms: C_1  and  C_2
REMARK    2  A    between atoms: C_4  and  C_5
REMARK    3  A    between atoms: C_7  and  S_8
REMARK    4  A    between atoms: S_8  and  C_9
REMARK    5  A    between atoms: C_14  and  O_15
REMARK                            x       y       z     vdW  Elec       q    Type
REMARK                         _______ _______ _______ _____ _____    ______ ____
ROOT
ATOM      1  S   UNL     1       3.042   6.530  17.982  0.00  0.00    +0.000 S 
ENDROOT
BRANCH   1   8
ATOM      2  C   UNL     1       6.145   3.898  14.925  0.00  0.00    +0.000 C 
ATOM      3  C   UNL     1       5.980   4.609  16.235  0.00  0.00    +0.000 A 
ATOM      4  C   UNL     1       7.035   4.712  17.121  0.00  0.00    +0.000 A 
ATOM      5  C   UNL     1       6.788   5.383  18.302  0.00  0.00    +0.000 A 
ATOM      6  C   UNL     1       7.862   5.578  19.326  0.00  0.00    +0.000 C 
ATOM      7  N   UNL     1       5.583   5.911  18.590  0.00  0.00    +0.000 NA
ATOM      8  C   UNL     1       4.619   5.778  17.663  0.00  0.00    +0.000 A 
ATOM      9  N   UNL     1       4.769   5.140  16.491  0.00  0.00    +0.000 NA
ENDBRANCH   1   8
BRANCH   1  10
ATOM     10  C   UNL     1       2.122   5.097  18.688  0.00  0.00    +0.000 C 
ATOM     11  C   UNL     1       2.267   3.869  17.775  0.00  0.00    +0.000 C 
ATOM     12  C   UNL     1       1.582   2.639  18.367  0.00  0.00    +0.000 C 
ATOM     13  C   UNL     1       2.096   2.334  19.768  0.00  0.00    +0.000 C 
ATOM     14  C   UNL     1       1.942   3.540  20.685  0.00  0.00    +0.000 C 
ATOM     15  C   UNL     1       2.634   4.782  20.114  0.00  0.00    +0.000 C 
BRANCH  15  16
ATOM     16  O   UNL     1       2.393   5.859  21.024  0.00  0.00    +0.000 OA
ATOM     17  H   UNL     1       3.244   6.282  21.231  0.00  0.00    +0.000 HD
ENDBRANCH  15  16
ENDBRANCH   1  10
TORSDOF 3
ENDMDL
