MODEL 1
REMARK VINA RESULT:      -8.3      0.000      0.000
REMARK  Name = 
REMARK  8 active torsions:
REMARK  status: ('A' for Active; 'I' for Inactive)
REMARK    1  A    between atoms: C_1  and  C_2
REMARK    2  A    between atoms: C_2  and  C_3
REMARK    3  A    between atoms: C_2  and  N_4
REMARK    4  A    between atoms: N_4  and  C_5
REMARK    5  A    between atoms: C_5  and  C_6
REMARK    6  A    between atoms: C_6  and  C_7
REMARK    7  A    between atoms: C_7  and  C_8
REMARK    8  A    between atoms: C_8  and  C_9
REMARK                            x       y       z     vdW  Elec       q    Type
REMARK                         _______ _______ _______ _____ _____    ______ ____
ROOT
ATOM      1  C   UNL     1       4.645   4.718  17.585  0.00  0.00    +0.000 C 
ATOM      2  C   UNL     1       3.853   6.015  17.673  0.00  0.00    +0.000 A 
ATOM      3  C   UNL     1       4.265   7.315  17.357  0.00  0.00    +0.000 A 
ATOM      4  C   UNL     1       3.346   8.370  17.501  0.00  0.00    +0.000 A 
ATOM      5  C   UNL     1       2.036   8.117  17.951  0.00  0.00    +0.000 A 
ATOM      6  C   UNL     1       1.634   6.812  18.260  0.00  0.00    +0.000 A 
ATOM      7  C   UNL     1       2.561   5.780  18.114  0.00  0.00    +0.000 A 
ATOM      8  C   UNL     1       2.401   4.359  18.339  0.00  0.00    +0.000 A 
ATOM      9  C   UNL     1       1.270   3.646  18.736  0.00  0.00    +0.000 A 
ATOM     10  C   UNL     1       1.368   2.250  18.839  0.00  0.00    +0.000 A 
ATOM     11  C   UNL     1       2.584   1.599  18.555  0.00  0.00    +0.000 A 
ATOM     12  C   UNL     1       3.712   2.338  18.162  0.00  0.00    +0.000 A 
ATOM     13  C   UNL     1       3.600   3.727  18.056  0.00  0.00    +0.000 A 
ENDROOT
BRANCH   1  14
ATOM     14  C   UNL     1       5.862   4.757  18.503  0.00  0.00    +0.000 C 
ATOM     15  N   UNL     1       6.996   4.099  18.180  0.00  0.00    +0.000 N 
ATOM     16  O   UNL     1       5.816   5.373  19.560  0.00  0.00    +0.000 OA
ATOM     17  H   UNL     1       7.068   3.558  17.307  0.00  0.00    +0.000 HD
ATOM     18  H   UNL     1       7.806   4.118  18.820  0.00  0.00    +0.000 HD
ENDBRANCH   1  14
BRANCH   1  19
ATOM     19  C   UNL     1       5.062   4.392  16.123  0.00  0.00    +0.000 C 
BRANCH  19  20
ATOM     20  C   UNL     1       6.125   5.354  15.582  0.00  0.00    +0.000 C 
BRANCH  20  21
ATOM     21  C   UNL     1       6.818   4.788  14.341  0.00  0.00    +0.000 C 
BRANCH  21  22
ATOM     22  N   UNL     1       6.197   3.528  13.900  0.00  0.00    +0.000 NA
ATOM     23  H   UNL     1       6.665   2.741  14.406  0.00  0.00    +0.000 HD
BRANCH  22  25
ATOM     24  C   UNL     1       4.850   3.282  11.802  0.00  0.00    +0.000 C 
ATOM     25  C   UNL     1       6.250   3.276  12.443  0.00  0.00    +0.000 C 
ATOM     26  C   UNL     1       7.154   4.315  11.786  0.00  0.00    +0.000 C 
ENDBRANCH  22  25
ENDBRANCH  21  22
ENDBRANCH  20  21
ENDBRANCH  19  20
ENDBRANCH   1  19
TORSDOF 6
ENDMDL
MODEL 2
REMARK VINA RESULT:      -8.0      3.219      5.811
REMARK  Name = 
REMARK  8 active torsions:
REMARK  status: ('A' for Active; 'I' for Inactive)
REMARK    1  A    between atoms: C_1  and  C_2
REMARK    2  A    between atoms: C_2  and  C_3
REMARK    3  A    between atoms: C_2  and  N_4
REMARK    4  A    between atoms: N_4  and  C_5
REMARK    5  A    between atoms: C_5  and  C_6
REMARK    6  A    between atoms: C_6  and  C_7
REMARK    7  A    between atoms: C_7  and  C_8
REMARK    8  A    between atoms: C_8  and  C_9
REMARK                            x       y       z     vdW  Elec       q    Type
REMARK                         _______ _______ _______ _____ _____    ______ ____
ROOT
ATOM      1  C   UNL     1       6.502   5.603  17.543  0.00  0.00    +0.000 C 
ATOM      2  C   UNL     1       5.171   5.081  18.065  0.00  0.00    +0.000 A 
ATOM      3  C   UNL     1       4.599   5.254  19.330  0.00  0.00    +0.000 A 
ATOM      4  C   UNL     1       3.336   4.690  19.585  0.00  0.00    +0.000 A 
ATOM      5  C   UNL     1       2.663   3.969  18.581  0.00  0.00    +0.000 A 
ATOM      6  C   UNL     1       3.242   3.805  17.317  0.00  0.00    +0.000 A 
ATOM      7  C   UNL     1       4.497   4.369  17.086  0.00  0.00    +0.000 A 
ATOM      8  C   UNL     1       5.298   4.370  15.880  0.00  0.00    +0.000 A 
ATOM      9  C   UNL     1       5.014   3.828  14.627  0.00  0.00    +0.000 A 
ATOM     10  C   UNL     1       5.954   4.006  13.599  0.00  0.00    +0.000 A 
ATOM     11  C   UNL     1       7.150   4.708  13.841  0.00  0.00    +0.000 A 
ATOM     12  C   UNL     1       7.417   5.240  15.114  0.00  0.00    +0.000 A 
ATOM     13  C   UNL     1       6.471   5.063  16.127  0.00  0.00    +0.000 A 
ENDROOT
BRANCH   1  14
ATOM     14  C   UNL     1       7.665   5.040  18.352  0.00  0.00    +0.000 C 
ATOM     15  N   UNL     1       7.943   5.509  19.587  0.00  0.00    +0.000 N 
ATOM     16  O   UNL     1       8.377   4.163  17.879  0.00  0.00    +0.000 OA
ATOM     17  H   UNL     1       7.377   6.256  20.013  0.00  0.00    +0.000 HD
ATOM     18  H   UNL     1       8.746   5.132  20.116  0.00  0.00    +0.000 HD
ENDBRANCH   1  14
BRANCH   1  19
ATOM     19  C   UNL     1       6.545   7.157  17.515  0.00  0.00    +0.000 C 
BRANCH  19  20
ATOM     20  C   UNL     1       7.969   7.707  17.383  0.00  0.00    +0.000 C 
BRANCH  20  21
ATOM     21  C   UNL     1       8.062   9.152  17.874  0.00  0.00    +0.000 C 
BRANCH  21  22
ATOM     22  N   UNL     1       8.891   9.261  19.086  0.00  0.00    +0.000 NA
ATOM     23  H   UNL     1       8.273   9.107  19.917  0.00  0.00    +0.000 HD
BRANCH  22  25
ATOM     24  C   UNL     1       9.191  11.580  18.185  0.00  0.00    +0.000 C 
ATOM     25  C   UNL     1       9.614  10.543  19.242  0.00  0.00    +0.000 C 
ATOM     26  C   UNL     1       9.387  11.079  20.653  0.00  0.00    +0.000 C 
ENDBRANCH  22  25
ENDBRANCH  21  22
ENDBRANCH  20  21
ENDBRANCH  19  20
ENDBRANCH   1  19
TORSDOF 6
ENDMDL
MODEL 3
REMARK VINA RESULT:      -7.9      1.378      1.422
REMARK  Name = 
REMARK  8 active torsions:
REMARK  status: ('A' for Active; 'I' for Inactive)
REMARK    1  A    between atoms: C_1  and  C_2
REMARK    2  A    between atoms: C_2  and  C_3
REMARK    3  A    between atoms: C_2  and  N_4
REMARK    4  A    between atoms: N_4  and  C_5
REMARK    5  A    between atoms: C_5  and  C_6
REMARK    6  A    between atoms: C_6  and  C_7
REMARK    7  A    between atoms: C_7  and  C_8
REMARK    8  A    between atoms: C_8  and  C_9
REMARK                            x       y       z     vdW  Elec       q    Type
REMARK                         _______ _______ _______ _____ _____    ______ ____
ROOT
ATOM      1  C   UNL     1       4.733   4.617  18.461  0.00  0.00    +0.000 C 
ATOM      2  C   UNL     1       3.971   5.930  18.354  0.00  0.00    +0.000 A 
ATOM      3  C   UNL     1       4.191   7.001  17.482  0.00  0.00    +0.000 A 
ATOM      4  C   UNL     1       3.339   8.118  17.552  0.00  0.00    +0.000 A 
ATOM      5  C   UNL     1       2.283   8.150  18.484  0.00  0.00    +0.000 A 
ATOM      6  C   UNL     1       2.069   7.071  19.349  0.00  0.00    +0.000 A 
ATOM      7  C   UNL     1       2.928   5.975  19.265  0.00  0.00    +0.000 A 
ATOM      8  C   UNL     1       2.916   4.736  20.015  0.00  0.00    +0.000 A 
ATOM      9  C   UNL     1       2.028   4.305  21.000  0.00  0.00    +0.000 A 
ATOM     10  C   UNL     1       2.214   3.025  21.546  0.00  0.00    +0.000 A 
ATOM     11  C   UNL     1       3.277   2.212  21.109  0.00  0.00    +0.000 A 
ATOM     12  C   UNL     1       4.163   2.670  20.120  0.00  0.00    +0.000 A 
ATOM     13  C   UNL     1       3.963   3.943  19.579  0.00  0.00    +0.000 A 
ENDROOT
BRANCH   1  14
ATOM     14  C   UNL     1       6.193   4.861  18.829  0.00  0.00    +0.000 C 
ATOM     15  N   UNL     1       7.190   4.250  18.154  0.00  0.00    +0.000 N 
ATOM     16  O   UNL     1       6.477   5.603  19.760  0.00  0.00    +0.000 OA
ATOM     17  H   UNL     1       6.991   3.608  17.375  0.00  0.00    +0.000 HD
ATOM     18  H   UNL     1       8.174   4.410  18.427  0.00  0.00    +0.000 HD
ENDBRANCH   1  14
BRANCH   1  19
ATOM     19  C   UNL     1       4.622   3.775  17.159  0.00  0.00    +0.000 C 
BRANCH  19  20
ATOM     20  C   UNL     1       4.854   4.607  15.894  0.00  0.00    +0.000 C 
BRANCH  20  21
ATOM     21  C   UNL     1       5.718   3.858  14.877  0.00  0.00    +0.000 C 
BRANCH  21  22
ATOM     22  N   UNL     1       5.399   4.256  13.496  0.00  0.00    +0.000 NA
ATOM     23  H   UNL     1       4.392   4.538  13.464  0.00  0.00    +0.000 HD
BRANCH  22  25
ATOM     24  C   UNL     1       4.516   3.140  11.434  0.00  0.00    +0.000 C 
ATOM     25  C   UNL     1       5.654   3.223  12.468  0.00  0.00    +0.000 C 
ATOM     26  C   UNL     1       6.989   3.510  11.787  0.00  0.00    +0.000 C 
ENDBRANCH  22  25
ENDBRANCH  21  22
ENDBRANCH  20  21
ENDBRANCH  19  20
ENDBRANCH   1  19
TORSDOF 6
ENDMDL
MODEL 4
REMARK VINA RESULT:      -7.7      3.243      5.739
REMARK  Name = 
REMARK  8 active torsions:
REMARK  status: ('A' for Active; 'I' for Inactive)
REMARK    1  A    between atoms: C_1  and  C_2
REMARK    2  A    between atoms: C_2  and  C_3
REMARK    3  A    between atoms: C_2  and  N_4
REMARK    4  A    between atoms: N_4  and  C_5
REMARK    5  A    between atoms: C_5  and  C_6
REMARK    6  A    between atoms: C_6  and  C_7
REMARK    7  A    between atoms: C_7  and  C_8
REMARK    8  A    between atoms: C_8  and  C_9
REMARK                            x       y       z     vdW  Elec       q    Type
REMARK                         _______ _______ _______ _____ _____    ______ ____
ROOT
ATOM      1  C   UNL     1       6.331   5.680  17.540  0.00  0.00    +0.000 C 
ATOM      2  C   UNL     1       4.968   5.210  18.028  0.00  0.00    +0.000 A 
ATOM      3  C   UNL     1       4.352   5.443  19.262  0.00  0.00    +0.000 A 
ATOM      4  C   UNL     1       3.067   4.919  19.487  0.00  0.00    +0.000 A 
ATOM      5  C   UNL     1       2.414   4.177  18.484  0.00  0.00    +0.000 A 
ATOM      6  C   UNL     1       3.038   3.954  17.250  0.00  0.00    +0.000 A 
ATOM      7  C   UNL     1       4.315   4.479  17.049  0.00  0.00    +0.000 A 
ATOM      8  C   UNL     1       5.162   4.416  15.877  0.00  0.00    +0.000 A 
ATOM      9  C   UNL     1       4.913   3.835  14.633  0.00  0.00    +0.000 A 
ATOM     10  C   UNL     1       5.896   3.953  13.638  0.00  0.00    +0.000 A 
ATOM     11  C   UNL     1       7.099   4.634  13.902  0.00  0.00    +0.000 A 
ATOM     12  C   UNL     1       7.330   5.206  15.164  0.00  0.00    +0.000 A 
ATOM     13  C   UNL     1       6.342   5.089  16.145  0.00  0.00    +0.000 A 
ENDROOT
BRANCH   1  14
ATOM     14  C   UNL     1       7.448   5.119  18.414  0.00  0.00    +0.000 C 
ATOM     15  N   UNL     1       8.292   4.177  17.941  0.00  0.00    +0.000 N 
ATOM     16  O   UNL     1       7.580   5.507  19.568  0.00  0.00    +0.000 OA
ATOM     17  H   UNL     1       8.204   3.816  16.981  0.00  0.00    +0.000 HD
ATOM     18  H   UNL     1       9.032   3.792  18.551  0.00  0.00    +0.000 HD
ENDBRANCH   1  14
BRANCH   1  19
ATOM     19  C   UNL     1       6.415   7.230  17.459  0.00  0.00    +0.000 C 
BRANCH  19  20
ATOM     20  C   UNL     1       7.856   7.748  17.500  0.00  0.00    +0.000 C 
BRANCH  20  21
ATOM     21  C   UNL     1       7.912   9.230  17.874  0.00  0.00    +0.000 C 
BRANCH  21  22
ATOM     22  N   UNL     1       8.989   9.506  18.839  0.00  0.00    +0.000 NA
ATOM     23  H   UNL     1       8.723   9.074  19.754  0.00  0.00    +0.000 HD
BRANCH  22  25
ATOM     24  C   UNL     1       9.700  11.243  20.499  0.00  0.00    +0.000 C 
ATOM     25  C   UNL     1       9.299  10.938  19.044  0.00  0.00    +0.000 C 
ATOM     26  C   UNL     1      10.401  11.357  18.075  0.00  0.00    +0.000 C 
ENDBRANCH  22  25
ENDBRANCH  21  22
ENDBRANCH  20  21
ENDBRANCH  19  20
ENDBRANCH   1  19
TORSDOF 6
ENDMDL
MODEL 5
REMARK VINA RESULT:      -7.7      1.946      5.571
REMARK  Name = 
REMARK  8 active torsions:
REMARK  status: ('A' for Active; 'I' for Inactive)
REMARK    1  A    between atoms: C_1  and  C_2
REMARK    2  A    between atoms: C_2  and  C_3
REMARK    3  A    between atoms: C_2  and  N_4
REMARK    4  A    between atoms: N_4  and  C_5
REMARK    5  A    between atoms: C_5  and  C_6
REMARK    6  A    between atoms: C_6  and  C_7
REMARK    7  A    between atoms: C_7  and  C_8
REMARK    8  A    between atoms: C_8  and  C_9
REMARK                            x       y       z     vdW  Elec       q    Type
REMARK                         _______ _______ _______ _____ _____    ______ ____
ROOT
ATOM      1  C   UNL     1       4.533   4.292  18.184  0.00  0.00    +0.000 C 
ATOM      2  C   UNL     1       5.198   4.528  16.836  0.00  0.00    +0.000 A 
ATOM      3  C   UNL     1       6.008   3.661  16.095  0.00  0.00    +0.000 A 
ATOM      4  C   UNL     1       6.502   4.092  14.851  0.00  0.00    +0.000 A 
ATOM      5  C   UNL     1       6.182   5.373  14.363  0.00  0.00    +0.000 A 
ATOM      6  C   UNL     1       5.367   6.232  15.110  0.00  0.00    +0.000 A 
ATOM      7  C   UNL     1       4.890   5.786  16.343  0.00  0.00    +0.000 A 
ATOM      8  C   UNL     1       4.024   6.454  17.291  0.00  0.00    +0.000 A 
ATOM      9  C   UNL     1       3.419   7.709  17.209  0.00  0.00    +0.000 A 
ATOM     10  C   UNL     1       2.577   8.109  18.258  0.00  0.00    +0.000 A 
ATOM     11  C   UNL     1       2.364   7.263  19.362  0.00  0.00    +0.000 A 
ATOM     12  C   UNL     1       2.989   6.006  19.427  0.00  0.00    +0.000 A 
ATOM     13  C   UNL     1       3.819   5.615  18.373  0.00  0.00    +0.000 A 
ENDROOT
BRANCH   1  14
ATOM     14  C   UNL     1       5.574   4.037  19.269  0.00  0.00    +0.000 C 
ATOM     15  N   UNL     1       6.598   4.896  19.464  0.00  0.00    +0.000 N 
ATOM     16  O   UNL     1       5.502   3.034  19.967  0.00  0.00    +0.000 OA
ATOM     17  H   UNL     1       6.700   5.743  18.888  0.00  0.00    +0.000 HD
ATOM     18  H   UNL     1       7.306   4.701  20.191  0.00  0.00    +0.000 HD
ENDBRANCH   1  14
BRANCH   1  19
ATOM     19  C   UNL     1       3.497   3.135  18.125  0.00  0.00    +0.000 C 
BRANCH  19  20
ATOM     20  C   UNL     1       2.188   3.546  17.443  0.00  0.00    +0.000 C 
BRANCH  20  21
ATOM     21  C   UNL     1       0.972   3.203  18.305  0.00  0.00    +0.000 C 
BRANCH  21  22
ATOM     22  N   UNL     1       1.321   2.270  19.389  0.00  0.00    +0.000 NA
ATOM     23  H   UNL     1       0.732   1.412  19.281  0.00  0.00    +0.000 HD
BRANCH  22  25
ATOM     24  C   UNL     1       2.441   2.652  21.598  0.00  0.00    +0.000 C 
ATOM     25  C   UNL     1       1.160   2.808  20.758  0.00  0.00    +0.000 C 
ATOM     26  C   UNL     1       0.738   4.273  20.676  0.00  0.00    +0.000 C 
ENDBRANCH  22  25
ENDBRANCH  21  22
ENDBRANCH  20  21
ENDBRANCH  19  20
ENDBRANCH   1  19
TORSDOF 6
ENDMDL
MODEL 6
REMARK VINA RESULT:      -7.7      2.089      5.873
REMARK  Name = 
REMARK  8 active torsions:
REMARK  status: ('A' for Active; 'I' for Inactive)
REMARK    1  A    between atoms: C_1  and  C_2
REMARK    2  A    between atoms: C_2  and  C_3
REMARK    3  A    between atoms: C_2  and  N_4
REMARK    4  A    between atoms: N_4  and  C_5
REMARK    5  A    between atoms: C_5  and  C_6
REMARK    6  A    between atoms: C_6  and  C_7
REMARK    7  A    between atoms: C_7  and  C_8
REMARK    8  A    between atoms: C_8  and  C_9
REMARK                            x       y       z     vdW  Elec       q    Type
REMARK                         _______ _______ _______ _____ _____    ______ ____
ROOT
ATOM      1  C   UNL     1       4.099   4.118  17.857  0.00  0.00    +0.000 C 
ATOM      2  C   UNL     1       4.956   4.355  16.622  0.00  0.00    +0.000 A 
ATOM      3  C   UNL     1       5.713   3.432  15.892  0.00  0.00    +0.000 A 
ATOM      4  C   UNL     1       6.420   3.879  14.761  0.00  0.00    +0.000 A 
ATOM      5  C   UNL     1       6.362   5.232  14.374  0.00  0.00    +0.000 A 
ATOM      6  C   UNL     1       5.598   6.146  15.110  0.00  0.00    +0.000 A 
ATOM      7  C   UNL     1       4.908   5.683  16.230  0.00  0.00    +0.000 A 
ATOM      8  C   UNL     1       4.039   6.401  17.139  0.00  0.00    +0.000 A 
ATOM      9  C   UNL     1       3.647   7.739  17.119  0.00  0.00    +0.000 A 
ATOM     10  C   UNL     1       2.750   8.182  18.103  0.00  0.00    +0.000 A 
ATOM     11  C   UNL     1       2.273   7.293  19.085  0.00  0.00    +0.000 A 
ATOM     12  C   UNL     1       2.688   5.950  19.089  0.00  0.00    +0.000 A 
ATOM     13  C   UNL     1       3.575   5.519  18.100  0.00  0.00    +0.000 A 
ENDROOT
BRANCH   1  14
ATOM     14  C   UNL     1       4.944   3.607  19.020  0.00  0.00    +0.000 C 
ATOM     15  N   UNL     1       4.781   2.354  19.497  0.00  0.00    +0.000 N 
ATOM     16  O   UNL     1       5.771   4.339  19.548  0.00  0.00    +0.000 OA
ATOM     17  H   UNL     1       4.086   1.714  19.088  0.00  0.00    +0.000 HD
ATOM     18  H   UNL     1       5.347   2.028  20.298  0.00  0.00    +0.000 HD
ENDBRANCH   1  14
BRANCH   1  19
ATOM     19  C   UNL     1       2.915   3.153  17.564  0.00  0.00    +0.000 C 
BRANCH  19  20
ATOM     20  C   UNL     1       1.561   3.733  17.986  0.00  0.00    +0.000 C 
BRANCH  20  21
ATOM     21  C   UNL     1       0.749   2.728  18.805  0.00  0.00    +0.000 C 
BRANCH  21  22
ATOM     22  N   UNL     1       0.543   3.194  20.187  0.00  0.00    +0.000 NA
ATOM     23  H   UNL     1       0.358   4.224  20.158  0.00  0.00    +0.000 HD
BRANCH  22  25
ATOM     24  C   UNL     1       2.358   4.213  21.582  0.00  0.00    +0.000 C 
ATOM     25  C   UNL     1       1.662   2.921  21.116  0.00  0.00    +0.000 C 
ATOM     26  C   UNL     1       1.140   2.124  22.309  0.00  0.00    +0.000 C 
ENDBRANCH  22  25
ENDBRANCH  21  22
ENDBRANCH  20  21
ENDBRANCH  19  20
ENDBRANCH   1  19
TORSDOF 6
ENDMDL
MODEL 7
REMARK VINA RESULT:      -7.6      1.435      1.720
REMARK  Name = 
REMARK  8 active torsions:
REMARK  status: ('A' for Active; 'I' for Inactive)
REMARK    1  A    between atoms: C_1  and  C_2
REMARK    2  A    between atoms: C_2  and  C_3
REMARK    3  A    between atoms: C_2  and  N_4
REMARK    4  A    between atoms: N_4  and  C_5
REMARK    5  A    between atoms: C_5  and  C_6
REMARK    6  A    between atoms: C_6  and  C_7
REMARK    7  A    between atoms: C_7  and  C_8
REMARK    8  A    between atoms: C_8  and  C_9
REMARK                            x       y       z     vdW  Elec       q    Type
REMARK                         _______ _______ _______ _____ _____    ______ ____
ROOT
ATOM      1  C   UNL     1       4.514   4.647  18.488  0.00  0.00    +0.000 C 
ATOM      2  C   UNL     1       3.807   5.986  18.342  0.00  0.00    +0.000 A 
ATOM      3  C   UNL     1       4.078   7.026  17.445  0.00  0.00    +0.000 A 
ATOM      4  C   UNL     1       3.271   8.178  17.480  0.00  0.00    +0.000 A 
ATOM      5  C   UNL     1       2.210   8.276  18.400  0.00  0.00    +0.000 A 
ATOM      6  C   UNL     1       1.945   7.228  19.290  0.00  0.00    +0.000 A 
ATOM      7  C   UNL     1       2.759   6.096  19.241  0.00  0.00    +0.000 A 
ATOM      8  C   UNL     1       2.690   4.878  20.021  0.00  0.00    +0.000 A 
ATOM      9  C   UNL     1       1.777   4.508  21.008  0.00  0.00    +0.000 A 
ATOM     10  C   UNL     1       1.906   3.236  21.587  0.00  0.00    +0.000 A 
ATOM     11  C   UNL     1       2.939   2.370  21.181  0.00  0.00    +0.000 A 
ATOM     12  C   UNL     1       3.851   2.767  20.189  0.00  0.00    +0.000 A 
ATOM     13  C   UNL     1       3.708   4.033  19.615  0.00  0.00    +0.000 A 
ENDROOT
BRANCH   1  14
ATOM     14  C   UNL     1       5.980   4.841  18.864  0.00  0.00    +0.000 C 
ATOM     15  N   UNL     1       6.948   4.099  18.285  0.00  0.00    +0.000 N 
ATOM     16  O   UNL     1       6.293   5.664  19.715  0.00  0.00    +0.000 OA
ATOM     17  H   UNL     1       6.723   3.388  17.576  0.00  0.00    +0.000 HD
ATOM     18  H   UNL     1       7.935   4.228  18.564  0.00  0.00    +0.000 HD
ENDBRANCH   1  14
BRANCH   1  19
ATOM     19  C   UNL     1       4.381   3.778  17.206  0.00  0.00    +0.000 C 
BRANCH  19  20
ATOM     20  C   UNL     1       4.887   4.493  15.949  0.00  0.00    +0.000 C 
BRANCH  20  21
ATOM     21  C   UNL     1       5.883   3.631  15.173  0.00  0.00    +0.000 C 
BRANCH  21  22
ATOM     22  N   UNL     1       6.994   4.434  14.637  0.00  0.00    +0.000 NA
ATOM     23  H   UNL     1       7.085   5.295  15.225  0.00  0.00    +0.000 HD
BRANCH  22  25
ATOM     24  C   UNL     1       8.142   5.486  12.673  0.00  0.00    +0.000 C 
ATOM     25  C   UNL     1       6.863   4.821  13.215  0.00  0.00    +0.000 C 
ATOM     26  C   UNL     1       6.497   3.590  12.390  0.00  0.00    +0.000 C 
ENDBRANCH  22  25
ENDBRANCH  21  22
ENDBRANCH  20  21
ENDBRANCH  19  20
ENDBRANCH   1  19
TORSDOF 6
ENDMDL
MODEL 8
REMARK VINA RESULT:      -7.6      1.384      1.541
REMARK  Name = 
REMARK  8 active torsions:
REMARK  status: ('A' for Active; 'I' for Inactive)
REMARK    1  A    between atoms: C_1  and  C_2
REMARK    2  A    between atoms: C_2  and  C_3
REMARK    3  A    between atoms: C_2  and  N_4
REMARK    4  A    between atoms: N_4  and  C_5
REMARK    5  A    between atoms: C_5  and  C_6
REMARK    6  A    between atoms: C_6  and  C_7
REMARK    7  A    between atoms: C_7  and  C_8
REMARK    8  A    between atoms: C_8  and  C_9
REMARK                            x       y       z     vdW  Elec       q    Type
REMARK                         _______ _______ _______ _____ _____    ______ ____
ROOT
ATOM      1  C   UNL     1       5.163   4.543  18.031  0.00  0.00    +0.000 C 
ATOM      2  C   UNL     1       4.393   5.851  17.937  0.00  0.00    +0.000 A 
ATOM      3  C   UNL     1       4.629   6.948  17.100  0.00  0.00    +0.000 A 
ATOM      4  C   UNL     1       3.765   8.055  17.175  0.00  0.00    +0.000 A 
ATOM      5  C   UNL     1       2.682   8.054  18.075  0.00  0.00    +0.000 A 
ATOM      6  C   UNL     1       2.452   6.950  18.905  0.00  0.00    +0.000 A 
ATOM      7  C   UNL     1       3.323   5.863  18.817  0.00  0.00    +0.000 A 
ATOM      8  C   UNL     1       3.299   4.605  19.533  0.00  0.00    +0.000 A 
ATOM      9  C   UNL     1       2.386   4.140  20.479  0.00  0.00    +0.000 A 
ATOM     10  C   UNL     1       2.567   2.848  20.996  0.00  0.00    +0.000 A 
ATOM     11  C   UNL     1       3.650   2.055  20.570  0.00  0.00    +0.000 A 
ATOM     12  C   UNL     1       4.561   2.547  19.620  0.00  0.00    +0.000 A 
ATOM     13  C   UNL     1       4.366   3.833  19.107  0.00  0.00    +0.000 A 
ENDROOT
BRANCH   1  14
ATOM     14  C   UNL     1       6.609   4.788  18.449  0.00  0.00    +0.000 C 
ATOM     15  N   UNL     1       6.898   5.488  19.568  0.00  0.00    +0.000 N 
ATOM     16  O   UNL     1       7.529   4.366  17.761  0.00  0.00    +0.000 OA
ATOM     17  H   UNL     1       6.152   5.870  20.165  0.00  0.00    +0.000 HD
ATOM     18  H   UNL     1       7.883   5.663  19.829  0.00  0.00    +0.000 HD
ENDBRANCH   1  14
BRANCH   1  19
ATOM     19  C   UNL     1       5.098   3.734  16.704  0.00  0.00    +0.000 C 
BRANCH  19  20
ATOM     20  C   UNL     1       5.061   4.634  15.465  0.00  0.00    +0.000 C 
BRANCH  20  21
ATOM     21  C   UNL     1       6.302   4.442  14.592  0.00  0.00    +0.000 C 
BRANCH  21  22
ATOM     22  N   UNL     1       6.212   3.217  13.781  0.00  0.00    +0.000 NA
ATOM     23  H   UNL     1       7.050   2.626  13.990  0.00  0.00    +0.000 HD
BRANCH  22  25
ATOM     24  C   UNL     1       6.963   2.424  11.526  0.00  0.00    +0.000 C 
ATOM     25  C   UNL     1       6.115   3.434  12.320  0.00  0.00    +0.000 C 
ATOM     26  C   UNL     1       4.650   3.366  11.898  0.00  0.00    +0.000 C 
ENDBRANCH  22  25
ENDBRANCH  21  22
ENDBRANCH  20  21
ENDBRANCH  19  20
ENDBRANCH   1  19
TORSDOF 6
ENDMDL
MODEL 9
REMARK VINA RESULT:      -7.5      2.052      4.230
REMARK  Name = 
REMARK  8 active torsions:
REMARK  status: ('A' for Active; 'I' for Inactive)
REMARK    1  A    between atoms: C_1  and  C_2
REMARK    2  A    between atoms: C_2  and  C_3
REMARK    3  A    between atoms: C_2  and  N_4
REMARK    4  A    between atoms: N_4  and  C_5
REMARK    5  A    between atoms: C_5  and  C_6
REMARK    6  A    between atoms: C_6  and  C_7
REMARK    7  A    between atoms: C_7  and  C_8
REMARK    8  A    between atoms: C_8  and  C_9
REMARK                            x       y       z     vdW  Elec       q    Type
REMARK                         _______ _______ _______ _____ _____    ______ ____
ROOT
ATOM      1  C   UNL     1       4.617   5.906  17.080  0.00  0.00    +0.000 C 
ATOM      2  C   UNL     1       4.055   4.668  17.763  0.00  0.00    +0.000 A 
ATOM      3  C   UNL     1       2.867   3.982  17.491  0.00  0.00    +0.000 A 
ATOM      4  C   UNL     1       2.557   2.838  18.248  0.00  0.00    +0.000 A 
ATOM      5  C   UNL     1       3.431   2.394  19.259  0.00  0.00    +0.000 A 
ATOM      6  C   UNL     1       4.619   3.087  19.521  0.00  0.00    +0.000 A 
ATOM      7  C   UNL     1       4.906   4.221  18.761  0.00  0.00    +0.000 A 
ATOM      8  C   UNL     1       6.060   5.093  18.809  0.00  0.00    +0.000 A 
ATOM      9  C   UNL     1       7.198   5.015  19.611  0.00  0.00    +0.000 A 
ATOM     10  C   UNL     1       8.206   5.975  19.429  0.00  0.00    +0.000 A 
ATOM     11  C   UNL     1       8.057   6.989  18.464  0.00  0.00    +0.000 A 
ATOM     12  C   UNL     1       6.899   7.052  17.672  0.00  0.00    +0.000 A 
ATOM     13  C   UNL     1       5.905   6.087  17.858  0.00  0.00    +0.000 A 
ENDROOT
BRANCH   1  14
ATOM     14  C   UNL     1       3.674   7.095  17.240  0.00  0.00    +0.000 C 
ATOM     15  N   UNL     1       2.926   7.242  18.355  0.00  0.00    +0.000 N 
ATOM     16  O   UNL     1       3.571   7.923  16.345  0.00  0.00    +0.000 OA
ATOM     17  H   UNL     1       2.975   6.559  19.123  0.00  0.00    +0.000 HD
ATOM     18  H   UNL     1       2.278   8.042  18.441  0.00  0.00    +0.000 HD
ENDBRANCH   1  14
BRANCH   1  19
ATOM     19  C   UNL     1       4.935   5.647  15.581  0.00  0.00    +0.000 C 
BRANCH  19  20
ATOM     20  C   UNL     1       5.834   4.425  15.369  0.00  0.00    +0.000 C 
BRANCH  20  21
ATOM     21  C   UNL     1       6.364   4.357  13.936  0.00  0.00    +0.000 C 
BRANCH  21  22
ATOM     22  N   UNL     1       6.147   3.028  13.339  0.00  0.00    +0.000 NA
ATOM     23  H   UNL     1       6.976   2.431  13.566  0.00  0.00    +0.000 HD
BRANCH  22  25
ATOM     24  C   UNL     1       6.443   1.736  11.213  0.00  0.00    +0.000 C 
ATOM     25  C   UNL     1       5.923   3.024  11.876  0.00  0.00    +0.000 C 
ATOM     26  C   UNL     1       4.435   3.219  11.595  0.00  0.00    +0.000 C 
ENDBRANCH  22  25
ENDBRANCH  21  22
ENDBRANCH  20  21
ENDBRANCH  19  20
ENDBRANCH   1  19
TORSDOF 6
ENDMDL
