MODEL 1
REMARK VINA RESULT:      -8.0      0.000      0.000
REMARK  Name = 
REMARK  5 active torsions:
REMARK  status: ('A' for Active; 'I' for Inactive)
REMARK    1  A    between atoms: N_1  and  C_2
REMARK    2  A    between atoms: C_5  and  C_6
REMARK    3  A    between atoms: C_6  and  C_8
REMARK    4  A    between atoms: C_8  and  C_9
REMARK    5  A    between atoms: C_9  and  O_10
REMARK                            x       y       z     vdW  Elec       q    Type
REMARK                         _______ _______ _______ _____ _____    ______ ____
ROOT
ATOM      1  C   UNL     1      -3.715  13.213  22.253  0.00  0.00    +0.000 C 
ATOM      2  C   UNL     1      -5.176  13.218  22.667  0.00  0.00    +0.000 A 
ATOM      3  C   UNL     1      -5.743  13.635  23.865  0.00  0.00    +0.000 A 
ATOM      4  C   UNL     1      -7.124  13.508  24.023  0.00  0.00    +0.000 A 
ATOM      5  C   UNL     1      -7.915  12.965  22.999  0.00  0.00    +0.000 A 
ATOM      6  C   UNL     1      -7.339  12.545  21.797  0.00  0.00    +0.000 A 
ATOM      7  C   UNL     1      -5.973  12.685  21.643  0.00  0.00    +0.000 A 
ATOM      8  N   UNL     1      -5.171  12.364  20.537  0.00  0.00    +0.000 N 
ATOM      9  C   UNL     1      -3.845  12.692  20.799  0.00  0.00    +0.000 A 
ATOM     10  N   UNL     1      -2.876  12.557  19.956  0.00  0.00    +0.000 NA
ATOM     11  C   UNL     1      -3.195  11.980  18.714  0.00  0.00    +0.000 A 
ATOM     12  C   UNL     1      -2.148  11.697  17.836  0.00  0.00    +0.000 A 
ATOM     13  C   UNL     1      -2.390  11.040  16.627  0.00  0.00    +0.000 A 
ATOM     14  C   UNL     1      -3.690  10.681  16.274  0.00  0.00    +0.000 A 
ATOM     15  C   UNL     1      -4.749  10.963  17.137  0.00  0.00    +0.000 A 
ATOM     16  C   UNL     1      -4.496  11.604  18.357  0.00  0.00    +0.000 A 
ATOM     17  C   UNL     1      -5.588  11.839  19.332  0.00  0.00    +0.000 A 
ATOM     18  O   UNL     1      -6.741  11.532  19.032  0.00  0.00    +0.000 OA
ENDROOT
BRANCH   1  19
ATOM     19  O   UNL     1      -3.224  14.538  22.290  0.00  0.00    +0.000 OA
ATOM     20  H   UNL     1      -2.337  14.530  22.685  0.00  0.00    +0.000 HD
ENDBRANCH   1  19
BRANCH   1  21
ATOM     21  C   UNL     1      -2.947  12.252  23.169  0.00  0.00    +0.000 C 
BRANCH  21  22
ATOM     22  C   UNL     1      -1.438  12.318  23.060  0.00  0.00    +0.000 C 
ATOM     23  O   UNL     1      -0.832  13.300  23.497  0.00  0.00    +0.000 OA
BRANCH  22  27
ATOM     24  C   UNL     1       0.844   9.041  21.407  0.00  0.00    +0.000 A 
ATOM     25  C   UNL     1       0.828  10.296  20.799  0.00  0.00    +0.000 A 
ATOM     26  C   UNL     1       0.067  11.339  21.339  0.00  0.00    +0.000 A 
ATOM     27  C   UNL     1      -0.657  11.157  22.525  0.00  0.00    +0.000 A 
ATOM     28  C   UNL     1      -0.587   9.918  23.169  0.00  0.00    +0.000 A 
ATOM     29  C   UNL     1       0.166   8.875  22.616  0.00  0.00    +0.000 A 
BRANCH  24  30
ATOM     30  N   UNL     1       1.715   8.048  20.946  0.00  0.00    +0.000 N 
ATOM     31  H   UNL     1       1.521   7.738  19.999  0.00  0.00    +0.000 HD
ATOM     32  H   UNL     1       1.838   7.274  21.589  0.00  0.00    +0.000 HD
ENDBRANCH  24  30
ENDBRANCH  22  27
ENDBRANCH  21  22
ENDBRANCH   1  21
TORSDOF 5
ENDMDL
MODEL 2
REMARK VINA RESULT:      -7.6      2.325      3.809
REMARK  Name = 
REMARK  5 active torsions:
REMARK  status: ('A' for Active; 'I' for Inactive)
REMARK    1  A    between atoms: N_1  and  C_2
REMARK    2  A    between atoms: C_5  and  C_6
REMARK    3  A    between atoms: C_6  and  C_8
REMARK    4  A    between atoms: C_8  and  C_9
REMARK    5  A    between atoms: C_9  and  O_10
REMARK                            x       y       z     vdW  Elec       q    Type
REMARK                         _______ _______ _______ _____ _____    ______ ____
ROOT
ATOM      1  C   UNL     1      -0.520  11.114  20.753  0.00  0.00    +0.000 C 
ATOM      2  C   UNL     1      -1.335  12.014  21.666  0.00  0.00    +0.000 A 
ATOM      3  C   UNL     1      -1.039  12.454  22.950  0.00  0.00    +0.000 A 
ATOM      4  C   UNL     1      -1.973  13.258  23.606  0.00  0.00    +0.000 A 
ATOM      5  C   UNL     1      -3.183  13.603  22.985  0.00  0.00    +0.000 A 
ATOM      6  C   UNL     1      -3.476  13.156  21.694  0.00  0.00    +0.000 A 
ATOM      7  C   UNL     1      -2.542  12.371  21.046  0.00  0.00    +0.000 A 
ATOM      8  N   UNL     1      -2.590  11.824  19.754  0.00  0.00    +0.000 N 
ATOM      9  C   UNL     1      -1.420  11.118  19.492  0.00  0.00    +0.000 A 
ATOM     10  N   UNL     1      -1.149  10.539  18.369  0.00  0.00    +0.000 NA
ATOM     11  C   UNL     1      -2.145  10.588  17.378  0.00  0.00    +0.000 A 
ATOM     12  C   UNL     1      -1.936   9.858  16.206  0.00  0.00    +0.000 A 
ATOM     13  C   UNL     1      -2.927   9.791  15.223  0.00  0.00    +0.000 A 
ATOM     14  C   UNL     1      -4.130  10.476  15.393  0.00  0.00    +0.000 A 
ATOM     15  C   UNL     1      -4.351  11.216  16.555  0.00  0.00    +0.000 A 
ATOM     16  C   UNL     1      -3.361  11.262  17.545  0.00  0.00    +0.000 A 
ATOM     17  C   UNL     1      -3.601  11.968  18.827  0.00  0.00    +0.000 A 
ATOM     18  O   UNL     1      -4.655  12.581  18.990  0.00  0.00    +0.000 OA
ENDROOT
BRANCH   1  19
ATOM     19  O   UNL     1       0.729  11.724  20.505  0.00  0.00    +0.000 OA
ATOM     20  H   UNL     1       1.422  11.208  20.948  0.00  0.00    +0.000 HD
ENDBRANCH   1  19
BRANCH   1  21
ATOM     21  C   UNL     1      -0.404   9.730  21.404  0.00  0.00    +0.000 C 
BRANCH  21  22
ATOM     22  C   UNL     1       1.004   9.184  21.520  0.00  0.00    +0.000 C 
ATOM     23  O   UNL     1       1.696   9.471  22.499  0.00  0.00    +0.000 OA
BRANCH  22  27
ATOM     24  C   UNL     1       2.528   6.274  18.710  0.00  0.00    +0.000 A 
ATOM     25  C   UNL     1       2.145   5.909  20.001  0.00  0.00    +0.000 A 
ATOM     26  C   UNL     1       1.672   6.869  20.901  0.00  0.00    +0.000 A 
ATOM     27  C   UNL     1       1.531   8.208  20.512  0.00  0.00    +0.000 A 
ATOM     28  C   UNL     1       1.852   8.561  19.198  0.00  0.00    +0.000 A 
ATOM     29  C   UNL     1       2.337   7.596  18.306  0.00  0.00    +0.000 A 
BRANCH  24  30
ATOM     30  N   UNL     1       2.862   5.292  17.771  0.00  0.00    +0.000 N 
ATOM     31  H   UNL     1       3.790   5.401  17.375  0.00  0.00    +0.000 HD
ATOM     32  H   UNL     1       2.154   5.138  17.062  0.00  0.00    +0.000 HD
ENDBRANCH  24  30
ENDBRANCH  22  27
ENDBRANCH  21  22
ENDBRANCH   1  21
TORSDOF 5
ENDMDL
MODEL 3
REMARK VINA RESULT:      -7.5     10.157     12.746
REMARK  Name = 
REMARK  5 active torsions:
REMARK  status: ('A' for Active; 'I' for Inactive)
REMARK    1  A    between atoms: N_1  and  C_2
REMARK    2  A    between atoms: C_5  and  C_6
REMARK    3  A    between atoms: C_6  and  C_8
REMARK    4  A    between atoms: C_8  and  C_9
REMARK    5  A    between atoms: C_9  and  O_10
REMARK                            x       y       z     vdW  Elec       q    Type
REMARK                         _______ _______ _______ _____ _____    ______ ____
ROOT
ATOM      1  C   UNL     1       6.681   5.108  17.292  0.00  0.00    +0.000 C 
ATOM      2  C   UNL     1       6.518   4.687  15.841  0.00  0.00    +0.000 A 
ATOM      3  C   UNL     1       7.430   4.783  14.797  0.00  0.00    +0.000 A 
ATOM      4  C   UNL     1       7.031   4.354  13.529  0.00  0.00    +0.000 A 
ATOM      5  C   UNL     1       5.739   3.849  13.318  0.00  0.00    +0.000 A 
ATOM      6  C   UNL     1       4.826   3.758  14.371  0.00  0.00    +0.000 A 
ATOM      7  C   UNL     1       5.232   4.173  15.626  0.00  0.00    +0.000 A 
ATOM      8  N   UNL     1       4.518   4.160  16.834  0.00  0.00    +0.000 N 
ATOM      9  C   UNL     1       5.317   4.645  17.864  0.00  0.00    +0.000 A 
ATOM     10  N   UNL     1       4.956   4.714  19.102  0.00  0.00    +0.000 NA
ATOM     11  C   UNL     1       3.638   4.322  19.398  0.00  0.00    +0.000 A 
ATOM     12  C   UNL     1       3.177   4.512  20.701  0.00  0.00    +0.000 A 
ATOM     13  C   UNL     1       1.850   4.229  21.036  0.00  0.00    +0.000 A 
ATOM     14  C   UNL     1       0.976   3.729  20.071  0.00  0.00    +0.000 A 
ATOM     15  C   UNL     1       1.423   3.526  18.765  0.00  0.00    +0.000 A 
ATOM     16  C   UNL     1       2.750   3.831  18.433  0.00  0.00    +0.000 A 
ATOM     17  C   UNL     1       3.230   3.708  17.035  0.00  0.00    +0.000 A 
ATOM     18  O   UNL     1       2.473   3.263  16.174  0.00  0.00    +0.000 OA
ENDROOT
BRANCH   1  19
ATOM     19  O   UNL     1       7.756   4.389  17.859  0.00  0.00    +0.000 OA
ATOM     20  H   UNL     1       8.219   4.966  18.488  0.00  0.00    +0.000 HD
ENDBRANCH   1  19
BRANCH   1  21
ATOM     21  C   UNL     1       6.869   6.629  17.344  0.00  0.00    +0.000 C 
BRANCH  21  22
ATOM     22  C   UNL     1       7.835   7.127  18.400  0.00  0.00    +0.000 C 
ATOM     23  O   UNL     1       8.339   6.332  19.196  0.00  0.00    +0.000 OA
BRANCH  22  27
ATOM     24  C   UNL     1       9.031  11.280  18.348  0.00  0.00    +0.000 A 
ATOM     25  C   UNL     1       8.121  10.773  17.421  0.00  0.00    +0.000 A 
ATOM     26  C   UNL     1       7.761   9.421  17.442  0.00  0.00    +0.000 A 
ATOM     27  C   UNL     1       8.273   8.560  18.422  0.00  0.00    +0.000 A 
ATOM     28  C   UNL     1       9.133   9.084  19.392  0.00  0.00    +0.000 A 
ATOM     29  C   UNL     1       9.499  10.435  19.356  0.00  0.00    +0.000 A 
BRANCH  24  30
ATOM     30  N   UNL     1       9.277  12.656  18.413  0.00  0.00    +0.000 N 
ATOM     31  H   UNL     1      10.158  12.896  18.856  0.00  0.00    +0.000 HD
ATOM     32  H   UNL     1       8.501  13.199  18.774  0.00  0.00    +0.000 HD
ENDBRANCH  24  30
ENDBRANCH  22  27
ENDBRANCH  21  22
ENDBRANCH   1  21
TORSDOF 5
ENDMDL
MODEL 4
REMARK VINA RESULT:      -7.1      4.455      7.433
REMARK  Name = 
REMARK  5 active torsions:
REMARK  status: ('A' for Active; 'I' for Inactive)
REMARK    1  A    between atoms: N_1  and  C_2
REMARK    2  A    between atoms: C_5  and  C_6
REMARK    3  A    between atoms: C_6  and  C_8
REMARK    4  A    between atoms: C_8  and  C_9
REMARK    5  A    between atoms: C_9  and  O_10
REMARK                            x       y       z     vdW  Elec       q    Type
REMARK                         _______ _______ _______ _____ _____    ______ ____
ROOT
ATOM      1  C   UNL     1       0.860  11.232  19.489  0.00  0.00    +0.000 C 
ATOM      2  C   UNL     1       0.100  11.045  20.790  0.00  0.00    +0.000 A 
ATOM      3  C   UNL     1      -0.673  11.964  21.490  0.00  0.00    +0.000 A 
ATOM      4  C   UNL     1      -1.251  11.560  22.696  0.00  0.00    +0.000 A 
ATOM      5  C   UNL     1      -1.046  10.262  23.188  0.00  0.00    +0.000 A 
ATOM      6  C   UNL     1      -0.266   9.344  22.481  0.00  0.00    +0.000 A 
ATOM      7  C   UNL     1       0.293   9.746  21.283  0.00  0.00    +0.000 A 
ATOM      8  N   UNL     1       1.085   9.012  20.387  0.00  0.00    +0.000 N 
ATOM      9  C   UNL     1       1.414   9.799  19.288  0.00  0.00    +0.000 A 
ATOM     10  N   UNL     1       2.097   9.389  18.271  0.00  0.00    +0.000 NA
ATOM     11  C   UNL     1       2.583   8.071  18.327  0.00  0.00    +0.000 A 
ATOM     12  C   UNL     1       3.436   7.646  17.308  0.00  0.00    +0.000 A 
ATOM     13  C   UNL     1       4.026   6.380  17.354  0.00  0.00    +0.000 A 
ATOM     14  C   UNL     1       3.748   5.516  18.414  0.00  0.00    +0.000 A 
ATOM     15  C   UNL     1       2.892   5.924  19.437  0.00  0.00    +0.000 A 
ATOM     16  C   UNL     1       2.320   7.202  19.393  0.00  0.00    +0.000 A 
ATOM     17  C   UNL     1       1.475   7.695  20.508  0.00  0.00    +0.000 A 
ATOM     18  O   UNL     1       1.216   6.943  21.447  0.00  0.00    +0.000 OA
ENDROOT
BRANCH   1  19
ATOM     19  O   UNL     1      -0.055  11.585  18.471  0.00  0.00    +0.000 OA
ATOM     20  H   UNL     1      -0.637  12.286  18.806  0.00  0.00    +0.000 HD
ENDBRANCH   1  19
BRANCH   1  21
ATOM     21  C   UNL     1       1.961  12.277  19.708  0.00  0.00    +0.000 C 
BRANCH  21  22
ATOM     22  C   UNL     1       2.325  13.102  18.491  0.00  0.00    +0.000 C 
ATOM     23  O   UNL     1       2.830  12.556  17.507  0.00  0.00    +0.000 OA
BRANCH  22  27
ATOM     24  C   UNL     1       1.199  17.272  18.332  0.00  0.00    +0.000 A 
ATOM     25  C   UNL     1       0.348  16.308  18.873  0.00  0.00    +0.000 A 
ATOM     26  C   UNL     1       0.723  14.960  18.898  0.00  0.00    +0.000 A 
ATOM     27  C   UNL     1       1.977  14.558  18.421  0.00  0.00    +0.000 A 
ATOM     28  C   UNL     1       2.856  15.534  17.940  0.00  0.00    +0.000 A 
ATOM     29  C   UNL     1       2.469  16.878  17.906  0.00  0.00    +0.000 A 
BRANCH  24  30
ATOM     30  N   UNL     1       0.882  18.630  18.440  0.00  0.00    +0.000 N 
ATOM     31  H   UNL     1      -0.094  18.808  18.655  0.00  0.00    +0.000 HD
ATOM     32  H   UNL     1       1.218  19.197  17.669  0.00  0.00    +0.000 HD
ENDBRANCH  24  30
ENDBRANCH  22  27
ENDBRANCH  21  22
ENDBRANCH   1  21
TORSDOF 5
ENDMDL
MODEL 5
REMARK VINA RESULT:      -7.0      7.356     11.822
REMARK  Name = 
REMARK  5 active torsions:
REMARK  status: ('A' for Active; 'I' for Inactive)
REMARK    1  A    between atoms: N_1  and  C_2
REMARK    2  A    between atoms: C_5  and  C_6
REMARK    3  A    between atoms: C_6  and  C_8
REMARK    4  A    between atoms: C_8  and  C_9
REMARK    5  A    between atoms: C_9  and  O_10
REMARK                            x       y       z     vdW  Elec       q    Type
REMARK                         _______ _______ _______ _____ _____    ______ ____
ROOT
ATOM      1  C   UNL     1       5.968   5.421  18.030  0.00  0.00    +0.000 C 
ATOM      2  C   UNL     1       6.136   4.944  16.598  0.00  0.00    +0.000 A 
ATOM      3  C   UNL     1       7.102   5.305  15.666  0.00  0.00    +0.000 A 
ATOM      4  C   UNL     1       7.027   4.750  14.387  0.00  0.00    +0.000 A 
ATOM      5  C   UNL     1       5.996   3.859  14.053  0.00  0.00    +0.000 A 
ATOM      6  C   UNL     1       5.026   3.502  14.993  0.00  0.00    +0.000 A 
ATOM      7  C   UNL     1       5.114   4.046  16.261  0.00  0.00    +0.000 A 
ATOM      8  N   UNL     1       4.287   3.829  17.374  0.00  0.00    +0.000 N 
ATOM      9  C   UNL     1       4.753   4.561  18.462  0.00  0.00    +0.000 A 
ATOM     10  N   UNL     1       4.229   4.533  19.642  0.00  0.00    +0.000 NA
ATOM     11  C   UNL     1       3.072   3.750  19.801  0.00  0.00    +0.000 A 
ATOM     12  C   UNL     1       2.407   3.808  21.027  0.00  0.00    +0.000 A 
ATOM     13  C   UNL     1       1.202   3.126  21.216  0.00  0.00    +0.000 A 
ATOM     14  C   UNL     1       0.662   2.358  20.185  0.00  0.00    +0.000 A 
ATOM     15  C   UNL     1       1.318   2.284  18.956  0.00  0.00    +0.000 A 
ATOM     16  C   UNL     1       2.515   2.987  18.767  0.00  0.00    +0.000 A 
ATOM     17  C   UNL     1       3.190   2.997  17.446  0.00  0.00    +0.000 A 
ATOM     18  O   UNL     1       2.728   2.320  16.528  0.00  0.00    +0.000 OA
ENDROOT
BRANCH   1  19
ATOM     19  O   UNL     1       7.129   5.088  18.763  0.00  0.00    +0.000 OA
ATOM     20  H   UNL     1       7.575   5.908  19.028  0.00  0.00    +0.000 HD
ENDBRANCH   1  19
BRANCH   1  21
ATOM     21  C   UNL     1       5.665   6.924  18.016  0.00  0.00    +0.000 C 
BRANCH  21  22
ATOM     22  C   UNL     1       4.384   7.321  17.310  0.00  0.00    +0.000 C 
ATOM     23  O   UNL     1       4.250   7.093  16.106  0.00  0.00    +0.000 OA
BRANCH  22  27
ATOM     24  C   UNL     1       1.068   8.861  19.616  0.00  0.00    +0.000 A 
ATOM     25  C   UNL     1       1.832   7.785  20.068  0.00  0.00    +0.000 A 
ATOM     26  C   UNL     1       2.889   7.289  19.298  0.00  0.00    +0.000 A 
ATOM     27  C   UNL     1       3.231   7.890  18.079  0.00  0.00    +0.000 A 
ATOM     28  C   UNL     1       2.507   9.011  17.659  0.00  0.00    +0.000 A 
ATOM     29  C   UNL     1       1.442   9.494  18.429  0.00  0.00    +0.000 A 
BRANCH  24  30
ATOM     30  N   UNL     1       0.109   9.442  20.451  0.00  0.00    +0.000 N 
ATOM     31  H   UNL     1       0.242   9.237  21.436  0.00  0.00    +0.000 HD
ATOM     32  H   UNL     1      -0.848   9.292  20.151  0.00  0.00    +0.000 HD
ENDBRANCH  24  30
ENDBRANCH  22  27
ENDBRANCH  21  22
ENDBRANCH   1  21
TORSDOF 5
ENDMDL
MODEL 6
REMARK VINA RESULT:      -7.0      1.124      1.338
REMARK  Name = 
REMARK  5 active torsions:
REMARK  status: ('A' for Active; 'I' for Inactive)
REMARK    1  A    between atoms: N_1  and  C_2
REMARK    2  A    between atoms: C_5  and  C_6
REMARK    3  A    between atoms: C_6  and  C_8
REMARK    4  A    between atoms: C_8  and  C_9
REMARK    5  A    between atoms: C_9  and  O_10
REMARK                            x       y       z     vdW  Elec       q    Type
REMARK                         _______ _______ _______ _____ _____    ______ ____
ROOT
ATOM      1  C   UNL     1      -3.451  13.096  21.816  0.00  0.00    +0.000 C 
ATOM      2  C   UNL     1      -4.869  13.050  22.359  0.00  0.00    +0.000 A 
ATOM      3  C   UNL     1      -5.340  13.443  23.606  0.00  0.00    +0.000 A 
ATOM      4  C   UNL     1      -6.697  13.268  23.885  0.00  0.00    +0.000 A 
ATOM      5  C   UNL     1      -7.557  12.702  22.933  0.00  0.00    +0.000 A 
ATOM      6  C   UNL     1      -7.077  12.306  21.681  0.00  0.00    +0.000 A 
ATOM      7  C   UNL     1      -5.736  12.493  21.407  0.00  0.00    +0.000 A 
ATOM      8  N   UNL     1      -5.025  12.205  20.231  0.00  0.00    +0.000 N 
ATOM      9  C   UNL     1      -3.693  12.577  20.377  0.00  0.00    +0.000 A 
ATOM     10  N   UNL     1      -2.799  12.479  19.449  0.00  0.00    +0.000 NA
ATOM     11  C   UNL     1      -3.209  11.896  18.237  0.00  0.00    +0.000 A 
ATOM     12  C   UNL     1      -2.236  11.652  17.267  0.00  0.00    +0.000 A 
ATOM     13  C   UNL     1      -2.562  10.992  16.079  0.00  0.00    +0.000 A 
ATOM     14  C   UNL     1      -3.876  10.590  15.841  0.00  0.00    +0.000 A 
ATOM     15  C   UNL     1      -4.862  10.832  16.797  0.00  0.00    +0.000 A 
ATOM     16  C   UNL     1      -4.523  11.477  17.994  0.00  0.00    +0.000 A 
ATOM     17  C   UNL     1      -5.531  11.671  19.064  0.00  0.00    +0.000 A 
ATOM     18  O   UNL     1      -6.695  11.326  18.866  0.00  0.00    +0.000 OA
ENDROOT
BRANCH   1  19
ATOM     19  O   UNL     1      -3.004  14.437  21.819  0.00  0.00    +0.000 OA
ATOM     20  H   UNL     1      -2.081  14.456  22.118  0.00  0.00    +0.000 HD
ENDBRANCH   1  19
BRANCH   1  21
ATOM     21  C   UNL     1      -2.573  12.159  22.653  0.00  0.00    +0.000 C 
BRANCH  21  22
ATOM     22  C   UNL     1      -1.079  12.354  22.494  0.00  0.00    +0.000 C 
ATOM     23  O   UNL     1      -0.433  12.906  23.387  0.00  0.00    +0.000 OA
BRANCH  22  27
ATOM     24  C   UNL     1       1.051  10.845  19.049  0.00  0.00    +0.000 A 
ATOM     25  C   UNL     1       1.157  12.178  19.444  0.00  0.00    +0.000 A 
ATOM     26  C   UNL     1       0.444  12.652  20.551  0.00  0.00    +0.000 A 
ATOM     27  C   UNL     1      -0.355  11.788  21.311  0.00  0.00    +0.000 A 
ATOM     28  C   UNL     1      -0.407  10.436  20.954  0.00  0.00    +0.000 A 
ATOM     29  C   UNL     1       0.299   9.972  19.838  0.00  0.00    +0.000 A 
BRANCH  24  30
ATOM     30  N   UNL     1       1.874  10.345  18.034  0.00  0.00    +0.000 N 
ATOM     31  H   UNL     1       1.451   9.597  17.494  0.00  0.00    +0.000 HD
ATOM     32  H   UNL     1       2.815  10.120  18.336  0.00  0.00    +0.000 HD
ENDBRANCH  24  30
ENDBRANCH  22  27
ENDBRANCH  21  22
ENDBRANCH   1  21
TORSDOF 5
ENDMDL
MODEL 7
REMARK VINA RESULT:      -6.9      4.413      7.195
REMARK  Name = 
REMARK  5 active torsions:
REMARK  status: ('A' for Active; 'I' for Inactive)
REMARK    1  A    between atoms: N_1  and  C_2
REMARK    2  A    between atoms: C_5  and  C_6
REMARK    3  A    between atoms: C_6  and  C_8
REMARK    4  A    between atoms: C_8  and  C_9
REMARK    5  A    between atoms: C_9  and  O_10
REMARK                            x       y       z     vdW  Elec       q    Type
REMARK                         _______ _______ _______ _____ _____    ______ ____
ROOT
ATOM      1  C   UNL     1       0.837  11.331  19.364  0.00  0.00    +0.000 C 
ATOM      2  C   UNL     1       0.084  11.204  20.677  0.00  0.00    +0.000 A 
ATOM      3  C   UNL     1      -0.680  12.157  21.341  0.00  0.00    +0.000 A 
ATOM      4  C   UNL     1      -1.252  11.808  22.566  0.00  0.00    +0.000 A 
ATOM      5  C   UNL     1      -1.053  10.532  23.113  0.00  0.00    +0.000 A 
ATOM      6  C   UNL     1      -0.282   9.579  22.441  0.00  0.00    +0.000 A 
ATOM      7  C   UNL     1       0.272   9.926  21.224  0.00  0.00    +0.000 A 
ATOM      8  N   UNL     1       1.054   9.150  20.355  0.00  0.00    +0.000 N 
ATOM      9  C   UNL     1       1.381   9.887  19.222  0.00  0.00    +0.000 A 
ATOM     10  N   UNL     1       2.055   9.430  18.219  0.00  0.00    +0.000 NA
ATOM     11  C   UNL     1       2.535   8.112  18.329  0.00  0.00    +0.000 A 
ATOM     12  C   UNL     1       3.379   7.638  17.325  0.00  0.00    +0.000 A 
ATOM     13  C   UNL     1       3.962   6.371  17.422  0.00  0.00    +0.000 A 
ATOM     14  C   UNL     1       3.684   5.556  18.519  0.00  0.00    +0.000 A 
ATOM     15  C   UNL     1       2.837   6.012  19.528  0.00  0.00    +0.000 A 
ATOM     16  C   UNL     1       2.272   7.291  19.433  0.00  0.00    +0.000 A 
ATOM     17  C   UNL     1       1.438   7.837  20.531  0.00  0.00    +0.000 A 
ATOM     18  O   UNL     1       1.180   7.127  21.503  0.00  0.00    +0.000 OA
ENDROOT
BRANCH   1  19
ATOM     19  O   UNL     1      -0.082  11.645  18.338  0.00  0.00    +0.000 OA
ATOM     20  H   UNL     1      -0.945  11.263  18.564  0.00  0.00    +0.000 HD
ENDBRANCH   1  19
BRANCH   1  21
ATOM     21  C   UNL     1       1.945  12.377  19.532  0.00  0.00    +0.000 C 
BRANCH  21  22
ATOM     22  C   UNL     1       1.763  13.649  18.731  0.00  0.00    +0.000 C 
ATOM     23  O   UNL     1       2.150  13.700  17.561  0.00  0.00    +0.000 OA
BRANCH  22  27
ATOM     24  C   UNL     1      -0.287  17.026  20.485  0.00  0.00    +0.000 A 
ATOM     25  C   UNL     1       0.967  16.618  20.941  0.00  0.00    +0.000 A 
ATOM     26  C   UNL     1       1.605  15.511  20.372  0.00  0.00    +0.000 A 
ATOM     27  C   UNL     1       1.020  14.817  19.306  0.00  0.00    +0.000 A 
ATOM     28  C   UNL     1      -0.206  15.267  18.805  0.00  0.00    +0.000 A 
ATOM     29  C   UNL     1      -0.845  16.368  19.387  0.00  0.00    +0.000 A 
BRANCH  24  30
ATOM     30  N   UNL     1      -0.854  18.214  20.957  0.00  0.00    +0.000 N 
ATOM     31  H   UNL     1      -0.357  19.050  20.667  0.00  0.00    +0.000 HD
ATOM     32  H   UNL     1      -1.059  18.210  21.950  0.00  0.00    +0.000 HD
ENDBRANCH  24  30
ENDBRANCH  22  27
ENDBRANCH  21  22
ENDBRANCH   1  21
TORSDOF 5
ENDMDL
MODEL 8
REMARK VINA RESULT:      -6.9      3.432      6.575
REMARK  Name = 
REMARK  5 active torsions:
REMARK  status: ('A' for Active; 'I' for Inactive)
REMARK    1  A    between atoms: N_1  and  C_2
REMARK    2  A    between atoms: C_5  and  C_6
REMARK    3  A    between atoms: C_6  and  C_8
REMARK    4  A    between atoms: C_8  and  C_9
REMARK    5  A    between atoms: C_9  and  O_10
REMARK                            x       y       z     vdW  Elec       q    Type
REMARK                         _______ _______ _______ _____ _____    ______ ____
ROOT
ATOM      1  C   UNL     1       0.048  11.182  20.320  0.00  0.00    +0.000 C 
ATOM      2  C   UNL     1       0.899  12.215  19.601  0.00  0.00    +0.000 A 
ATOM      3  C   UNL     1       1.863  12.021  18.620  0.00  0.00    +0.000 A 
ATOM      4  C   UNL     1       2.544  13.139  18.131  0.00  0.00    +0.000 A 
ATOM      5  C   UNL     1       2.265  14.420  18.628  0.00  0.00    +0.000 A 
ATOM      6  C   UNL     1       1.296  14.609  19.617  0.00  0.00    +0.000 A 
ATOM      7  C   UNL     1       0.618  13.500  20.087  0.00  0.00    +0.000 A 
ATOM      8  N   UNL     1      -0.403  13.430  21.047  0.00  0.00    +0.000 N 
ATOM      9  C   UNL     1      -0.823  12.113  21.201  0.00  0.00    +0.000 A 
ATOM     10  N   UNL     1      -1.781  11.735  21.981  0.00  0.00    +0.000 NA
ATOM     11  C   UNL     1      -2.387  12.733  22.765  0.00  0.00    +0.000 A 
ATOM     12  C   UNL     1      -3.330  12.335  23.714  0.00  0.00    +0.000 A 
ATOM     13  C   UNL     1      -3.900  13.266  24.586  0.00  0.00    +0.000 A 
ATOM     14  C   UNL     1      -3.548  14.613  24.500  0.00  0.00    +0.000 A 
ATOM     15  C   UNL     1      -2.612  15.028  23.552  0.00  0.00    +0.000 A 
ATOM     16  C   UNL     1      -2.030  14.085  22.695  0.00  0.00    +0.000 A 
ATOM     17  C   UNL     1      -0.970  14.482  21.736  0.00  0.00    +0.000 A 
ATOM     18  O   UNL     1      -0.653  15.667  21.645  0.00  0.00    +0.000 OA
ENDROOT
BRANCH   1  19
ATOM     19  O   UNL     1      -0.731  10.488  19.367  0.00  0.00    +0.000 OA
ATOM     20  H   UNL     1      -0.946  11.093  18.640  0.00  0.00    +0.000 HD
ENDBRANCH   1  19
BRANCH   1  21
ATOM     21  C   UNL     1       0.969  10.269  21.138  0.00  0.00    +0.000 C 
BRANCH  21  22
ATOM     22  C   UNL     1       0.690   8.785  21.011  0.00  0.00    +0.000 C 
ATOM     23  O   UNL     1      -0.296   8.296  21.565  0.00  0.00    +0.000 OA
BRANCH  22  27
ATOM     24  C   UNL     1       3.134   6.194  18.562  0.00  0.00    +0.000 A 
ATOM     25  C   UNL     1       2.592   5.756  19.770  0.00  0.00    +0.000 A 
ATOM     26  C   UNL     1       1.819   6.616  20.558  0.00  0.00    +0.000 A 
ATOM     27  C   UNL     1       1.537   7.920  20.128  0.00  0.00    +0.000 A 
ATOM     28  C   UNL     1       2.025   8.336  18.886  0.00  0.00    +0.000 A 
ATOM     29  C   UNL     1       2.809   7.474  18.109  0.00  0.00    +0.000 A 
BRANCH  24  30
ATOM     30  N   UNL     1       3.782   5.290  17.713  0.00  0.00    +0.000 N 
ATOM     31  H   UNL     1       4.304   5.733  16.964  0.00  0.00    +0.000 HD
ATOM     32  H   UNL     1       3.191   4.537  17.381  0.00  0.00    +0.000 HD
ENDBRANCH  24  30
ENDBRANCH  22  27
ENDBRANCH  21  22
ENDBRANCH   1  21
TORSDOF 5
ENDMDL
MODEL 9
REMARK VINA RESULT:      -6.8      1.651      2.478
REMARK  Name = 
REMARK  5 active torsions:
REMARK  status: ('A' for Active; 'I' for Inactive)
REMARK    1  A    between atoms: N_1  and  C_2
REMARK    2  A    between atoms: C_5  and  C_6
REMARK    3  A    between atoms: C_6  and  C_8
REMARK    4  A    between atoms: C_8  and  C_9
REMARK    5  A    between atoms: C_9  and  O_10
REMARK                            x       y       z     vdW  Elec       q    Type
REMARK                         _______ _______ _______ _____ _____    ______ ____
ROOT
ATOM      1  C   UNL     1      -1.496  12.484  21.037  0.00  0.00    +0.000 C 
ATOM      2  C   UNL     1      -2.659  12.821  21.954  0.00  0.00    +0.000 A 
ATOM      3  C   UNL     1      -2.633  13.239  23.279  0.00  0.00    +0.000 A 
ATOM      4  C   UNL     1      -3.850  13.457  23.928  0.00  0.00    +0.000 A 
ATOM      5  C   UNL     1      -5.065  13.250  23.259  0.00  0.00    +0.000 A 
ATOM      6  C   UNL     1      -5.085  12.828  21.927  0.00  0.00    +0.000 A 
ATOM      7  C   UNL     1      -3.877  12.626  21.287  0.00  0.00    +0.000 A 
ATOM      8  N   UNL     1      -3.633  12.231  19.963  0.00  0.00    +0.000 N 
ATOM      9  C   UNL     1      -2.264  12.174  19.727  0.00  0.00    +0.000 A 
ATOM     10  N   UNL     1      -1.727  11.886  18.588  0.00  0.00    +0.000 NA
ATOM     11  C   UNL     1      -2.606  11.549  17.544  0.00  0.00    +0.000 A 
ATOM     12  C   UNL     1      -2.053  11.102  16.343  0.00  0.00    +0.000 A 
ATOM     13  C   UNL     1      -2.874  10.664  15.299  0.00  0.00    +0.000 A 
ATOM     14  C   UNL     1      -4.261  10.694  15.441  0.00  0.00    +0.000 A 
ATOM     15  C   UNL     1      -4.830  11.145  16.632  0.00  0.00    +0.000 A 
ATOM     16  C   UNL     1      -4.000  11.562  17.681  0.00  0.00    +0.000 A 
ATOM     17  C   UNL     1      -4.572  11.965  18.988  0.00  0.00    +0.000 A 
ATOM     18  O   UNL     1      -5.795  12.001  19.126  0.00  0.00    +0.000 OA
ENDROOT
BRANCH   1  19
ATOM     19  O   UNL     1      -0.673  13.624  20.903  0.00  0.00    +0.000 OA
ATOM     20  H   UNL     1       0.247  13.334  20.794  0.00  0.00    +0.000 HD
ENDBRANCH   1  19
BRANCH   1  21
ATOM     21  C   UNL     1      -0.761  11.264  21.604  0.00  0.00    +0.000 C 
BRANCH  21  22
ATOM     22  C   UNL     1       0.674  11.101  21.146  0.00  0.00    +0.000 C 
ATOM     23  O   UNL     1       1.512  11.960  21.430  0.00  0.00    +0.000 OA
BRANCH  22  27
ATOM     24  C   UNL     1       1.935   7.566  19.002  0.00  0.00    +0.000 A 
ATOM     25  C   UNL     1       1.722   8.778  18.346  0.00  0.00    +0.000 A 
ATOM     26  C   UNL     1       1.296   9.906  19.055  0.00  0.00    +0.000 A 
ATOM     27  C   UNL     1       1.117   9.853  20.443  0.00  0.00    +0.000 A 
ATOM     28  C   UNL     1       1.394   8.655  21.110  0.00  0.00    +0.000 A 
ATOM     29  C   UNL     1       1.808   7.527  20.391  0.00  0.00    +0.000 A 
BRANCH  24  30
ATOM     30  N   UNL     1       2.497   6.484  18.315  0.00  0.00    +0.000 N 
ATOM     31  H   UNL     1       2.964   6.743  17.452  0.00  0.00    +0.000 HD
ATOM     32  H   UNL     1       1.868   5.698  18.194  0.00  0.00    +0.000 HD
ENDBRANCH  24  30
ENDBRANCH  22  27
ENDBRANCH  21  22
ENDBRANCH   1  21
TORSDOF 5
ENDMDL
