MODEL 1
REMARK VINA RESULT:      -8.5      0.000      0.000
REMARK  Name = 
REMARK  3 active torsions:
REMARK  status: ('A' for Active; 'I' for Inactive)
REMARK    1  A    between atoms: C_1  and  C_2
REMARK    2  A    between atoms: C_4  and  C_5
REMARK    3  A    between atoms: N_10  and  C_11
REMARK                            x       y       z     vdW  Elec       q    Type
REMARK                         _______ _______ _______ _____ _____    ______ ____
ROOT
ATOM      1  C   UNL     1       6.686   5.453  15.635  0.00  0.00    +0.000 C 
ATOM      2  O   UNL     1       7.564   6.246  15.976  0.00  0.00    +0.000 OA
ATOM      3  N   UNL     1       5.623   5.151  16.488  0.00  0.00    +0.000 N 
ATOM      4  C   UNL     1       5.477   5.896  17.744  0.00  0.00    +0.000 C 
ATOM      5  C   UNL     1       3.997   6.087  18.121  0.00  0.00    +0.000 C 
ATOM      6  N   UNL     1       3.222   4.842  18.021  0.00  0.00    +0.000 N 
ATOM      7  C   UNL     1       3.430   4.020  16.824  0.00  0.00    +0.000 C 
ATOM      8  C   UNL     1       4.924   3.860  16.501  0.00  0.00    +0.000 C 
ENDROOT
BRANCH   6   9
ATOM      9  C   UNL     1       2.702   4.269  19.167  0.00  0.00    +0.000 A 
ATOM     10  N   UNL     1       1.435   4.596  19.569  0.00  0.00    +0.000 NA
ATOM     11  C   UNL     1       0.886   4.025  20.672  0.00  0.00    +0.000 A 
ATOM     12  C   UNL     1       1.503   3.090  21.477  0.00  0.00    +0.000 A 
ATOM     13  C   UNL     1       2.774   2.757  21.051  0.00  0.00    +0.000 A 
ATOM     14  O   UNL     1       3.586   1.845  21.656  0.00  0.00    +0.000 OA
ATOM     15  C   UNL     1       4.723   1.775  20.922  0.00  0.00    +0.000 A 
ATOM     16  C   UNL     1       4.654   2.630  19.850  0.00  0.00    +0.000 A 
ATOM     17  C   UNL     1       3.396   3.300  19.934  0.00  0.00    +0.000 A 
ENDBRANCH   6   9
BRANCH   1  21
ATOM     18  C   UNL     1       6.172   2.601  11.473  0.00  0.00    +0.000 C 
ATOM     19  C   UNL     1       6.546   3.596  12.502  0.00  0.00    +0.000 A 
ATOM     20  C   UNL     1       6.096   3.700  13.837  0.00  0.00    +0.000 A 
ATOM     21  C   UNL     1       6.721   4.824  14.331  0.00  0.00    +0.000 A 
ATOM     22  O   UNL     1       7.558   5.307  13.366  0.00  0.00    +0.000 OA
ATOM     23  N   UNL     1       7.420   4.566  12.209  0.00  0.00    +0.000 NA
ENDBRANCH   1  21
TORSDOF 2
ENDMDL
MODEL 2
REMARK VINA RESULT:      -7.4      4.036      5.234
REMARK  Name = 
REMARK  3 active torsions:
REMARK  status: ('A' for Active; 'I' for Inactive)
REMARK    1  A    between atoms: C_1  and  C_2
REMARK    2  A    between atoms: C_4  and  C_5
REMARK    3  A    between atoms: N_10  and  C_11
REMARK                            x       y       z     vdW  Elec       q    Type
REMARK                         _______ _______ _______ _____ _____    ______ ____
ROOT
ATOM      1  C   UNL     1       4.037   4.316  17.141  0.00  0.00    +0.000 C 
ATOM      2  O   UNL     1       3.568   3.196  17.349  0.00  0.00    +0.000 OA
ATOM      3  N   UNL     1       3.445   5.454  17.693  0.00  0.00    +0.000 N 
ATOM      4  C   UNL     1       2.341   5.297  18.646  0.00  0.00    +0.000 C 
ATOM      5  C   UNL     1       2.358   6.400  19.721  0.00  0.00    +0.000 C 
ATOM      6  N   UNL     1       2.525   7.744  19.149  0.00  0.00    +0.000 N 
ATOM      7  C   UNL     1       3.550   7.906  18.112  0.00  0.00    +0.000 C 
ATOM      8  C   UNL     1       3.480   6.781  17.067  0.00  0.00    +0.000 C 
ENDROOT
BRANCH   6   9
ATOM      9  C   UNL     1       1.493   8.658  19.244  0.00  0.00    +0.000 A 
ATOM     10  N   UNL     1       0.940   9.171  18.101  0.00  0.00    +0.000 NA
ATOM     11  C   UNL     1      -0.096  10.046  18.161  0.00  0.00    +0.000 A 
ATOM     12  C   UNL     1      -0.693  10.497  19.321  0.00  0.00    +0.000 A 
ATOM     13  C   UNL     1      -0.136   9.960  20.465  0.00  0.00    +0.000 A 
ATOM     14  O   UNL     1      -0.555  10.226  21.735  0.00  0.00    +0.000 OA
ATOM     15  C   UNL     1       0.212   9.483  22.570  0.00  0.00    +0.000 A 
ATOM     16  C   UNL     1       1.120   8.741  21.855  0.00  0.00    +0.000 A 
ATOM     17  C   UNL     1       0.923   9.061  20.477  0.00  0.00    +0.000 A 
ENDBRANCH   6   9
BRANCH   1  21
ATOM     18  C   UNL     1       7.562   4.916  13.544  0.00  0.00    +0.000 C 
ATOM     19  C   UNL     1       6.797   4.720  14.796  0.00  0.00    +0.000 A 
ATOM     20  C   UNL     1       5.400   4.601  14.970  0.00  0.00    +0.000 A 
ATOM     21  C   UNL     1       5.226   4.484  16.331  0.00  0.00    +0.000 A 
ATOM     22  O   UNL     1       6.457   4.451  16.920  0.00  0.00    +0.000 OA
ATOM     23  N   UNL     1       7.439   4.640  15.967  0.00  0.00    +0.000 NA
ENDBRANCH   1  21
TORSDOF 2
ENDMDL
MODEL 3
REMARK VINA RESULT:      -7.3      5.388      7.379
REMARK  Name = 
REMARK  3 active torsions:
REMARK  status: ('A' for Active; 'I' for Inactive)
REMARK    1  A    between atoms: C_1  and  C_2
REMARK    2  A    between atoms: C_4  and  C_5
REMARK    3  A    between atoms: N_10  and  C_11
REMARK                            x       y       z     vdW  Elec       q    Type
REMARK                         _______ _______ _______ _____ _____    ______ ____
ROOT
ATOM      1  C   UNL     1       3.060   5.486  19.860  0.00  0.00    +0.000 C 
ATOM      2  O   UNL     1       2.687   4.796  20.809  0.00  0.00    +0.000 OA
ATOM      3  N   UNL     1       2.421   6.691  19.556  0.00  0.00    +0.000 N 
ATOM      4  C   UNL     1       1.392   7.206  20.465  0.00  0.00    +0.000 C 
ATOM      5  C   UNL     1       1.394   8.745  20.511  0.00  0.00    +0.000 C 
ATOM      6  N   UNL     1       1.428   9.351  19.172  0.00  0.00    +0.000 N 
ATOM      7  C   UNL     1       2.373   8.782  18.205  0.00  0.00    +0.000 C 
ATOM      8  C   UNL     1       2.322   7.246  18.201  0.00  0.00    +0.000 C 
ENDROOT
BRANCH   6   9
ATOM      9  C   UNL     1       0.339  10.076  18.725  0.00  0.00    +0.000 A 
ATOM     10  N   UNL     1      -0.495   9.529  17.787  0.00  0.00    +0.000 NA
ATOM     11  C   UNL     1      -1.590  10.202  17.351  0.00  0.00    +0.000 A 
ATOM     12  C   UNL     1      -1.980  11.454  17.782  0.00  0.00    +0.000 A 
ATOM     13  C   UNL     1      -1.139  11.987  18.739  0.00  0.00    +0.000 A 
ATOM     14  O   UNL     1      -1.312  13.198  19.342  0.00  0.00    +0.000 OA
ATOM     15  C   UNL     1      -0.307  13.342  20.240  0.00  0.00    +0.000 A 
ATOM     16  C   UNL     1       0.511  12.239  20.226  0.00  0.00    +0.000 A 
ATOM     17  C   UNL     1      -0.004  11.354  19.230  0.00  0.00    +0.000 A 
ENDBRANCH   6   9
BRANCH   1  21
ATOM     18  C   UNL     1       7.526   4.599  17.627  0.00  0.00    +0.000 C 
ATOM     19  C   UNL     1       6.102   4.685  18.020  0.00  0.00    +0.000 A 
ATOM     20  C   UNL     1       5.527   5.365  19.117  0.00  0.00    +0.000 A 
ATOM     21  C   UNL     1       4.182   5.078  19.040  0.00  0.00    +0.000 A 
ATOM     22  O   UNL     1       3.965   4.339  17.913  0.00  0.00    +0.000 OA
ATOM     23  N   UNL     1       5.168   4.058  17.296  0.00  0.00    +0.000 NA
ENDBRANCH   1  21
TORSDOF 2
ENDMDL
MODEL 4
REMARK VINA RESULT:      -7.2      5.670      7.116
REMARK  Name = 
REMARK  3 active torsions:
REMARK  status: ('A' for Active; 'I' for Inactive)
REMARK    1  A    between atoms: C_1  and  C_2
REMARK    2  A    between atoms: C_4  and  C_5
REMARK    3  A    between atoms: N_10  and  C_11
REMARK                            x       y       z     vdW  Elec       q    Type
REMARK                         _______ _______ _______ _____ _____    ______ ____
ROOT
ATOM      1  C   UNL     1       3.403   6.185  18.830  0.00  0.00    +0.000 C 
ATOM      2  O   UNL     1       3.338   5.330  19.713  0.00  0.00    +0.000 OA
ATOM      3  N   UNL     1       2.573   7.308  18.858  0.00  0.00    +0.000 N 
ATOM      4  C   UNL     1       1.719   7.539  20.028  0.00  0.00    +0.000 C 
ATOM      5  C   UNL     1       1.547   9.042  20.317  0.00  0.00    +0.000 C 
ATOM      6  N   UNL     1       1.207   9.814  19.112  0.00  0.00    +0.000 N 
ATOM      7  C   UNL     1       1.974   9.525  17.895  0.00  0.00    +0.000 C 
ATOM      8  C   UNL     1       2.108   8.012  17.657  0.00  0.00    +0.000 C 
ENDROOT
BRANCH   6   9
ATOM      9  C   UNL     1      -0.033  10.417  19.016  0.00  0.00    +0.000 A 
ATOM     10  N   UNL     1      -0.885  10.050  18.010  0.00  0.00    +0.000 NA
ATOM     11  C   UNL     1      -2.121  10.601  17.908  0.00  0.00    +0.000 A 
ATOM     12  C   UNL     1      -2.646  11.545  18.767  0.00  0.00    +0.000 A 
ATOM     13  C   UNL     1      -1.783  11.895  19.786  0.00  0.00    +0.000 A 
ATOM     14  O   UNL     1      -2.066  12.789  20.776  0.00  0.00    +0.000 OA
ATOM     15  C   UNL     1      -0.988  12.829  21.597  0.00  0.00    +0.000 A 
ATOM     16  C   UNL     1      -0.013  11.971  21.149  0.00  0.00    +0.000 A 
ATOM     17  C   UNL     1      -0.507  11.372  19.950  0.00  0.00    +0.000 A 
ENDBRANCH   6   9
BRANCH   1  21
ATOM     18  C   UNL     1       6.274   4.885  14.856  0.00  0.00    +0.000 C 
ATOM     19  C   UNL     1       5.646   5.523  16.035  0.00  0.00    +0.000 A 
ATOM     20  C   UNL     1       4.554   5.070  16.809  0.00  0.00    +0.000 A 
ATOM     21  C   UNL     1       4.354   6.060  17.745  0.00  0.00    +0.000 A 
ATOM     22  O   UNL     1       5.328   7.005  17.585  0.00  0.00    +0.000 OA
ATOM     23  N   UNL     1       6.110   6.692  16.491  0.00  0.00    +0.000 NA
ENDBRANCH   1  21
TORSDOF 2
ENDMDL
MODEL 5
REMARK VINA RESULT:      -7.2      5.673      7.200
REMARK  Name = 
REMARK  3 active torsions:
REMARK  status: ('A' for Active; 'I' for Inactive)
REMARK    1  A    between atoms: C_1  and  C_2
REMARK    2  A    between atoms: C_4  and  C_5
REMARK    3  A    between atoms: N_10  and  C_11
REMARK                            x       y       z     vdW  Elec       q    Type
REMARK                         _______ _______ _______ _____ _____    ______ ____
ROOT
ATOM      1  C   UNL     1       3.118   6.356  18.973  0.00  0.00    +0.000 C 
ATOM      2  O   UNL     1       3.074   5.495  19.852  0.00  0.00    +0.000 OA
ATOM      3  N   UNL     1       2.345   7.515  19.066  0.00  0.00    +0.000 N 
ATOM      4  C   UNL     1       1.586   7.774  20.295  0.00  0.00    +0.000 C 
ATOM      5  C   UNL     1       1.504   9.280  20.606  0.00  0.00    +0.000 C 
ATOM      6  N   UNL     1       1.119  10.079  19.434  0.00  0.00    +0.000 N 
ATOM      7  C   UNL     1       1.784   9.768  18.164  0.00  0.00    +0.000 C 
ATOM      8  C   UNL     1       1.831   8.253  17.907  0.00  0.00    +0.000 C 
ENDROOT
BRANCH   6   9
ATOM      9  C   UNL     1      -0.096  10.739  19.429  0.00  0.00    +0.000 A 
ATOM     10  N   UNL     1      -0.336  11.714  20.359  0.00  0.00    +0.000 NA
ATOM     11  C   UNL     1      -1.506  12.402  20.360  0.00  0.00    +0.000 A 
ATOM     12  C   UNL     1      -2.541  12.217  19.466  0.00  0.00    +0.000 A 
ATOM     13  C   UNL     1      -2.279  11.242  18.524  0.00  0.00    +0.000 A 
ATOM     14  O   UNL     1      -3.126  10.882  17.518  0.00  0.00    +0.000 OA
ATOM     15  C   UNL     1      -2.496   9.927  16.790  0.00  0.00    +0.000 A 
ATOM     16  C   UNL     1      -1.253   9.668  17.313  0.00  0.00    +0.000 A 
ATOM     17  C   UNL     1      -1.105  10.502  18.464  0.00  0.00    +0.000 A 
ENDBRANCH   6   9
BRANCH   1  21
ATOM     18  C   UNL     1       5.773   4.890  14.907  0.00  0.00    +0.000 C 
ATOM     19  C   UNL     1       5.180   5.595  16.066  0.00  0.00    +0.000 A 
ATOM     20  C   UNL     1       4.209   5.132  16.981  0.00  0.00    +0.000 A 
ATOM     21  C   UNL     1       3.985   6.199  17.823  0.00  0.00    +0.000 A 
ATOM     22  O   UNL     1       4.838   7.207  17.475  0.00  0.00    +0.000 OA
ATOM     23  N   UNL     1       5.557   6.846  16.352  0.00  0.00    +0.000 NA
ENDBRANCH   1  21
TORSDOF 2
ENDMDL
MODEL 6
REMARK VINA RESULT:      -7.1      5.817      8.640
REMARK  Name = 
REMARK  3 active torsions:
REMARK  status: ('A' for Active; 'I' for Inactive)
REMARK    1  A    between atoms: C_1  and  C_2
REMARK    2  A    between atoms: C_4  and  C_5
REMARK    3  A    between atoms: N_10  and  C_11
REMARK                            x       y       z     vdW  Elec       q    Type
REMARK                         _______ _______ _______ _____ _____    ______ ____
ROOT
ATOM      1  C   UNL     1      -0.030  10.945  19.527  0.00  0.00    +0.000 C 
ATOM      2  O   UNL     1      -0.338  11.332  18.400  0.00  0.00    +0.000 OA
ATOM      3  N   UNL     1       0.578   9.702  19.716  0.00  0.00    +0.000 N 
ATOM      4  C   UNL     1       0.985   8.918  18.545  0.00  0.00    +0.000 C 
ATOM      5  C   UNL     1       2.265   8.107  18.822  0.00  0.00    +0.000 C 
ATOM      6  N   UNL     1       2.207   7.375  20.096  0.00  0.00    +0.000 N 
ATOM      7  C   UNL     1       1.699   8.104  21.263  0.00  0.00    +0.000 C 
ATOM      8  C   UNL     1       0.420   8.888  20.928  0.00  0.00    +0.000 C 
ENDROOT
BRANCH   6   9
ATOM      9  C   UNL     1       2.187   5.993  20.087  0.00  0.00    +0.000 A 
ATOM     10  N   UNL     1       1.034   5.333  20.416  0.00  0.00    +0.000 NA
ATOM     11  C   UNL     1       0.974   3.978  20.386  0.00  0.00    +0.000 A 
ATOM     12  C   UNL     1       2.013   3.141  20.031  0.00  0.00    +0.000 A 
ATOM     13  C   UNL     1       3.165   3.820  19.686  0.00  0.00    +0.000 A 
ATOM     14  O   UNL     1       4.325   3.230  19.279  0.00  0.00    +0.000 OA
ATOM     15  C   UNL     1       5.200   4.227  18.998  0.00  0.00    +0.000 A 
ATOM     16  C   UNL     1       4.619   5.451  19.218  0.00  0.00    +0.000 A 
ATOM     17  C   UNL     1       3.296   5.203  19.694  0.00  0.00    +0.000 A 
ENDBRANCH   6   9
BRANCH   1  21
ATOM     18  C   UNL     1      -1.844  13.618  23.437  0.00  0.00    +0.000 C 
ATOM     19  C   UNL     1      -1.024  12.971  22.389  0.00  0.00    +0.000 A 
ATOM     20  C   UNL     1      -1.441  12.130  21.333  0.00  0.00    +0.000 A 
ATOM     21  C   UNL     1      -0.276  11.774  20.690  0.00  0.00    +0.000 A 
ATOM     22  O   UNL     1       0.761  12.436  21.281  0.00  0.00    +0.000 OA
ATOM     23  N   UNL     1       0.301  13.153  22.369  0.00  0.00    +0.000 NA
ENDBRANCH   1  21
TORSDOF 2
ENDMDL
MODEL 7
REMARK VINA RESULT:      -7.0      5.436      7.377
REMARK  Name = 
REMARK  3 active torsions:
REMARK  status: ('A' for Active; 'I' for Inactive)
REMARK    1  A    between atoms: C_1  and  C_2
REMARK    2  A    between atoms: C_4  and  C_5
REMARK    3  A    between atoms: N_10  and  C_11
REMARK                            x       y       z     vdW  Elec       q    Type
REMARK                         _______ _______ _______ _____ _____    ______ ____
ROOT
ATOM      1  C   UNL     1       3.128   5.774  19.425  0.00  0.00    +0.000 C 
ATOM      2  O   UNL     1       2.854   5.071  20.398  0.00  0.00    +0.000 OA
ATOM      3  N   UNL     1       2.483   6.996  19.220  0.00  0.00    +0.000 N 
ATOM      4  C   UNL     1       1.577   7.510  20.252  0.00  0.00    +0.000 C 
ATOM      5  C   UNL     1       1.616   9.048  20.326  0.00  0.00    +0.000 C 
ATOM      6  N   UNL     1       1.507   9.681  19.004  0.00  0.00    +0.000 N 
ATOM      7  C   UNL     1       2.322   9.115  17.923  0.00  0.00    +0.000 C 
ATOM      8  C   UNL     1       2.240   7.581  17.896  0.00  0.00    +0.000 C 
ENDROOT
BRANCH   6   9
ATOM      9  C   UNL     1       0.389  10.434  18.699  0.00  0.00    +0.000 A 
ATOM     10  N   UNL     1      -0.771   9.803  18.337  0.00  0.00    +0.000 NA
ATOM     11  C   UNL     1      -1.894  10.514  18.062  0.00  0.00    +0.000 A 
ATOM     12  C   UNL     1      -2.001  11.889  18.118  0.00  0.00    +0.000 A 
ATOM     13  C   UNL     1      -0.829  12.512  18.500  0.00  0.00    +0.000 A 
ATOM     14  O   UNL     1      -0.675  13.858  18.652  0.00  0.00    +0.000 OA
ATOM     15  C   UNL     1       0.597  14.068  19.069  0.00  0.00    +0.000 A 
ATOM     16  C   UNL     1       1.265  12.874  19.190  0.00  0.00    +0.000 A 
ATOM     17  C   UNL     1       0.354  11.848  18.795  0.00  0.00    +0.000 A 
ENDBRANCH   6   9
BRANCH   1  21
ATOM     18  C   UNL     1       5.931   3.809  15.683  0.00  0.00    +0.000 C 
ATOM     19  C   UNL     1       5.404   4.510  16.875  0.00  0.00    +0.000 A 
ATOM     20  C   UNL     1       4.087   4.519  17.386  0.00  0.00    +0.000 A 
ATOM     21  C   UNL     1       4.139   5.362  18.474  0.00  0.00    +0.000 A 
ATOM     22  O   UNL     1       5.434   5.762  18.645  0.00  0.00    +0.000 OA
ATOM     23  N   UNL     1       6.218   5.263  17.623  0.00  0.00    +0.000 NA
ENDBRANCH   1  21
TORSDOF 2
ENDMDL
MODEL 8
REMARK VINA RESULT:      -7.0      5.783      8.373
REMARK  Name = 
REMARK  3 active torsions:
REMARK  status: ('A' for Active; 'I' for Inactive)
REMARK    1  A    between atoms: C_1  and  C_2
REMARK    2  A    between atoms: C_4  and  C_5
REMARK    3  A    between atoms: N_10  and  C_11
REMARK                            x       y       z     vdW  Elec       q    Type
REMARK                         _______ _______ _______ _____ _____    ______ ____
ROOT
ATOM      1  C   UNL     1       2.689   6.145  18.521  0.00  0.00    +0.000 C 
ATOM      2  O   UNL     1       3.481   5.970  17.595  0.00  0.00    +0.000 OA
ATOM      3  N   UNL     1       2.228   7.425  18.836  0.00  0.00    +0.000 N 
ATOM      4  C   UNL     1       2.579   8.549  17.961  0.00  0.00    +0.000 C 
ATOM      5  C   UNL     1       1.448   9.594  17.898  0.00  0.00    +0.000 C 
ATOM      6  N   UNL     1       0.935   9.953  19.228  0.00  0.00    +0.000 N 
ATOM      7  C   UNL     1       0.678   8.853  20.164  0.00  0.00    +0.000 C 
ATOM      8  C   UNL     1       1.841   7.848  20.187  0.00  0.00    +0.000 C 
ENDROOT
BRANCH   6   9
ATOM      9  C   UNL     1       1.126  11.235  19.709  0.00  0.00    +0.000 A 
ATOM     10  N   UNL     1       1.973  12.083  19.049  0.00  0.00    +0.000 NA
ATOM     11  C   UNL     1       2.157  13.357  19.479  0.00  0.00    +0.000 A 
ATOM     12  C   UNL     1       1.539  13.926  20.573  0.00  0.00    +0.000 A 
ATOM     13  C   UNL     1       0.675  13.065  21.221  0.00  0.00    +0.000 A 
ATOM     14  O   UNL     1      -0.072  13.386  22.314  0.00  0.00    +0.000 OA
ATOM     15  C   UNL     1      -0.812  12.293  22.626  0.00  0.00    +0.000 A 
ATOM     16  C   UNL     1      -0.551  11.272  21.745  0.00  0.00    +0.000 A 
ATOM     17  C   UNL     1       0.440  11.751  20.835  0.00  0.00    +0.000 A 
ENDBRANCH   6   9
BRANCH   1  21
ATOM     18  C   UNL     1       1.694   2.488  21.891  0.00  0.00    +0.000 C 
ATOM     19  C   UNL     1       1.747   3.404  20.729  0.00  0.00    +0.000 A 
ATOM     20  C   UNL     1       2.610   4.500  20.506  0.00  0.00    +0.000 A 
ATOM     21  C   UNL     1       2.200   5.028  19.302  0.00  0.00    +0.000 A 
ATOM     22  O   UNL     1       1.206   4.235  18.802  0.00  0.00    +0.000 OA
ATOM     23  N   UNL     1       0.894   3.244  19.712  0.00  0.00    +0.000 NA
ENDBRANCH   1  21
TORSDOF 2
ENDMDL
MODEL 9
REMARK VINA RESULT:      -7.0      6.014      8.465
REMARK  Name = 
REMARK  3 active torsions:
REMARK  status: ('A' for Active; 'I' for Inactive)
REMARK    1  A    between atoms: C_1  and  C_2
REMARK    2  A    between atoms: C_4  and  C_5
REMARK    3  A    between atoms: N_10  and  C_11
REMARK                            x       y       z     vdW  Elec       q    Type
REMARK                         _______ _______ _______ _____ _____    ______ ____
ROOT
ATOM      1  C   UNL     1       2.671   6.504  18.611  0.00  0.00    +0.000 C 
ATOM      2  O   UNL     1       3.238   6.461  17.519  0.00  0.00    +0.000 OA
ATOM      3  N   UNL     1       2.103   7.693  19.075  0.00  0.00    +0.000 N 
ATOM      4  C   UNL     1       2.057   8.860  18.188  0.00  0.00    +0.000 C 
ATOM      5  C   UNL     1       0.795   9.709  18.432  0.00  0.00    +0.000 C 
ATOM      6  N   UNL     1       0.561   9.978  19.858  0.00  0.00    +0.000 N 
ATOM      7  C   UNL     1       0.708   8.850  20.784  0.00  0.00    +0.000 C 
ATOM      8  C   UNL     1       1.985   8.044  20.495  0.00  0.00    +0.000 C 
ENDROOT
BRANCH   6   9
ATOM      9  C   UNL     1       0.658  11.273  20.332  0.00  0.00    +0.000 A 
ATOM     10  N   UNL     1       1.500  12.156  19.712  0.00  0.00    +0.000 NA
ATOM     11  C   UNL     1       1.593  13.443  20.135  0.00  0.00    +0.000 A 
ATOM     12  C   UNL     1       0.883  13.992  21.183  0.00  0.00    +0.000 A 
ATOM     13  C   UNL     1       0.026  13.094  21.789  0.00  0.00    +0.000 A 
ATOM     14  O   UNL     1      -0.801  13.388  22.832  0.00  0.00    +0.000 OA
ATOM     15  C   UNL     1      -1.502  12.263  23.114  0.00  0.00    +0.000 A 
ATOM     16  C   UNL     1      -1.138  11.246  22.265  0.00  0.00    +0.000 A 
ATOM     17  C   UNL     1      -0.120  11.766  21.409  0.00  0.00    +0.000 A 
ENDBRANCH   6   9
BRANCH   1  21
ATOM     18  C   UNL     1       1.341   2.648  21.625  0.00  0.00    +0.000 C 
ATOM     19  C   UNL     1       2.033   3.638  20.768  0.00  0.00    +0.000 A 
ATOM     20  C   UNL     1       1.506   4.795  20.151  0.00  0.00    +0.000 A 
ATOM     21  C   UNL     1       2.561   5.321  19.438  0.00  0.00    +0.000 A 
ATOM     22  O   UNL     1       3.669   4.563  19.689  0.00  0.00    +0.000 OA
ATOM     23  N   UNL     1       3.332   3.488  20.487  0.00  0.00    +0.000 NA
ENDBRANCH   1  21
TORSDOF 2
ENDMDL
