MODEL 1
REMARK VINA RESULT:      -8.4      0.000      0.000
REMARK  Name = 
REMARK  3 active torsions:
REMARK  status: ('A' for Active; 'I' for Inactive)
REMARK    1  A    between atoms: C_6  and  C_7
REMARK    2  A    between atoms: C_7  and  N_8
REMARK    3  A    between atoms: C_12  and  C_13
REMARK                            x       y       z     vdW  Elec       q    Type
REMARK                         _______ _______ _______ _____ _____    ______ ____
ROOT
ATOM      1  N   UNL     1       3.091   3.238  18.499  0.00  0.00    +0.000 N 
ATOM      2  C   UNL     1       2.434   2.083  18.175  0.00  0.00    +0.000 A 
ATOM      3  N   UNL     1       1.144   2.251  18.314  0.00  0.00    +0.000 NA
ATOM      4  N   UNL     1       0.945   3.535  18.748  0.00  0.00    +0.000 NA
ATOM      5  C   UNL     1       2.115   4.146  18.834  0.00  0.00    +0.000 A 
ENDROOT
BRANCH   5   6
ATOM      6  C   UNL     1       2.263   5.560  19.171  0.00  0.00    +0.000 A 
ATOM      7  C   UNL     1       1.808   6.002  20.418  0.00  0.00    +0.000 A 
ATOM      8  C   UNL     1       1.820   7.360  20.737  0.00  0.00    +0.000 A 
ATOM      9  C   UNL     1       1.760   8.198  19.631  0.00  0.00    +0.000 A 
ATOM     10  N   UNL     1       1.193   9.424  19.388  0.00  0.00    +0.000 N 
ATOM     11  C   UNL     1       1.429   9.730  18.074  0.00  0.00    +0.000 A 
ATOM     12  N   UNL     1       2.192   8.832  17.494  0.00  0.00    +0.000 NA
ATOM     13  C   UNL     1       2.274   7.814  18.405  0.00  0.00    +0.000 A 
ATOM     14  C   UNL     1       2.717   6.500  18.235  0.00  0.00    +0.000 A 
ATOM     15  H   UNL     1       0.513   9.884  19.979  0.00  0.00    +0.000 HD
ENDBRANCH   5   6
BRANCH   1  16
ATOM     16  C   UNL     1       4.539   3.359  18.619  0.00  0.00    +0.000 C 
BRANCH  16  22
ATOM     17 CL   UNL     1       7.750   7.332  17.282  0.00  0.00    +0.000 Cl
ATOM     18  C   UNL     1       6.667   6.053  16.910  0.00  0.00    +0.000 A 
ATOM     19  C   UNL     1       6.351   5.825  15.560  0.00  0.00    +0.000 A 
ATOM     20  C   UNL     1       5.504   4.804  15.192  0.00  0.00    +0.000 A 
ATOM     21  C   UNL     1       4.952   3.988  16.180  0.00  0.00    +0.000 A 
ATOM     22  C   UNL     1       5.215   4.191  17.525  0.00  0.00    +0.000 A 
ATOM     23  C   UNL     1       6.083   5.252  17.904  0.00  0.00    +0.000 A 
ATOM     24 CL   UNL     1       6.446   5.513  19.575  0.00  0.00    +0.000 Cl
ENDBRANCH  16  22
ENDBRANCH   1  16
TORSDOF 3
ENDMDL
MODEL 2
REMARK VINA RESULT:      -8.1      2.374      5.702
REMARK  Name = 
REMARK  3 active torsions:
REMARK  status: ('A' for Active; 'I' for Inactive)
REMARK    1  A    between atoms: C_6  and  C_7
REMARK    2  A    between atoms: C_7  and  N_8
REMARK    3  A    between atoms: C_12  and  C_13
REMARK                            x       y       z     vdW  Elec       q    Type
REMARK                         _______ _______ _______ _____ _____    ______ ____
ROOT
ATOM      1  N   UNL     1       2.879   6.885  18.903  0.00  0.00    +0.000 N 
ATOM      2  C   UNL     1       1.916   7.856  18.904  0.00  0.00    +0.000 A 
ATOM      3  N   UNL     1       2.096   8.662  17.890  0.00  0.00    +0.000 NA
ATOM      4  N   UNL     1       3.202   8.224  17.211  0.00  0.00    +0.000 NA
ATOM      5  C   UNL     1       3.664   7.133  17.802  0.00  0.00    +0.000 A 
ENDROOT
BRANCH   5   6
ATOM      6  C   UNL     1       4.779   6.346  17.281  0.00  0.00    +0.000 A 
ATOM      7  C   UNL     1       6.084   6.786  17.529  0.00  0.00    +0.000 A 
ATOM      8  C   UNL     1       7.174   6.134  16.954  0.00  0.00    +0.000 A 
ATOM      9  C   UNL     1       6.871   5.466  15.774  0.00  0.00    +0.000 A 
ATOM     10  N   UNL     1       7.558   5.216  14.612  0.00  0.00    +0.000 N 
ATOM     11  C   UNL     1       6.711   4.539  13.775  0.00  0.00    +0.000 A 
ATOM     12  N   UNL     1       5.570   4.255  14.360  0.00  0.00    +0.000 NA
ATOM     13  C   UNL     1       5.608   4.952  15.538  0.00  0.00    +0.000 A 
ATOM     14  C   UNL     1       4.576   5.248  16.431  0.00  0.00    +0.000 A 
ATOM     15  H   UNL     1       8.417   5.668  14.329  0.00  0.00    +0.000 HD
ENDBRANCH   5   6
BRANCH   1  16
ATOM     16  C   UNL     1       3.083   5.922  19.978  0.00  0.00    +0.000 C 
BRANCH  16  22
ATOM     17 CL   UNL     1       3.942   0.879  18.671  0.00  0.00    +0.000 Cl
ATOM     18  C   UNL     1       2.920   2.200  19.067  0.00  0.00    +0.000 A 
ATOM     19  C   UNL     1       1.531   1.986  19.073  0.00  0.00    +0.000 A 
ATOM     20  C   UNL     1       0.659   2.998  19.401  0.00  0.00    +0.000 A 
ATOM     21  C   UNL     1       1.166   4.256  19.729  0.00  0.00    +0.000 A 
ATOM     22  C   UNL     1       2.526   4.521  19.711  0.00  0.00    +0.000 A 
ATOM     23  C   UNL     1       3.426   3.476  19.364  0.00  0.00    +0.000 A 
ATOM     24 CL   UNL     1       5.130   3.774  19.356  0.00  0.00    +0.000 Cl
ENDBRANCH  16  22
ENDBRANCH   1  16
TORSDOF 3
ENDMDL
MODEL 3
REMARK VINA RESULT:      -7.9      3.036      5.315
REMARK  Name = 
REMARK  3 active torsions:
REMARK  status: ('A' for Active; 'I' for Inactive)
REMARK    1  A    between atoms: C_6  and  C_7
REMARK    2  A    between atoms: C_7  and  N_8
REMARK    3  A    between atoms: C_12  and  C_13
REMARK                            x       y       z     vdW  Elec       q    Type
REMARK                         _______ _______ _______ _____ _____    ______ ____
ROOT
ATOM      1  N   UNL     1       2.703   5.131  18.787  0.00  0.00    +0.000 N 
ATOM      2  C   UNL     1       1.587   4.422  18.438  0.00  0.00    +0.000 A 
ATOM      3  N   UNL     1       1.851   3.652  17.414  0.00  0.00    +0.000 NA
ATOM      4  N   UNL     1       3.161   3.862  17.073  0.00  0.00    +0.000 NA
ATOM      5  C   UNL     1       3.690   4.733  17.917  0.00  0.00    +0.000 A 
ENDROOT
BRANCH   5   6
ATOM      6  C   UNL     1       5.101   5.112  17.905  0.00  0.00    +0.000 A 
ATOM      7  C   UNL     1       5.934   4.624  18.918  0.00  0.00    +0.000 A 
ATOM      8  C   UNL     1       7.258   5.052  19.015  0.00  0.00    +0.000 A 
ATOM      9  C   UNL     1       7.486   6.306  18.462  0.00  0.00    +0.000 A 
ATOM     10  N   UNL     1       8.319   7.352  18.771  0.00  0.00    +0.000 N 
ATOM     11  C   UNL     1       8.059   8.358  17.880  0.00  0.00    +0.000 A 
ATOM     12  N   UNL     1       7.192   7.988  16.965  0.00  0.00    +0.000 NA
ATOM     13  C   UNL     1       6.726   6.779  17.406  0.00  0.00    +0.000 A 
ATOM     14  C   UNL     1       5.608   6.051  16.994  0.00  0.00    +0.000 A 
ATOM     15  H   UNL     1       8.828   7.460  19.639  0.00  0.00    +0.000 HD
ENDBRANCH   5   6
BRANCH   1  16
ATOM     16  C   UNL     1       2.726   6.205  19.773  0.00  0.00    +0.000 C 
BRANCH  16  22
ATOM     17 CL   UNL     1      -0.017  10.643  20.586  0.00  0.00    +0.000 Cl
ATOM     18  C   UNL     1       0.949   9.600  19.623  0.00  0.00    +0.000 A 
ATOM     19  C   UNL     1       1.243   9.996  18.307  0.00  0.00    +0.000 A 
ATOM     20  C   UNL     1       2.028   9.216  17.490  0.00  0.00    +0.000 A 
ATOM     21  C   UNL     1       2.535   8.011  17.980  0.00  0.00    +0.000 A 
ATOM     22  C   UNL     1       2.251   7.568  19.261  0.00  0.00    +0.000 A 
ATOM     23  C   UNL     1       1.432   8.372  20.102  0.00  0.00    +0.000 A 
ATOM     24 CL   UNL     1       1.080   7.853  21.714  0.00  0.00    +0.000 Cl
ENDBRANCH  16  22
ENDBRANCH   1  16
TORSDOF 3
ENDMDL
MODEL 4
REMARK VINA RESULT:      -7.8      2.535      5.536
REMARK  Name = 
REMARK  3 active torsions:
REMARK  status: ('A' for Active; 'I' for Inactive)
REMARK    1  A    between atoms: C_6  and  C_7
REMARK    2  A    between atoms: C_7  and  N_8
REMARK    3  A    between atoms: C_12  and  C_13
REMARK                            x       y       z     vdW  Elec       q    Type
REMARK                         _______ _______ _______ _____ _____    ______ ____
ROOT
ATOM      1  N   UNL     1       2.623   4.363  19.010  0.00  0.00    +0.000 N 
ATOM      2  C   UNL     1       1.340   3.903  19.127  0.00  0.00    +0.000 A 
ATOM      3  N   UNL     1       1.076   3.069  18.154  0.00  0.00    +0.000 NA
ATOM      4  N   UNL     1       2.200   2.983  17.375  0.00  0.00    +0.000 NA
ATOM      5  C   UNL     1       3.148   3.740  17.903  0.00  0.00    +0.000 A 
ENDROOT
BRANCH   5   6
ATOM      6  C   UNL     1       4.511   3.805  17.382  0.00  0.00    +0.000 A 
ATOM      7  C   UNL     1       5.490   4.453  18.143  0.00  0.00    +0.000 A 
ATOM      8  C   UNL     1       6.774   4.642  17.635  0.00  0.00    +0.000 A 
ATOM      9  C   UNL     1       6.832   4.673  16.247  0.00  0.00    +0.000 A 
ATOM     10  N   UNL     1       7.600   5.351  15.335  0.00  0.00    +0.000 N 
ATOM     11  C   UNL     1       7.158   5.001  14.087  0.00  0.00    +0.000 A 
ATOM     12  N   UNL     1       6.230   4.073  14.141  0.00  0.00    +0.000 NA
ATOM     13  C   UNL     1       5.922   3.976  15.471  0.00  0.00    +0.000 A 
ATOM     14  C   UNL     1       4.831   3.360  16.090  0.00  0.00    +0.000 A 
ATOM     15  H   UNL     1       8.191   6.146  15.541  0.00  0.00    +0.000 HD
ENDBRANCH   5   6
BRANCH   1  16
ATOM     16  C   UNL     1       3.195   5.431  19.821  0.00  0.00    +0.000 C 
BRANCH  16  22
ATOM     17 CL   UNL     1       1.804  10.089  17.761  0.00  0.00    +0.000 Cl
ATOM     18  C   UNL     1       1.740   8.877  18.974  0.00  0.00    +0.000 A 
ATOM     19  C   UNL     1       0.938   9.111  20.104  0.00  0.00    +0.000 A 
ATOM     20  C   UNL     1       0.828   8.172  21.104  0.00  0.00    +0.000 A 
ATOM     21  C   UNL     1       1.529   6.970  20.990  0.00  0.00    +0.000 A 
ATOM     22  C   UNL     1       2.352   6.706  19.907  0.00  0.00    +0.000 A 
ATOM     23  C   UNL     1       2.471   7.681  18.879  0.00  0.00    +0.000 A 
ATOM     24 CL   UNL     1       3.473   7.367  17.505  0.00  0.00    +0.000 Cl
ENDBRANCH  16  22
ENDBRANCH   1  16
TORSDOF 3
ENDMDL
MODEL 5
REMARK VINA RESULT:      -7.6      1.326      1.741
REMARK  Name = 
REMARK  3 active torsions:
REMARK  status: ('A' for Active; 'I' for Inactive)
REMARK    1  A    between atoms: C_6  and  C_7
REMARK    2  A    between atoms: C_7  and  N_8
REMARK    3  A    between atoms: C_12  and  C_13
REMARK                            x       y       z     vdW  Elec       q    Type
REMARK                         _______ _______ _______ _____ _____    ______ ____
ROOT
ATOM      1  N   UNL     1       3.356   3.362  18.762  0.00  0.00    +0.000 N 
ATOM      2  C   UNL     1       2.803   2.210  18.273  0.00  0.00    +0.000 A 
ATOM      3  N   UNL     1       1.531   2.396  18.031  0.00  0.00    +0.000 NA
ATOM      4  N   UNL     1       1.235   3.688  18.374  0.00  0.00    +0.000 NA
ATOM      5  C   UNL     1       2.339   4.287  18.789  0.00  0.00    +0.000 A 
ENDROOT
BRANCH   5   6
ATOM      6  C   UNL     1       2.405   5.703  19.140  0.00  0.00    +0.000 A 
ATOM      7  C   UNL     1       1.911   6.110  20.384  0.00  0.00    +0.000 A 
ATOM      8  C   UNL     1       1.845   7.463  20.714  0.00  0.00    +0.000 A 
ATOM      9  C   UNL     1       1.753   8.306  19.614  0.00  0.00    +0.000 A 
ATOM     10  N   UNL     1       1.123   9.501  19.373  0.00  0.00    +0.000 N 
ATOM     11  C   UNL     1       1.359   9.831  18.065  0.00  0.00    +0.000 A 
ATOM     12  N   UNL     1       2.177   8.981  17.487  0.00  0.00    +0.000 NA
ATOM     13  C   UNL     1       2.303   7.961  18.391  0.00  0.00    +0.000 A 
ATOM     14  C   UNL     1       2.819   6.675  18.217  0.00  0.00    +0.000 A 
ATOM     15  H   UNL     1       0.411   9.918  19.959  0.00  0.00    +0.000 HD
ENDBRANCH   5   6
BRANCH   1  16
ATOM     16  C   UNL     1       4.709   3.468  19.295  0.00  0.00    +0.000 C 
BRANCH  16  22
ATOM     17 CL   UNL     1       6.837   5.225  14.793  0.00  0.00    +0.000 Cl
ATOM     18  C   UNL     1       6.630   5.254  16.497  0.00  0.00    +0.000 A 
ATOM     19  C   UNL     1       7.376   6.186  17.239  0.00  0.00    +0.000 A 
ATOM     20  C   UNL     1       7.242   6.274  18.606  0.00  0.00    +0.000 A 
ATOM     21  C   UNL     1       6.352   5.420  19.260  0.00  0.00    +0.000 A 
ATOM     22  C   UNL     1       5.616   4.469  18.573  0.00  0.00    +0.000 A 
ATOM     23  C   UNL     1       5.761   4.374  17.162  0.00  0.00    +0.000 A 
ATOM     24 CL   UNL     1       4.836   3.210  16.277  0.00  0.00    +0.000 Cl
ENDBRANCH  16  22
ENDBRANCH   1  16
TORSDOF 3
ENDMDL
MODEL 6
REMARK VINA RESULT:      -7.6      2.762      5.306
REMARK  Name = 
REMARK  3 active torsions:
REMARK  status: ('A' for Active; 'I' for Inactive)
REMARK    1  A    between atoms: C_6  and  C_7
REMARK    2  A    between atoms: C_7  and  N_8
REMARK    3  A    between atoms: C_12  and  C_13
REMARK                            x       y       z     vdW  Elec       q    Type
REMARK                         _______ _______ _______ _____ _____    ______ ____
ROOT
ATOM      1  N   UNL     1       2.423   4.518  19.418  0.00  0.00    +0.000 N 
ATOM      2  C   UNL     1       1.174   3.994  19.614  0.00  0.00    +0.000 A 
ATOM      3  N   UNL     1       0.975   3.000  18.787  0.00  0.00    +0.000 NA
ATOM      4  N   UNL     1       2.106   2.870  18.025  0.00  0.00    +0.000 NA
ATOM      5  C   UNL     1       2.996   3.766  18.421  0.00  0.00    +0.000 A 
ENDROOT
BRANCH   5   6
ATOM      6  C   UNL     1       4.354   3.842  17.889  0.00  0.00    +0.000 A 
ATOM      7  C   UNL     1       5.327   4.524  18.629  0.00  0.00    +0.000 A 
ATOM      8  C   UNL     1       6.604   4.723  18.107  0.00  0.00    +0.000 A 
ATOM      9  C   UNL     1       6.652   4.724  16.719  0.00  0.00    +0.000 A 
ATOM     10  N   UNL     1       7.402   5.394  15.786  0.00  0.00    +0.000 N 
ATOM     11  C   UNL     1       6.958   5.009  14.550  0.00  0.00    +0.000 A 
ATOM     12  N   UNL     1       6.047   4.066  14.631  0.00  0.00    +0.000 NA
ATOM     13  C   UNL     1       5.749   3.994  15.965  0.00  0.00    +0.000 A 
ATOM     14  C   UNL     1       4.674   3.374  16.605  0.00  0.00    +0.000 A 
ATOM     15  H   UNL     1       7.980   6.204  15.970  0.00  0.00    +0.000 HD
ENDBRANCH   5   6
BRANCH   1  16
ATOM     16  C   UNL     1       2.914   5.738  20.047  0.00  0.00    +0.000 C 
BRANCH  16  22
ATOM     17 CL   UNL     1       0.236  10.288  19.970  0.00  0.00    +0.000 Cl
ATOM     18  C   UNL     1       1.280   9.119  19.269  0.00  0.00    +0.000 A 
ATOM     19  C   UNL     1       1.748   9.347  17.964  0.00  0.00    +0.000 A 
ATOM     20  C   UNL     1       2.603   8.459  17.352  0.00  0.00    +0.000 A 
ATOM     21  C   UNL     1       3.006   7.315  18.042  0.00  0.00    +0.000 A 
ATOM     22  C   UNL     1       2.551   7.036  19.321  0.00  0.00    +0.000 A 
ATOM     23  C   UNL     1       1.660   7.950  19.948  0.00  0.00    +0.000 A 
ATOM     24 CL   UNL     1       1.094   7.638  21.553  0.00  0.00    +0.000 Cl
ENDBRANCH  16  22
ENDBRANCH   1  16
TORSDOF 3
ENDMDL
MODEL 7
REMARK VINA RESULT:      -7.3      2.985      5.675
REMARK  Name = 
REMARK  3 active torsions:
REMARK  status: ('A' for Active; 'I' for Inactive)
REMARK    1  A    between atoms: C_6  and  C_7
REMARK    2  A    between atoms: C_7  and  N_8
REMARK    3  A    between atoms: C_12  and  C_13
REMARK                            x       y       z     vdW  Elec       q    Type
REMARK                         _______ _______ _______ _____ _____    ______ ____
ROOT
ATOM      1  N   UNL     1       2.020   5.195  20.132  0.00  0.00    +0.000 N 
ATOM      2  C   UNL     1       0.950   4.419  20.487  0.00  0.00    +0.000 A 
ATOM      3  N   UNL     1       0.862   3.389  19.685  0.00  0.00    +0.000 NA
ATOM      4  N   UNL     1       1.885   3.489  18.779  0.00  0.00    +0.000 NA
ATOM      5  C   UNL     1       2.605   4.563  19.061  0.00  0.00    +0.000 A 
ENDROOT
BRANCH   5   6
ATOM      6  C   UNL     1       3.834   4.917  18.354  0.00  0.00    +0.000 A 
ATOM      7  C   UNL     1       3.908   4.677  16.977  0.00  0.00    +0.000 A 
ATOM      8  C   UNL     1       5.098   4.889  16.283  0.00  0.00    +0.000 A 
ATOM      9  C   UNL     1       6.236   4.790  17.074  0.00  0.00    +0.000 A 
ATOM     10  N   UNL     1       7.516   4.346  16.860  0.00  0.00    +0.000 N 
ATOM     11  C   UNL     1       8.190   4.451  18.047  0.00  0.00    +0.000 A 
ATOM     12  N   UNL     1       7.457   5.024  18.974  0.00  0.00    +0.000 NA
ATOM     13  C   UNL     1       6.207   5.099  18.423  0.00  0.00    +0.000 A 
ATOM     14  C   UNL     1       4.978   5.359  19.034  0.00  0.00    +0.000 A 
ATOM     15  H   UNL     1       7.824   3.804  16.062  0.00  0.00    +0.000 HD
ENDBRANCH   5   6
BRANCH   1  16
ATOM     16  C   UNL     1       2.316   6.505  20.700  0.00  0.00    +0.000 C 
BRANCH  16  22
ATOM     17 CL   UNL     1      -0.307  11.059  20.191  0.00  0.00    +0.000 Cl
ATOM     18  C   UNL     1       0.666   9.782  19.583  0.00  0.00    +0.000 A 
ATOM     19  C   UNL     1       1.034   9.816  18.227  0.00  0.00    +0.000 A 
ATOM     20  C   UNL     1       1.828   8.833  17.683  0.00  0.00    +0.000 A 
ATOM     21  C   UNL     1       2.270   7.787  18.494  0.00  0.00    +0.000 A 
ATOM     22  C   UNL     1       1.912   7.698  19.829  0.00  0.00    +0.000 A 
ATOM     23  C   UNL     1       1.084   8.710  20.388  0.00  0.00    +0.000 A 
ATOM     24 CL   UNL     1       0.640   8.635  22.059  0.00  0.00    +0.000 Cl
ENDBRANCH  16  22
ENDBRANCH   1  16
TORSDOF 3
ENDMDL
MODEL 8
REMARK VINA RESULT:      -7.1      1.219      1.775
REMARK  Name = 
REMARK  3 active torsions:
REMARK  status: ('A' for Active; 'I' for Inactive)
REMARK    1  A    between atoms: C_6  and  C_7
REMARK    2  A    between atoms: C_7  and  N_8
REMARK    3  A    between atoms: C_12  and  C_13
REMARK                            x       y       z     vdW  Elec       q    Type
REMARK                         _______ _______ _______ _____ _____    ______ ____
ROOT
ATOM      1  N   UNL     1       2.982   3.905  17.861  0.00  0.00    +0.000 N 
ATOM      2  C   UNL     1       2.571   2.601  17.899  0.00  0.00    +0.000 A 
ATOM      3  N   UNL     1       1.720   2.432  18.879  0.00  0.00    +0.000 NA
ATOM      4  N   UNL     1       1.574   3.641  19.505  0.00  0.00    +0.000 NA
ATOM      5  C   UNL     1       2.311   4.543  18.877  0.00  0.00    +0.000 A 
ENDROOT
BRANCH   5   6
ATOM      6  C   UNL     1       2.313   5.962  19.221  0.00  0.00    +0.000 A 
ATOM      7  C   UNL     1       1.846   6.348  20.482  0.00  0.00    +0.000 A 
ATOM      8  C   UNL     1       1.719   7.697  20.810  0.00  0.00    +0.000 A 
ATOM      9  C   UNL     1       1.539   8.528  19.711  0.00  0.00    +0.000 A 
ATOM     10  N   UNL     1       0.836   9.686  19.491  0.00  0.00    +0.000 N 
ATOM     11  C   UNL     1       1.003  10.022  18.174  0.00  0.00    +0.000 A 
ATOM     12  N   UNL     1       1.843   9.214  17.568  0.00  0.00    +0.000 NA
ATOM     13  C   UNL     1       2.060   8.208  18.469  0.00  0.00    +0.000 A 
ATOM     14  C   UNL     1       2.638   6.951  18.279  0.00  0.00    +0.000 A 
ATOM     15  H   UNL     1       0.126  10.067  20.103  0.00  0.00    +0.000 HD
ENDBRANCH   5   6
BRANCH   1  16
ATOM     16  C   UNL     1       4.051   4.410  17.007  0.00  0.00    +0.000 C 
BRANCH  16  22
ATOM     17 CL   UNL     1       7.863   8.052  17.291  0.00  0.00    +0.000 Cl
ATOM     18  C   UNL     1       7.041   6.655  17.857  0.00  0.00    +0.000 A 
ATOM     19  C   UNL     1       7.545   6.006  18.997  0.00  0.00    +0.000 A 
ATOM     20  C   UNL     1       6.922   4.893  19.514  0.00  0.00    +0.000 A 
ATOM     21  C   UNL     1       5.773   4.404  18.890  0.00  0.00    +0.000 A 
ATOM     22  C   UNL     1       5.255   4.996  17.750  0.00  0.00    +0.000 A 
ATOM     23  C   UNL     1       5.905   6.141  17.212  0.00  0.00    +0.000 A 
ATOM     24 CL   UNL     1       5.265   6.913  15.803  0.00  0.00    +0.000 Cl
ENDBRANCH  16  22
ENDBRANCH   1  16
TORSDOF 3
ENDMDL
MODEL 9
REMARK VINA RESULT:      -7.1      2.928      5.959
REMARK  Name = 
REMARK  3 active torsions:
REMARK  status: ('A' for Active; 'I' for Inactive)
REMARK    1  A    between atoms: C_6  and  C_7
REMARK    2  A    between atoms: C_7  and  N_8
REMARK    3  A    between atoms: C_12  and  C_13
REMARK                            x       y       z     vdW  Elec       q    Type
REMARK                         _______ _______ _______ _____ _____    ______ ____
ROOT
ATOM      1  N   UNL     1       2.573   5.399  19.627  0.00  0.00    +0.000 N 
ATOM      2  C   UNL     1       1.471   4.948  20.299  0.00  0.00    +0.000 A 
ATOM      3  N   UNL     1       1.373   3.650  20.174  0.00  0.00    +0.000 NA
ATOM      4  N   UNL     1       2.423   3.235  19.398  0.00  0.00    +0.000 NA
ATOM      5  C   UNL     1       3.169   4.283  19.088  0.00  0.00    +0.000 A 
ENDROOT
BRANCH   5   6
ATOM      6  C   UNL     1       4.427   4.188  18.352  0.00  0.00    +0.000 A 
ATOM      7  C   UNL     1       5.578   4.750  18.915  0.00  0.00    +0.000 A 
ATOM      8  C   UNL     1       6.773   4.788  18.198  0.00  0.00    +0.000 A 
ATOM      9  C   UNL     1       6.603   4.773  16.820  0.00  0.00    +0.000 A 
ATOM     10  N   UNL     1       7.275   5.339  15.766  0.00  0.00    +0.000 N 
ATOM     11  C   UNL     1       6.600   5.002  14.623  0.00  0.00    +0.000 A 
ATOM     12  N   UNL     1       5.606   4.180  14.868  0.00  0.00    +0.000 NA
ATOM     13  C   UNL     1       5.513   4.154  16.233  0.00  0.00    +0.000 A 
ATOM     14  C   UNL     1       4.484   3.676  17.047  0.00  0.00    +0.000 A 
ATOM     15  H   UNL     1       7.968   6.073  15.838  0.00  0.00    +0.000 HD
ENDBRANCH   5   6
BRANCH   1  16
ATOM     16  C   UNL     1       2.894   6.805  19.414  0.00  0.00    +0.000 C 
BRANCH  16  22
ATOM     17 CL   UNL     1      -0.040  11.129  18.652  0.00  0.00    +0.000 Cl
ATOM     18  C   UNL     1       0.529   9.819  19.604  0.00  0.00    +0.000 A 
ATOM     19  C   UNL     1       0.067   9.711  20.927  0.00  0.00    +0.000 A 
ATOM     20  C   UNL     1       0.469   8.673  21.737  0.00  0.00    +0.000 A 
ATOM     21  C   UNL     1       1.352   7.717  21.231  0.00  0.00    +0.000 A 
ATOM     22  C   UNL     1       1.854   7.797  19.943  0.00  0.00    +0.000 A 
ATOM     23  C   UNL     1       1.444   8.875  19.110  0.00  0.00    +0.000 A 
ATOM     24 CL   UNL     1       2.037   8.985  17.489  0.00  0.00    +0.000 Cl
ENDBRANCH  16  22
ENDBRANCH   1  16
TORSDOF 3
ENDMDL
