MODEL 1
REMARK VINA RESULT:      -8.2      0.000      0.000
REMARK  Name = 
REMARK  5 active torsions:
REMARK  status: ('A' for Active; 'I' for Inactive)
REMARK    1  A    between atoms: C_1  and  C_2
REMARK    2  A    between atoms: C_4  and  C_5
REMARK    3  A    between atoms: C_8  and  C_9
REMARK    4  A    between atoms: C_18  and  C_19
REMARK    5  A    between atoms: C_24  and  C_26
REMARK                            x       y       z     vdW  Elec       q    Type
REMARK                         _______ _______ _______ _____ _____    ______ ____
ROOT
ATOM      1  C   UNL     1      -0.568   9.794  23.081  0.00  0.00    +0.000 C 
ATOM      2  C   UNL     1      -0.140   9.809  21.656  0.00  0.00    +0.000 A 
ATOM      3  N   UNL     1       0.753   8.833  21.243  0.00  0.00    +0.000 NA
ATOM      4  C   UNL     1       1.084   9.005  19.979  0.00  0.00    +0.000 A 
ATOM      5  S   UNL     1       0.271  10.302  19.200  0.00  0.00    +0.000 S 
ATOM      6  C   UNL     1      -0.520  10.703  20.669  0.00  0.00    +0.000 A 
ENDROOT
BRANCH   6   7
ATOM      7  C   UNL     1      -1.418  11.816  20.764  0.00  0.00    +0.000 A 
ATOM      8  N   UNL     1      -2.344  12.108  19.868  0.00  0.00    +0.000 NA
ATOM      9  N   UNL     1      -2.999  13.238  20.317  0.00  0.00    +0.000 NA
ATOM     10  C   UNL     1      -2.439  13.567  21.459  0.00  0.00    +0.000 A 
ATOM     11  N   UNL     1      -2.719  14.587  22.284  0.00  0.00    +0.000 N 
ATOM     12  C   UNL     1      -2.148  14.937  23.489  0.00  0.00    +0.000 C 
ATOM     13  N   UNL     1      -1.172  14.301  24.060  0.00  0.00    +0.000 NA
ATOM     14  O   UNL     1      -1.427  12.713  21.804  0.00  0.00    +0.000 OA
ATOM     15  H   UNL     1      -3.473  15.209  21.995  0.00  0.00    +0.000 HD
ATOM     16  H   UNL     1      -0.898  13.506  23.470  0.00  0.00    +0.000 HD
BRANCH  12  17
ATOM     17  C   UNL     1      -2.719  16.149  24.179  0.00  0.00    +0.000 A 
ATOM     18  C   UNL     1      -4.078  16.223  24.458  0.00  0.00    +0.000 A 
ATOM     19  C   UNL     1      -4.556  17.363  25.096  0.00  0.00    +0.000 A 
ATOM     20  C   UNL     1      -3.667  18.381  25.424  0.00  0.00    +0.000 A 
ATOM     21  C   UNL     1      -2.326  18.219  25.103  0.00  0.00    +0.000 A 
ATOM     22  N   UNL     1      -1.819  17.124  24.488  0.00  0.00    +0.000 NA
ENDBRANCH  12  17
ENDBRANCH   6   7
BRANCH   4  23
ATOM     23  C   UNL     1       2.048   8.150  19.269  0.00  0.00    +0.000 A 
ATOM     24  C   UNL     1       2.563   8.586  18.043  0.00  0.00    +0.000 A 
ATOM     25  C   UNL     1       3.436   7.784  17.301  0.00  0.00    +0.000 A 
ATOM     26  C   UNL     1       3.837   6.515  17.752  0.00  0.00    +0.000 A 
ATOM     27  C   UNL     1       3.316   6.086  18.985  0.00  0.00    +0.000 A 
ATOM     28  C   UNL     1       2.434   6.886  19.730  0.00  0.00    +0.000 A 
BRANCH  26  29
ATOM     29  C   UNL     1       4.757   5.673  16.950  0.00  0.00    +0.000 A 
ATOM     30  C   UNL     1       6.012   6.159  16.536  0.00  0.00    +0.000 A 
ATOM     31  C   UNL     1       6.872   5.393  15.743  0.00  0.00    +0.000 A 
ATOM     32  C   UNL     1       6.504   4.109  15.361  0.00  0.00    +0.000 A 
ATOM     33  C   UNL     1       5.279   3.592  15.770  0.00  0.00    +0.000 A 
ATOM     34  C   UNL     1       4.414   4.369  16.551  0.00  0.00    +0.000 A 
ENDBRANCH  26  29
ENDBRANCH   4  23
TORSDOF 4
ENDMDL
MODEL 2
REMARK VINA RESULT:      -7.9      4.441     12.616
REMARK  Name = 
REMARK  5 active torsions:
REMARK  status: ('A' for Active; 'I' for Inactive)
REMARK    1  A    between atoms: C_1  and  C_2
REMARK    2  A    between atoms: C_4  and  C_5
REMARK    3  A    between atoms: C_8  and  C_9
REMARK    4  A    between atoms: C_18  and  C_19
REMARK    5  A    between atoms: C_24  and  C_26
REMARK                            x       y       z     vdW  Elec       q    Type
REMARK                         _______ _______ _______ _____ _____    ______ ____
ROOT
ATOM      1  C   UNL     1       2.153   4.234  21.557  0.00  0.00    +0.000 C 
ATOM      2  C   UNL     1       2.092   5.506  20.787  0.00  0.00    +0.000 A 
ATOM      3  N   UNL     1       1.539   6.611  21.414  0.00  0.00    +0.000 NA
ATOM      4  C   UNL     1       1.499   7.644  20.596  0.00  0.00    +0.000 A 
ATOM      5  S   UNL     1       2.206   7.360  19.056  0.00  0.00    +0.000 S 
ATOM      6  C   UNL     1       2.518   5.728  19.489  0.00  0.00    +0.000 A 
ENDROOT
BRANCH   6   7
ATOM      7  C   UNL     1       3.127   4.808  18.574  0.00  0.00    +0.000 A 
ATOM      8  N   UNL     1       3.042   3.493  18.669  0.00  0.00    +0.000 NA
ATOM      9  N   UNL     1       3.750   2.964  17.608  0.00  0.00    +0.000 NA
ATOM     10  C   UNL     1       4.222   3.983  16.927  0.00  0.00    +0.000 A 
ATOM     11  N   UNL     1       4.971   3.993  15.814  0.00  0.00    +0.000 N 
ATOM     12  C   UNL     1       5.462   5.053  15.084  0.00  0.00    +0.000 C 
ATOM     13  N   UNL     1       5.278   6.304  15.376  0.00  0.00    +0.000 NA
ATOM     14  O   UNL     1       3.870   5.184  17.482  0.00  0.00    +0.000 OA
ATOM     15  H   UNL     1       5.221   3.083  15.429  0.00  0.00    +0.000 HD
ATOM     16  H   UNL     1       4.715   6.370  16.232  0.00  0.00    +0.000 HD
BRANCH  12  17
ATOM     17  C   UNL     1       6.266   4.711  13.856  0.00  0.00    +0.000 A 
ATOM     18  C   UNL     1       5.885   3.654  13.039  0.00  0.00    +0.000 A 
ATOM     19  C   UNL     1       6.661   3.378  11.918  0.00  0.00    +0.000 A 
ATOM     20  C   UNL     1       7.782   4.159  11.659  0.00  0.00    +0.000 A 
ATOM     21  C   UNL     1       8.086   5.194  12.534  0.00  0.00    +0.000 A 
ATOM     22  N   UNL     1       7.355   5.499  13.632  0.00  0.00    +0.000 NA
ENDBRANCH  12  17
ENDBRANCH   6   7
BRANCH   4  23
ATOM     23  C   UNL     1       0.927   8.948  20.963  0.00  0.00    +0.000 A 
ATOM     24  C   UNL     1       0.311   9.087  22.213  0.00  0.00    +0.000 A 
ATOM     25  C   UNL     1      -0.301  10.289  22.585  0.00  0.00    +0.000 A 
ATOM     26  C   UNL     1      -0.319  11.405  21.731  0.00  0.00    +0.000 A 
ATOM     27  C   UNL     1       0.304  11.256  20.480  0.00  0.00    +0.000 A 
ATOM     28  C   UNL     1       0.913  10.049  20.099  0.00  0.00    +0.000 A 
BRANCH  26  29
ATOM     29  C   UNL     1      -0.977  12.669  22.138  0.00  0.00    +0.000 A 
ATOM     30  C   UNL     1      -1.072  13.758  21.251  0.00  0.00    +0.000 A 
ATOM     31  C   UNL     1      -1.653  14.971  21.635  0.00  0.00    +0.000 A 
ATOM     32  C   UNL     1      -2.173  15.117  22.915  0.00  0.00    +0.000 A 
ATOM     33  C   UNL     1      -2.112  14.054  23.809  0.00  0.00    +0.000 A 
ATOM     34  C   UNL     1      -1.516  12.846  23.426  0.00  0.00    +0.000 A 
ENDBRANCH  26  29
ENDBRANCH   4  23
TORSDOF 4
ENDMDL
MODEL 3
REMARK VINA RESULT:      -7.9      4.536     12.551
REMARK  Name = 
REMARK  5 active torsions:
REMARK  status: ('A' for Active; 'I' for Inactive)
REMARK    1  A    between atoms: C_1  and  C_2
REMARK    2  A    between atoms: C_4  and  C_5
REMARK    3  A    between atoms: C_8  and  C_9
REMARK    4  A    between atoms: C_18  and  C_19
REMARK    5  A    between atoms: C_24  and  C_26
REMARK                            x       y       z     vdW  Elec       q    Type
REMARK                         _______ _______ _______ _____ _____    ______ ____
ROOT
ATOM      1  C   UNL     1       1.915   3.979  21.573  0.00  0.00    +0.000 C 
ATOM      2  C   UNL     1       1.932   5.279  20.851  0.00  0.00    +0.000 A 
ATOM      3  N   UNL     1       1.309   6.359  21.457  0.00  0.00    +0.000 NA
ATOM      4  C   UNL     1       1.354   7.423  20.680  0.00  0.00    +0.000 A 
ATOM      5  S   UNL     1       2.224   7.200  19.216  0.00  0.00    +0.000 S 
ATOM      6  C   UNL     1       2.495   5.553  19.616  0.00  0.00    +0.000 A 
ENDROOT
BRANCH   6   7
ATOM      7  C   UNL     1       3.204   4.670  18.737  0.00  0.00    +0.000 A 
ATOM      8  N   UNL     1       3.287   3.361  18.901  0.00  0.00    +0.000 NA
ATOM      9  N   UNL     1       4.043   2.870  17.854  0.00  0.00    +0.000 NA
ATOM     10  C   UNL     1       4.373   3.903  17.113  0.00  0.00    +0.000 A 
ATOM     11  N   UNL     1       5.100   3.948  15.987  0.00  0.00    +0.000 N 
ATOM     12  C   UNL     1       5.444   5.022  15.195  0.00  0.00    +0.000 C 
ATOM     13  N   UNL     1       5.107   6.253  15.426  0.00  0.00    +0.000 NA
ATOM     14  O   UNL     1       3.879   5.078  17.613  0.00  0.00    +0.000 OA
ATOM     15  H   UNL     1       5.459   3.058  15.644  0.00  0.00    +0.000 HD
ATOM     16  H   UNL     1       4.552   6.293  16.289  0.00  0.00    +0.000 HD
BRANCH  12  17
ATOM     17  C   UNL     1       6.269   4.719  13.970  0.00  0.00    +0.000 A 
ATOM     18  C   UNL     1       5.899   3.692  13.110  0.00  0.00    +0.000 A 
ATOM     19  C   UNL     1       6.695   3.452  11.994  0.00  0.00    +0.000 A 
ATOM     20  C   UNL     1       7.824   4.237  11.783  0.00  0.00    +0.000 A 
ATOM     21  C   UNL     1       8.114   5.240  12.699  0.00  0.00    +0.000 A 
ATOM     22  N   UNL     1       7.365   5.510  13.793  0.00  0.00    +0.000 NA
ENDBRANCH  12  17
ENDBRANCH   6   7
BRANCH   4  23
ATOM     23  C   UNL     1       0.739   8.712  21.034  0.00  0.00    +0.000 A 
ATOM     24  C   UNL     1       0.510   9.651  20.021  0.00  0.00    +0.000 A 
ATOM     25  C   UNL     1      -0.015  10.914  20.314  0.00  0.00    +0.000 A 
ATOM     26  C   UNL     1      -0.343  11.291  21.629  0.00  0.00    +0.000 A 
ATOM     27  C   UNL     1      -0.111  10.341  22.638  0.00  0.00    +0.000 A 
ATOM     28  C   UNL     1       0.424   9.074  22.348  0.00  0.00    +0.000 A 
BRANCH  26  29
ATOM     29  C   UNL     1      -0.893  12.636  21.923  0.00  0.00    +0.000 A 
ATOM     30  C   UNL     1      -1.343  12.970  23.215  0.00  0.00    +0.000 A 
ATOM     31  C   UNL     1      -1.903  14.219  23.499  0.00  0.00    +0.000 A 
ATOM     32  C   UNL     1      -2.008  15.176  22.497  0.00  0.00    +0.000 A 
ATOM     33  C   UNL     1      -1.555  14.884  21.214  0.00  0.00    +0.000 A 
ATOM     34  C   UNL     1      -1.009  13.626  20.931  0.00  0.00    +0.000 A 
ENDBRANCH  26  29
ENDBRANCH   4  23
TORSDOF 4
ENDMDL
MODEL 4
REMARK VINA RESULT:      -7.8      2.320      3.087
REMARK  Name = 
REMARK  5 active torsions:
REMARK  status: ('A' for Active; 'I' for Inactive)
REMARK    1  A    between atoms: C_1  and  C_2
REMARK    2  A    between atoms: C_4  and  C_5
REMARK    3  A    between atoms: C_8  and  C_9
REMARK    4  A    between atoms: C_18  and  C_19
REMARK    5  A    between atoms: C_24  and  C_26
REMARK                            x       y       z     vdW  Elec       q    Type
REMARK                         _______ _______ _______ _____ _____    ______ ____
ROOT
ATOM      1  C   UNL     1       0.620  13.650  21.062  0.00  0.00    +0.000 C 
ATOM      2  C   UNL     1       0.301  12.203  20.935  0.00  0.00    +0.000 A 
ATOM      3  N   UNL     1       1.194  11.407  20.236  0.00  0.00    +0.000 NA
ATOM      4  C   UNL     1       0.754  10.166  20.156  0.00  0.00    +0.000 A 
ATOM      5  S   UNL     1      -0.718   9.878  20.993  0.00  0.00    +0.000 S 
ATOM      6  C   UNL     1      -0.808  11.536  21.428  0.00  0.00    +0.000 A 
ENDROOT
BRANCH   6   7
ATOM      7  C   UNL     1      -1.907  12.059  22.184  0.00  0.00    +0.000 A 
ATOM      8  N   UNL     1      -2.289  11.601  23.363  0.00  0.00    +0.000 NA
ATOM      9  N   UNL     1      -3.369  12.363  23.763  0.00  0.00    +0.000 NA
ATOM     10  C   UNL     1      -3.581  13.242  22.810  0.00  0.00    +0.000 A 
ATOM     11  N   UNL     1      -4.513  14.203  22.728  0.00  0.00    +0.000 N 
ATOM     12  C   UNL     1      -4.739  15.138  21.741  0.00  0.00    +0.000 C 
ATOM     13  N   UNL     1      -4.048  15.245  20.648  0.00  0.00    +0.000 NA
ATOM     14  O   UNL     1      -2.695  13.108  21.776  0.00  0.00    +0.000 OA
ATOM     15  H   UNL     1      -5.161  14.273  23.511  0.00  0.00    +0.000 HD
ATOM     16  H   UNL     1      -3.316  14.525  20.641  0.00  0.00    +0.000 HD
BRANCH  12  17
ATOM     17  C   UNL     1      -5.876  16.100  21.971  0.00  0.00    +0.000 A 
ATOM     18  C   UNL     1      -6.690  15.970  23.089  0.00  0.00    +0.000 A 
ATOM     19  C   UNL     1      -7.727  16.883  23.256  0.00  0.00    +0.000 A 
ATOM     20  C   UNL     1      -7.914  17.880  22.305  0.00  0.00    +0.000 A 
ATOM     21  C   UNL     1      -7.050  17.929  21.218  0.00  0.00    +0.000 A 
ATOM     22  N   UNL     1      -6.026  17.065  21.021  0.00  0.00    +0.000 NA
ENDBRANCH  12  17
ENDBRANCH   6   7
BRANCH   4  23
ATOM     23  C   UNL     1       1.466   9.098  19.438  0.00  0.00    +0.000 A 
ATOM     24  C   UNL     1       1.748   7.904  20.112  0.00  0.00    +0.000 A 
ATOM     25  C   UNL     1       2.475   6.881  19.494  0.00  0.00    +0.000 A 
ATOM     26  C   UNL     1       2.946   7.003  18.175  0.00  0.00    +0.000 A 
ATOM     27  C   UNL     1       2.656   8.205  17.506  0.00  0.00    +0.000 A 
ATOM     28  C   UNL     1       1.933   9.237  18.126  0.00  0.00    +0.000 A 
BRANCH  26  29
ATOM     29  C   UNL     1       3.721   5.912  17.536  0.00  0.00    +0.000 A 
ATOM     30  C   UNL     1       3.429   4.560  17.802  0.00  0.00    +0.000 A 
ATOM     31  C   UNL     1       4.179   3.522  17.240  0.00  0.00    +0.000 A 
ATOM     32  C   UNL     1       5.230   3.812  16.380  0.00  0.00    +0.000 A 
ATOM     33  C   UNL     1       5.532   5.137  16.082  0.00  0.00    +0.000 A 
ATOM     34  C   UNL     1       4.788   6.174  16.658  0.00  0.00    +0.000 A 
ENDBRANCH  26  29
ENDBRANCH   4  23
TORSDOF 4
ENDMDL
MODEL 5
REMARK VINA RESULT:      -7.7      2.412      3.273
REMARK  Name = 
REMARK  5 active torsions:
REMARK  status: ('A' for Active; 'I' for Inactive)
REMARK    1  A    between atoms: C_1  and  C_2
REMARK    2  A    between atoms: C_4  and  C_5
REMARK    3  A    between atoms: C_8  and  C_9
REMARK    4  A    between atoms: C_18  and  C_19
REMARK    5  A    between atoms: C_24  and  C_26
REMARK                            x       y       z     vdW  Elec       q    Type
REMARK                         _______ _______ _______ _____ _____    ______ ____
ROOT
ATOM      1  C   UNL     1      -0.028  13.180  18.748  0.00  0.00    +0.000 C 
ATOM      2  C   UNL     1       0.232  12.051  19.681  0.00  0.00    +0.000 A 
ATOM      3  N   UNL     1       0.785  10.895  19.153  0.00  0.00    +0.000 NA
ATOM      4  C   UNL     1       0.904   9.966  20.080  0.00  0.00    +0.000 A 
ATOM      5  S   UNL     1       0.435  10.467  21.655  0.00  0.00    +0.000 S 
ATOM      6  C   UNL     1      -0.025  12.003  21.041  0.00  0.00    +0.000 A 
ENDROOT
BRANCH   6   7
ATOM      7  C   UNL     1      -0.588  13.015  21.884  0.00  0.00    +0.000 A 
ATOM      8  N   UNL     1       0.059  13.609  22.872  0.00  0.00    +0.000 NA
ATOM      9  N   UNL     1      -0.813  14.519  23.437  0.00  0.00    +0.000 NA
ATOM     10  C   UNL     1      -1.936  14.431  22.761  0.00  0.00    +0.000 A 
ATOM     11  N   UNL     1      -3.084  15.108  22.921  0.00  0.00    +0.000 N 
ATOM     12  C   UNL     1      -4.264  15.033  22.213  0.00  0.00    +0.000 C 
ATOM     13  N   UNL     1      -4.480  14.237  21.212  0.00  0.00    +0.000 NA
ATOM     14  O   UNL     1      -1.869  13.496  21.764  0.00  0.00    +0.000 OA
ATOM     15  H   UNL     1      -3.105  15.792  23.676  0.00  0.00    +0.000 HD
ATOM     16  H   UNL     1      -3.637  13.677  21.040  0.00  0.00    +0.000 HD
BRANCH  12  17
ATOM     17  C   UNL     1      -5.371  15.959  22.649  0.00  0.00    +0.000 A 
ATOM     18  C   UNL     1      -5.132  16.937  23.605  0.00  0.00    +0.000 A 
ATOM     19  C   UNL     1      -6.187  17.766  23.974  0.00  0.00    +0.000 A 
ATOM     20  C   UNL     1      -7.433  17.585  23.382  0.00  0.00    +0.000 A 
ATOM     21  C   UNL     1      -7.576  16.578  22.437  0.00  0.00    +0.000 A 
ATOM     22  N   UNL     1      -6.575  15.754  22.045  0.00  0.00    +0.000 NA
ENDBRANCH  12  17
ENDBRANCH   6   7
BRANCH   4  23
ATOM     23  C   UNL     1       1.421   8.615  19.813  0.00  0.00    +0.000 A 
ATOM     24  C   UNL     1       1.926   8.325  18.540  0.00  0.00    +0.000 A 
ATOM     25  C   UNL     1       2.374   7.040  18.217  0.00  0.00    +0.000 A 
ATOM     26  C   UNL     1       2.344   5.990  19.152  0.00  0.00    +0.000 A 
ATOM     27  C   UNL     1       1.838   6.292  20.428  0.00  0.00    +0.000 A 
ATOM     28  C   UNL     1       1.380   7.580  20.754  0.00  0.00    +0.000 A 
BRANCH  26  29
ATOM     29  C   UNL     1       2.816   4.632  18.792  0.00  0.00    +0.000 A 
ATOM     30  C   UNL     1       2.137   3.857  17.832  0.00  0.00    +0.000 A 
ATOM     31  C   UNL     1       2.545   2.559  17.513  0.00  0.00    +0.000 A 
ATOM     32  C   UNL     1       3.659   2.008  18.135  0.00  0.00    +0.000 A 
ATOM     33  C   UNL     1       4.363   2.755  19.074  0.00  0.00    +0.000 A 
ATOM     34  C   UNL     1       3.942   4.050  19.402  0.00  0.00    +0.000 A 
ENDBRANCH  26  29
ENDBRANCH   4  23
TORSDOF 4
ENDMDL
MODEL 6
REMARK VINA RESULT:      -7.7      2.371     12.475
REMARK  Name = 
REMARK  5 active torsions:
REMARK  status: ('A' for Active; 'I' for Inactive)
REMARK    1  A    between atoms: C_1  and  C_2
REMARK    2  A    between atoms: C_4  and  C_5
REMARK    3  A    between atoms: C_8  and  C_9
REMARK    4  A    between atoms: C_18  and  C_19
REMARK    5  A    between atoms: C_24  and  C_26
REMARK                            x       y       z     vdW  Elec       q    Type
REMARK                         _______ _______ _______ _____ _____    ______ ____
ROOT
ATOM      1  C   UNL     1       0.785   9.204  22.637  0.00  0.00    +0.000 C 
ATOM      2  C   UNL     1       0.207  10.421  22.005  0.00  0.00    +0.000 A 
ATOM      3  N   UNL     1      -0.514  11.285  22.815  0.00  0.00    +0.000 NA
ATOM      4  C   UNL     1      -1.011  12.282  22.111  0.00  0.00    +0.000 A 
ATOM      5  S   UNL     1      -0.562  12.277  20.453  0.00  0.00    +0.000 S 
ATOM      6  C   UNL     1       0.291  10.805  20.677  0.00  0.00    +0.000 A 
ENDROOT
BRANCH   6   7
ATOM      7  C   UNL     1       0.955  10.144  19.593  0.00  0.00    +0.000 A 
ATOM      8  N   UNL     1       1.207  10.699  18.421  0.00  0.00    +0.000 NA
ATOM      9  N   UNL     1       1.857   9.752  17.655  0.00  0.00    +0.000 NA
ATOM     10  C   UNL     1       1.967   8.677  18.403  0.00  0.00    +0.000 A 
ATOM     11  N   UNL     1       2.522   7.490  18.115  0.00  0.00    +0.000 N 
ATOM     12  C   UNL     1       2.653   6.360  18.892  0.00  0.00    +0.000 C 
ATOM     13  N   UNL     1       2.226   6.244  20.112  0.00  0.00    +0.000 NA
ATOM     14  O   UNL     1       1.415   8.850  19.643  0.00  0.00    +0.000 OA
ATOM     15  H   UNL     1       2.919   7.390  17.181  0.00  0.00    +0.000 HD
ATOM     16  H   UNL     1       1.776   7.122  20.395  0.00  0.00    +0.000 HD
BRANCH  12  17
ATOM     17  C   UNL     1       3.354   5.185  18.260  0.00  0.00    +0.000 A 
ATOM     18  C   UNL     1       4.278   5.383  17.242  0.00  0.00    +0.000 A 
ATOM     19  C   UNL     1       4.897   4.265  16.690  0.00  0.00    +0.000 A 
ATOM     20  C   UNL     1       4.570   3.001  17.170  0.00  0.00    +0.000 A 
ATOM     21  C   UNL     1       3.632   2.902  18.190  0.00  0.00    +0.000 A 
ATOM     22  N   UNL     1       3.012   3.963  18.757  0.00  0.00    +0.000 NA
ENDBRANCH  12  17
ENDBRANCH   6   7
BRANCH   4  23
ATOM     23  C   UNL     1      -1.858  13.338  22.687  0.00  0.00    +0.000 A 
ATOM     24  C   UNL     1      -3.166  13.488  22.213  0.00  0.00    +0.000 A 
ATOM     25  C   UNL     1      -3.991  14.514  22.684  0.00  0.00    +0.000 A 
ATOM     26  C   UNL     1      -3.550  15.431  23.654  0.00  0.00    +0.000 A 
ATOM     27  C   UNL     1      -2.235  15.271  24.126  0.00  0.00    +0.000 A 
ATOM     28  C   UNL     1      -1.401  14.246  23.649  0.00  0.00    +0.000 A 
BRANCH  26  29
ATOM     29  C   UNL     1      -4.434  16.517  24.139  0.00  0.00    +0.000 A 
ATOM     30  C   UNL     1      -5.647  16.813  23.486  0.00  0.00    +0.000 A 
ATOM     31  C   UNL     1      -6.470  17.862  23.906  0.00  0.00    +0.000 A 
ATOM     32  C   UNL     1      -6.110  18.631  25.005  0.00  0.00    +0.000 A 
ATOM     33  C   UNL     1      -4.927  18.352  25.684  0.00  0.00    +0.000 A 
ATOM     34  C   UNL     1      -4.098  17.310  25.251  0.00  0.00    +0.000 A 
ENDBRANCH  26  29
ENDBRANCH   4  23
TORSDOF 4
ENDMDL
MODEL 7
REMARK VINA RESULT:      -7.7      1.921      2.444
REMARK  Name = 
REMARK  5 active torsions:
REMARK  status: ('A' for Active; 'I' for Inactive)
REMARK    1  A    between atoms: C_1  and  C_2
REMARK    2  A    between atoms: C_4  and  C_5
REMARK    3  A    between atoms: C_8  and  C_9
REMARK    4  A    between atoms: C_18  and  C_19
REMARK    5  A    between atoms: C_24  and  C_26
REMARK                            x       y       z     vdW  Elec       q    Type
REMARK                         _______ _______ _______ _____ _____    ______ ____
ROOT
ATOM      1  C   UNL     1      -0.528  10.027  22.642  0.00  0.00    +0.000 C 
ATOM      2  C   UNL     1       0.009  10.033  21.255  0.00  0.00    +0.000 A 
ATOM      3  N   UNL     1       0.791   8.958  20.863  0.00  0.00    +0.000 NA
ATOM      4  C   UNL     1       1.241   9.127  19.636  0.00  0.00    +0.000 A 
ATOM      5  S   UNL     1       0.674  10.551  18.859  0.00  0.00    +0.000 S 
ATOM      6  C   UNL     1      -0.169  11.005  20.284  0.00  0.00    +0.000 A 
ENDROOT
BRANCH   6   7
ATOM      7  C   UNL     1      -0.912  12.227  20.364  0.00  0.00    +0.000 A 
ATOM      8  N   UNL     1      -0.544  13.364  19.799  0.00  0.00    +0.000 NA
ATOM      9  N   UNL     1      -1.517  14.298  20.098  0.00  0.00    +0.000 NA
ATOM     10  C   UNL     1      -2.420  13.678  20.824  0.00  0.00    +0.000 A 
ATOM     11  N   UNL     1      -3.557  14.151  21.358  0.00  0.00    +0.000 N 
ATOM     12  C   UNL     1      -4.518  13.510  22.110  0.00  0.00    +0.000 C 
ATOM     13  N   UNL     1      -4.477  12.261  22.458  0.00  0.00    +0.000 NA
ATOM     14  O   UNL     1      -2.103  12.364  21.035  0.00  0.00    +0.000 OA
ATOM     15  H   UNL     1      -3.762  15.135  21.187  0.00  0.00    +0.000 HD
ATOM     16  H   UNL     1      -3.619  11.837  22.087  0.00  0.00    +0.000 HD
BRANCH  12  17
ATOM     17  C   UNL     1      -5.698  14.341  22.545  0.00  0.00    +0.000 A 
ATOM     18  C   UNL     1      -5.571  15.249  23.588  0.00  0.00    +0.000 A 
ATOM     19  C   UNL     1      -6.689  15.992  23.953  0.00  0.00    +0.000 A 
ATOM     20  C   UNL     1      -7.885  15.798  23.269  0.00  0.00    +0.000 A 
ATOM     21  C   UNL     1      -7.917  14.866  22.240  0.00  0.00    +0.000 A 
ATOM     22  N   UNL     1      -6.851  14.128  21.850  0.00  0.00    +0.000 NA
ENDBRANCH  12  17
ENDBRANCH   6   7
BRANCH   4  23
ATOM     23  C   UNL     1       2.132   8.172  18.960  0.00  0.00    +0.000 A 
ATOM     24  C   UNL     1       2.817   8.584  17.811  0.00  0.00    +0.000 A 
ATOM     25  C   UNL     1       3.629   7.696  17.098  0.00  0.00    +0.000 A 
ATOM     26  C   UNL     1       3.800   6.361  17.504  0.00  0.00    +0.000 A 
ATOM     27  C   UNL     1       3.109   5.957  18.660  0.00  0.00    +0.000 A 
ATOM     28  C   UNL     1       2.287   6.844  19.374  0.00  0.00    +0.000 A 
BRANCH  26  29
ATOM     29  C   UNL     1       4.659   5.431  16.733  0.00  0.00    +0.000 A 
ATOM     30  C   UNL     1       5.685   5.912  15.898  0.00  0.00    +0.000 A 
ATOM     31  C   UNL     1       6.475   5.050  15.132  0.00  0.00    +0.000 A 
ATOM     32  C   UNL     1       6.270   3.677  15.199  0.00  0.00    +0.000 A 
ATOM     33  C   UNL     1       5.276   3.168  16.030  0.00  0.00    +0.000 A 
ATOM     34  C   UNL     1       4.478   4.037  16.783  0.00  0.00    +0.000 A 
ENDBRANCH  26  29
ENDBRANCH   4  23
TORSDOF 4
ENDMDL
MODEL 8
REMARK VINA RESULT:      -7.7      2.473      3.040
REMARK  Name = 
REMARK  5 active torsions:
REMARK  status: ('A' for Active; 'I' for Inactive)
REMARK    1  A    between atoms: C_1  and  C_2
REMARK    2  A    between atoms: C_4  and  C_5
REMARK    3  A    between atoms: C_8  and  C_9
REMARK    4  A    between atoms: C_18  and  C_19
REMARK    5  A    between atoms: C_24  and  C_26
REMARK                            x       y       z     vdW  Elec       q    Type
REMARK                         _______ _______ _______ _____ _____    ______ ____
ROOT
ATOM      1  C   UNL     1      -0.124  12.799  18.375  0.00  0.00    +0.000 C 
ATOM      2  C   UNL     1       0.284  11.785  19.384  0.00  0.00    +0.000 A 
ATOM      3  N   UNL     1       0.747  10.564  18.918  0.00  0.00    +0.000 NA
ATOM      4  C   UNL     1       1.015   9.751  19.920  0.00  0.00    +0.000 A 
ATOM      5  S   UNL     1       0.804  10.445  21.477  0.00  0.00    +0.000 S 
ATOM      6  C   UNL     1       0.249  11.903  20.763  0.00  0.00    +0.000 A 
ENDROOT
BRANCH   6   7
ATOM      7  C   UNL     1      -0.172  13.020  21.557  0.00  0.00    +0.000 A 
ATOM      8  N   UNL     1       0.628  13.731  22.330  0.00  0.00    +0.000 NA
ATOM      9  N   UNL     1      -0.145  14.712  22.920  0.00  0.00    +0.000 NA
ATOM     10  C   UNL     1      -1.368  14.545  22.471  0.00  0.00    +0.000 A 
ATOM     11  N   UNL     1      -2.481  15.243  22.745  0.00  0.00    +0.000 N 
ATOM     12  C   UNL     1      -3.766  15.085  22.273  0.00  0.00    +0.000 C 
ATOM     13  N   UNL     1      -4.142  14.168  21.436  0.00  0.00    +0.000 NA
ATOM     14  O   UNL     1      -1.462  13.489  21.605  0.00  0.00    +0.000 OA
ATOM     15  H   UNL     1      -2.379  16.019  23.398  0.00  0.00    +0.000 HD
ATOM     16  H   UNL     1      -3.333  13.586  21.190  0.00  0.00    +0.000 HD
BRANCH  12  17
ATOM     17  C   UNL     1      -4.793  16.066  22.777  0.00  0.00    +0.000 A 
ATOM     18  C   UNL     1      -6.130  15.924  22.429  0.00  0.00    +0.000 A 
ATOM     19  C   UNL     1      -7.040  16.856  22.919  0.00  0.00    +0.000 A 
ATOM     20  C   UNL     1      -6.582  17.890  23.730  0.00  0.00    +0.000 A 
ATOM     21  C   UNL     1      -5.227  17.951  24.023  0.00  0.00    +0.000 A 
ATOM     22  N   UNL     1      -4.310  17.063  23.572  0.00  0.00    +0.000 NA
ENDBRANCH  12  17
ENDBRANCH   6   7
BRANCH   4  23
ATOM     23  C   UNL     1       1.485   8.368  19.738  0.00  0.00    +0.000 A 
ATOM     24  C   UNL     1       2.000   7.988  18.494  0.00  0.00    +0.000 A 
ATOM     25  C   UNL     1       2.404   6.671  18.252  0.00  0.00    +0.000 A 
ATOM     26  C   UNL     1       2.318   5.678  19.243  0.00  0.00    +0.000 A 
ATOM     27  C   UNL     1       1.801   6.070  20.490  0.00  0.00    +0.000 A 
ATOM     28  C   UNL     1       1.387   7.390  20.734  0.00  0.00    +0.000 A 
BRANCH  26  29
ATOM     29  C   UNL     1       2.743   4.285  18.968  0.00  0.00    +0.000 A 
ATOM     30  C   UNL     1       3.804   3.695  19.682  0.00  0.00    +0.000 A 
ATOM     31  C   UNL     1       4.245   2.397  19.405  0.00  0.00    +0.000 A 
ATOM     32  C   UNL     1       3.618   1.647  18.417  0.00  0.00    +0.000 A 
ATOM     33  C   UNL     1       2.554   2.195  17.707  0.00  0.00    +0.000 A 
ATOM     34  C   UNL     1       2.126   3.500  17.978  0.00  0.00    +0.000 A 
ENDBRANCH  26  29
ENDBRANCH   4  23
TORSDOF 4
ENDMDL
MODEL 9
REMARK VINA RESULT:      -7.6      1.921      2.649
REMARK  Name = 
REMARK  5 active torsions:
REMARK  status: ('A' for Active; 'I' for Inactive)
REMARK    1  A    between atoms: C_1  and  C_2
REMARK    2  A    between atoms: C_4  and  C_5
REMARK    3  A    between atoms: C_8  and  C_9
REMARK    4  A    between atoms: C_18  and  C_19
REMARK    5  A    between atoms: C_24  and  C_26
REMARK                            x       y       z     vdW  Elec       q    Type
REMARK                         _______ _______ _______ _____ _____    ______ ____
ROOT
ATOM      1  C   UNL     1      -0.719   9.933  23.305  0.00  0.00    +0.000 C 
ATOM      2  C   UNL     1      -0.132  10.154  21.956  0.00  0.00    +0.000 A 
ATOM      3  N   UNL     1       0.535   9.094  21.364  0.00  0.00    +0.000 NA
ATOM      4  C   UNL     1       1.048   9.452  20.204  0.00  0.00    +0.000 A 
ATOM      5  S   UNL     1       0.679  11.061  19.728  0.00  0.00    +0.000 S 
ATOM      6  C   UNL     1      -0.160  11.316  21.203  0.00  0.00    +0.000 A 
ENDROOT
BRANCH   6   7
ATOM      7  C   UNL     1      -0.760  12.578  21.522  0.00  0.00    +0.000 A 
ATOM      8  N   UNL     1      -0.092  13.709  21.666  0.00  0.00    +0.000 NA
ATOM      9  N   UNL     1      -1.017  14.690  21.962  0.00  0.00    +0.000 NA
ATOM     10  C   UNL     1      -2.193  14.105  21.978  0.00  0.00    +0.000 A 
ATOM     11  N   UNL     1      -3.405  14.630  22.215  0.00  0.00    +0.000 N 
ATOM     12  C   UNL     1      -4.645  14.030  22.224  0.00  0.00    +0.000 C 
ATOM     13  N   UNL     1      -4.863  12.771  21.998  0.00  0.00    +0.000 NA
ATOM     14  O   UNL     1      -2.108  12.765  21.711  0.00  0.00    +0.000 OA
ATOM     15  H   UNL     1      -3.434  15.628  22.417  0.00  0.00    +0.000 HD
ATOM     16  H   UNL     1      -3.967  12.303  21.818  0.00  0.00    +0.000 HD
BRANCH  12  17
ATOM     17  C   UNL     1      -5.824  14.923  22.515  0.00  0.00    +0.000 A 
ATOM     18  C   UNL     1      -6.810  15.120  21.556  0.00  0.00    +0.000 A 
ATOM     19  C   UNL     1      -7.877  15.955  21.873  0.00  0.00    +0.000 A 
ATOM     20  C   UNL     1      -7.917  16.561  23.124  0.00  0.00    +0.000 A 
ATOM     21  C   UNL     1      -6.884  16.306  24.017  0.00  0.00    +0.000 A 
ATOM     22  N   UNL     1      -5.832  15.496  23.751  0.00  0.00    +0.000 NA
ENDBRANCH  12  17
ENDBRANCH   6   7
BRANCH   4  23
ATOM     23  C   UNL     1       1.850   8.553  19.359  0.00  0.00    +0.000 A 
ATOM     24  C   UNL     1       2.128   7.262  19.823  0.00  0.00    +0.000 A 
ATOM     25  C   UNL     1       2.936   6.390  19.085  0.00  0.00    +0.000 A 
ATOM     26  C   UNL     1       3.494   6.765  17.851  0.00  0.00    +0.000 A 
ATOM     27  C   UNL     1       3.207   8.063  17.393  0.00  0.00    +0.000 A 
ATOM     28  C   UNL     1       2.403   8.944  18.135  0.00  0.00    +0.000 A 
BRANCH  26  29
ATOM     29  C   UNL     1       4.353   5.831  17.085  0.00  0.00    +0.000 A 
ATOM     30  C   UNL     1       4.605   4.526  17.551  0.00  0.00    +0.000 A 
ATOM     31  C   UNL     1       5.448   3.649  16.862  0.00  0.00    +0.000 A 
ATOM     32  C   UNL     1       6.045   4.050  15.673  0.00  0.00    +0.000 A 
ATOM     33  C   UNL     1       5.801   5.326  15.175  0.00  0.00    +0.000 A 
ATOM     34  C   UNL     1       4.968   6.207  15.877  0.00  0.00    +0.000 A 
ENDBRANCH  26  29
ENDBRANCH   4  23
TORSDOF 4
ENDMDL
