MODEL 1
REMARK VINA RESULT:      -7.7      0.000      0.000
REMARK  Name = 
REMARK  0 active torsions:
REMARK  status: ('A' for Active; 'I' for Inactive)
REMARK                            x       y       z     vdW  Elec       q    Type
REMARK                         _______ _______ _______ _____ _____    ______ ____
ROOT
ATOM      1  C   UNL     1       2.538   2.515  21.574  0.00  0.00    +0.000 A 
ATOM      2  C   UNL     1       3.407   2.154  20.557  0.00  0.00    +0.000 A 
ATOM      3  N   UNL     1       3.769   2.970  19.546  0.00  0.00    +0.000 NA
ATOM      4  C   UNL     1       3.262   4.230  19.565  0.00  0.00    +0.000 A 
ATOM      5  C   UNL     1       2.387   4.705  20.565  0.00  0.00    +0.000 A 
ATOM      6  C   UNL     1       2.015   3.806  21.571  0.00  0.00    +0.000 A 
ATOM      7  C   UNL     1       1.930   6.031  20.534  0.00  0.00    +0.000 A 
ATOM      8  C   UNL     1       2.361   6.921  19.546  0.00  0.00    +0.000 A 
ATOM      9  C   UNL     1       3.230   6.433  18.564  0.00  0.00    +0.000 A 
ATOM     10  N   UNL     1       3.817   7.089  17.507  0.00  0.00    +0.000 N 
ATOM     11  C   UNL     1       4.550   6.223  16.732  0.00  0.00    +0.000 A 
ATOM     12  C   UNL     1       5.274   6.457  15.558  0.00  0.00    +0.000 A 
ATOM     13  C   UNL     1       5.889   5.361  14.946  0.00  0.00    +0.000 A 
ATOM     14  C   UNL     1       5.792   4.086  15.498  0.00  0.00    +0.000 A 
ATOM     15  C   UNL     1       5.092   3.879  16.691  0.00  0.00    +0.000 A 
ATOM     16  C   UNL     1       4.457   4.966  17.329  0.00  0.00    +0.000 A 
ATOM     17  C   UNL     1       3.666   5.105  18.523  0.00  0.00    +0.000 A 
ATOM     18  H   UNL     1       3.704   8.072  17.309  0.00  0.00    +0.000 HD
ENDROOT
TORSDOF 0
ENDMDL
MODEL 2
REMARK VINA RESULT:      -7.7      1.978      5.250
REMARK  Name = 
REMARK  0 active torsions:
REMARK  status: ('A' for Active; 'I' for Inactive)
REMARK                            x       y       z     vdW  Elec       q    Type
REMARK                         _______ _______ _______ _____ _____    ______ ____
ROOT
ATOM      1  C   UNL     1       6.804   4.523  14.345  0.00  0.00    +0.000 A 
ATOM      2  C   UNL     1       5.489   4.100  14.451  0.00  0.00    +0.000 A 
ATOM      3  N   UNL     1       4.781   4.108  15.598  0.00  0.00    +0.000 NA
ATOM      4  C   UNL     1       5.407   4.597  16.700  0.00  0.00    +0.000 A 
ATOM      5  C   UNL     1       6.736   5.073  16.698  0.00  0.00    +0.000 A 
ATOM      6  C   UNL     1       7.437   5.008  15.488  0.00  0.00    +0.000 A 
ATOM      7  C   UNL     1       7.303   5.594  17.869  0.00  0.00    +0.000 A 
ATOM      8  C   UNL     1       6.561   5.695  19.049  0.00  0.00    +0.000 A 
ATOM      9  C   UNL     1       5.245   5.220  19.033  0.00  0.00    +0.000 A 
ATOM     10  N   UNL     1       4.300   5.219  20.032  0.00  0.00    +0.000 N 
ATOM     11  C   UNL     1       3.149   4.588  19.625  0.00  0.00    +0.000 A 
ATOM     12  C   UNL     1       1.964   4.336  20.325  0.00  0.00    +0.000 A 
ATOM     13  C   UNL     1       0.962   3.617  19.666  0.00  0.00    +0.000 A 
ATOM     14  C   UNL     1       1.139   3.181  18.355  0.00  0.00    +0.000 A 
ATOM     15  C   UNL     1       2.319   3.473  17.661  0.00  0.00    +0.000 A 
ATOM     16  C   UNL     1       3.349   4.194  18.302  0.00  0.00    +0.000 A 
ATOM     17  C   UNL     1       4.657   4.641  17.903  0.00  0.00    +0.000 A 
ATOM     18  H   UNL     1       4.440   5.606  20.953  0.00  0.00    +0.000 HD
ENDROOT
TORSDOF 0
ENDMDL
MODEL 3
REMARK VINA RESULT:      -7.6      2.160      5.210
REMARK  Name = 
REMARK  0 active torsions:
REMARK  status: ('A' for Active; 'I' for Inactive)
REMARK                            x       y       z     vdW  Elec       q    Type
REMARK                         _______ _______ _______ _____ _____    ______ ____
ROOT
ATOM      1  C   UNL     1       7.995   5.949  18.641  0.00  0.00    +0.000 A 
ATOM      2  C   UNL     1       7.174   5.666  19.721  0.00  0.00    +0.000 A 
ATOM      3  N   UNL     1       5.946   5.122  19.617  0.00  0.00    +0.000 NA
ATOM      4  C   UNL     1       5.520   4.809  18.365  0.00  0.00    +0.000 A 
ATOM      5  C   UNL     1       6.284   5.035  17.200  0.00  0.00    +0.000 A 
ATOM      6  C   UNL     1       7.537   5.636  17.363  0.00  0.00    +0.000 A 
ATOM      7  C   UNL     1       5.789   4.655  15.944  0.00  0.00    +0.000 A 
ATOM      8  C   UNL     1       4.556   4.008  15.818  0.00  0.00    +0.000 A 
ATOM      9  C   UNL     1       3.813   3.790  16.984  0.00  0.00    +0.000 A 
ATOM     10  N   UNL     1       2.599   3.165  17.147  0.00  0.00    +0.000 N 
ATOM     11  C   UNL     1       2.181   3.228  18.454  0.00  0.00    +0.000 A 
ATOM     12  C   UNL     1       1.005   2.756  19.047  0.00  0.00    +0.000 A 
ATOM     13  C   UNL     1       0.819   3.011  20.410  0.00  0.00    +0.000 A 
ATOM     14  C   UNL     1       1.779   3.698  21.147  0.00  0.00    +0.000 A 
ATOM     15  C   UNL     1       2.964   4.131  20.542  0.00  0.00    +0.000 A 
ATOM     16  C   UNL     1       3.178   3.893  19.168  0.00  0.00    +0.000 A 
ATOM     17  C   UNL     1       4.242   4.203  18.250  0.00  0.00    +0.000 A 
ATOM     18  H   UNL     1       2.070   2.740  16.401  0.00  0.00    +0.000 HD
ENDROOT
TORSDOF 0
ENDMDL
MODEL 4
REMARK VINA RESULT:      -7.4      2.307      3.670
REMARK  Name = 
REMARK  0 active torsions:
REMARK  status: ('A' for Active; 'I' for Inactive)
REMARK                            x       y       z     vdW  Elec       q    Type
REMARK                         _______ _______ _______ _____ _____    ______ ____
ROOT
ATOM      1  C   UNL     1       3.153   3.615  18.976  0.00  0.00    +0.000 A 
ATOM      2  C   UNL     1       3.141   3.064  17.704  0.00  0.00    +0.000 A 
ATOM      3  N   UNL     1       3.994   3.414  16.721  0.00  0.00    +0.000 NA
ATOM      4  C   UNL     1       4.937   4.342  17.029  0.00  0.00    +0.000 A 
ATOM      5  C   UNL     1       5.050   4.949  18.298  0.00  0.00    +0.000 A 
ATOM      6  C   UNL     1       4.116   4.577  19.272  0.00  0.00    +0.000 A 
ATOM      7  C   UNL     1       6.071   5.877  18.550  0.00  0.00    +0.000 A 
ATOM      8  C   UNL     1       7.021   6.189  17.575  0.00  0.00    +0.000 A 
ATOM      9  C   UNL     1       6.895   5.576  16.322  0.00  0.00    +0.000 A 
ATOM     10  N   UNL     1       7.693   5.685  15.208  0.00  0.00    +0.000 N 
ATOM     11  C   UNL     1       7.173   4.969  14.156  0.00  0.00    +0.000 A 
ATOM     12  C   UNL     1       7.639   4.832  12.844  0.00  0.00    +0.000 A 
ATOM     13  C   UNL     1       6.867   4.072  11.958  0.00  0.00    +0.000 A 
ATOM     14  C   UNL     1       5.686   3.466  12.378  0.00  0.00    +0.000 A 
ATOM     15  C   UNL     1       5.256   3.588  13.704  0.00  0.00    +0.000 A 
ATOM     16  C   UNL     1       6.012   4.352  14.619  0.00  0.00    +0.000 A 
ATOM     17  C   UNL     1       5.860   4.689  16.009  0.00  0.00    +0.000 A 
ATOM     18  H   UNL     1       8.535   6.238  15.158  0.00  0.00    +0.000 HD
ENDROOT
TORSDOF 0
ENDMDL
MODEL 5
REMARK VINA RESULT:      -7.4      1.762      5.133
REMARK  Name = 
REMARK  0 active torsions:
REMARK  status: ('A' for Active; 'I' for Inactive)
REMARK                            x       y       z     vdW  Elec       q    Type
REMARK                         _______ _______ _______ _____ _____    ______ ____
ROOT
ATOM      1  C   UNL     1       5.832   4.868  15.540  0.00  0.00    +0.000 A 
ATOM      2  C   UNL     1       5.304   6.149  15.504  0.00  0.00    +0.000 A 
ATOM      3  N   UNL     1       4.466   6.649  16.435  0.00  0.00    +0.000 NA
ATOM      4  C   UNL     1       4.161   5.839  17.482  0.00  0.00    +0.000 A 
ATOM      5  C   UNL     1       4.660   4.527  17.626  0.00  0.00    +0.000 A 
ATOM      6  C   UNL     1       5.497   4.045  16.613  0.00  0.00    +0.000 A 
ATOM      7  C   UNL     1       4.326   3.763  18.753  0.00  0.00    +0.000 A 
ATOM      8  C   UNL     1       3.532   4.290  19.775  0.00  0.00    +0.000 A 
ATOM      9  C   UNL     1       3.046   5.593  19.616  0.00  0.00    +0.000 A 
ATOM     10  N   UNL     1       2.275   6.353  20.465  0.00  0.00    +0.000 N 
ATOM     11  C   UNL     1       1.955   7.561  19.894  0.00  0.00    +0.000 A 
ATOM     12  C   UNL     1       1.172   8.610  20.388  0.00  0.00    +0.000 A 
ATOM     13  C   UNL     1       0.970   9.716  19.556  0.00  0.00    +0.000 A 
ATOM     14  C   UNL     1       1.542   9.770  18.288  0.00  0.00    +0.000 A 
ATOM     15  C   UNL     1       2.351   8.725  17.827  0.00  0.00    +0.000 A 
ATOM     16  C   UNL     1       2.568   7.595  18.643  0.00  0.00    +0.000 A 
ATOM     17  C   UNL     1       3.308   6.371  18.483  0.00  0.00    +0.000 A 
ATOM     18  H   UNL     1       1.962   6.053  21.375  0.00  0.00    +0.000 HD
ENDROOT
TORSDOF 0
ENDMDL
MODEL 6
REMARK VINA RESULT:      -7.3      1.426      4.953
REMARK  Name = 
REMARK  0 active torsions:
REMARK  status: ('A' for Active; 'I' for Inactive)
REMARK                            x       y       z     vdW  Elec       q    Type
REMARK                         _______ _______ _______ _____ _____    ______ ____
ROOT
ATOM      1  C   UNL     1       6.369   4.592  14.932  0.00  0.00    +0.000 A 
ATOM      2  C   UNL     1       5.784   3.514  15.578  0.00  0.00    +0.000 A 
ATOM      3  N   UNL     1       4.885   3.628  16.575  0.00  0.00    +0.000 NA
ATOM      4  C   UNL     1       4.520   4.887  16.930  0.00  0.00    +0.000 A 
ATOM      5  C   UNL     1       5.039   6.051  16.323  0.00  0.00    +0.000 A 
ATOM      6  C   UNL     1       5.996   5.877  15.318  0.00  0.00    +0.000 A 
ATOM      7  C   UNL     1       4.588   7.318  16.723  0.00  0.00    +0.000 A 
ATOM      8  C   UNL     1       3.592   7.459  17.692  0.00  0.00    +0.000 A 
ATOM      9  C   UNL     1       3.088   6.294  18.282  0.00  0.00    +0.000 A 
ATOM     10  N   UNL     1       2.103   6.146  19.231  0.00  0.00    +0.000 N 
ATOM     11  C   UNL     1       1.961   4.828  19.595  0.00  0.00    +0.000 A 
ATOM     12  C   UNL     1       1.110   4.242  20.538  0.00  0.00    +0.000 A 
ATOM     13  C   UNL     1       1.219   2.863  20.741  0.00  0.00    +0.000 A 
ATOM     14  C   UNL     1       2.135   2.104  20.017  0.00  0.00    +0.000 A 
ATOM     15  C   UNL     1       2.953   2.705  19.054  0.00  0.00    +0.000 A 
ATOM     16  C   UNL     1       2.868   4.096  18.830  0.00  0.00    +0.000 A 
ATOM     17  C   UNL     1       3.548   5.014  17.956  0.00  0.00    +0.000 A 
ATOM     18  H   UNL     1       1.572   6.906  19.628  0.00  0.00    +0.000 HD
ENDROOT
TORSDOF 0
ENDMDL
MODEL 7
REMARK VINA RESULT:      -7.3      1.047      3.081
REMARK  Name = 
REMARK  0 active torsions:
REMARK  status: ('A' for Active; 'I' for Inactive)
REMARK                            x       y       z     vdW  Elec       q    Type
REMARK                         _______ _______ _______ _____ _____    ______ ____
ROOT
ATOM      1  C   UNL     1       1.433   7.458  20.596  0.00  0.00    +0.000 A 
ATOM      2  C   UNL     1       2.071   7.873  19.438  0.00  0.00    +0.000 A 
ATOM      3  N   UNL     1       2.827   7.070  18.662  0.00  0.00    +0.000 NA
ATOM      4  C   UNL     1       2.927   5.769  19.042  0.00  0.00    +0.000 A 
ATOM      5  C   UNL     1       2.301   5.240  20.190  0.00  0.00    +0.000 A 
ATOM      6  C   UNL     1       1.558   6.125  20.980  0.00  0.00    +0.000 A 
ATOM      7  C   UNL     1       2.425   3.878  20.499  0.00  0.00    +0.000 A 
ATOM      8  C   UNL     1       3.129   3.008  19.663  0.00  0.00    +0.000 A 
ATOM      9  C   UNL     1       3.742   3.549  18.528  0.00  0.00    +0.000 A 
ATOM     10  N   UNL     1       4.466   2.925  17.539  0.00  0.00    +0.000 N 
ATOM     11  C   UNL     1       4.959   3.836  16.636  0.00  0.00    +0.000 A 
ATOM     12  C   UNL     1       5.764   3.641  15.508  0.00  0.00    +0.000 A 
ATOM     13  C   UNL     1       6.164   4.774  14.793  0.00  0.00    +0.000 A 
ATOM     14  C   UNL     1       5.761   6.047  15.187  0.00  0.00    +0.000 A 
ATOM     15  C   UNL     1       4.927   6.218  16.298  0.00  0.00    +0.000 A 
ATOM     16  C   UNL     1       4.512   5.093  17.042  0.00  0.00    +0.000 A 
ATOM     17  C   UNL     1       3.693   4.911  18.211  0.00  0.00    +0.000 A 
ATOM     18  H   UNL     1       4.636   1.932  17.494  0.00  0.00    +0.000 HD
ENDROOT
TORSDOF 0
ENDMDL
MODEL 8
REMARK VINA RESULT:      -7.1      1.689      4.076
REMARK  Name = 
REMARK  0 active torsions:
REMARK  status: ('A' for Active; 'I' for Inactive)
REMARK                            x       y       z     vdW  Elec       q    Type
REMARK                         _______ _______ _______ _____ _____    ______ ____
ROOT
ATOM      1  C   UNL     1       2.923   2.595  21.243  0.00  0.00    +0.000 A 
ATOM      2  C   UNL     1       2.136   3.679  21.597  0.00  0.00    +0.000 A 
ATOM      3  N   UNL     1       2.112   4.849  20.927  0.00  0.00    +0.000 NA
ATOM      4  C   UNL     1       2.894   4.935  19.819  0.00  0.00    +0.000 A 
ATOM      5  C   UNL     1       3.718   3.884  19.360  0.00  0.00    +0.000 A 
ATOM      6  C   UNL     1       3.731   2.705  20.114  0.00  0.00    +0.000 A 
ATOM      7  C   UNL     1       4.473   4.038  18.188  0.00  0.00    +0.000 A 
ATOM      8  C   UNL     1       4.398   5.207  17.428  0.00  0.00    +0.000 A 
ATOM      9  C   UNL     1       3.575   6.238  17.897  0.00  0.00    +0.000 A 
ATOM     10  N   UNL     1       3.304   7.466  17.341  0.00  0.00    +0.000 N 
ATOM     11  C   UNL     1       2.496   8.214  18.164  0.00  0.00    +0.000 A 
ATOM     12  C   UNL     1       2.009   9.516  18.005  0.00  0.00    +0.000 A 
ATOM     13  C   UNL     1       1.239  10.051  19.043  0.00  0.00    +0.000 A 
ATOM     14  C   UNL     1       0.960   9.304  20.185  0.00  0.00    +0.000 A 
ATOM     15  C   UNL     1       1.429   7.991  20.308  0.00  0.00    +0.000 A 
ATOM     16  C   UNL     1       2.211   7.427  19.278  0.00  0.00    +0.000 A 
ATOM     17  C   UNL     1       2.849   6.150  19.089  0.00  0.00    +0.000 A 
ATOM     18  H   UNL     1       3.670   7.789  16.458  0.00  0.00    +0.000 HD
ENDROOT
TORSDOF 0
ENDMDL
MODEL 9
REMARK VINA RESULT:      -7.1      1.963      4.832
REMARK  Name = 
REMARK  0 active torsions:
REMARK  status: ('A' for Active; 'I' for Inactive)
REMARK                            x       y       z     vdW  Elec       q    Type
REMARK                         _______ _______ _______ _____ _____    ______ ____
ROOT
ATOM      1  C   UNL     1       5.127   4.052  16.585  0.00  0.00    +0.000 A 
ATOM      2  C   UNL     1       4.853   5.379  16.292  0.00  0.00    +0.000 A 
ATOM      3  N   UNL     1       4.068   6.173  17.048  0.00  0.00    +0.000 NA
ATOM      4  C   UNL     1       3.552   5.626  18.179  0.00  0.00    +0.000 A 
ATOM      5  C   UNL     1       3.786   4.293  18.580  0.00  0.00    +0.000 A 
ATOM      6  C   UNL     1       4.578   3.502  17.740  0.00  0.00    +0.000 A 
ATOM      7  C   UNL     1       3.244   3.810  19.779  0.00  0.00    +0.000 A 
ATOM      8  C   UNL     1       2.501   4.639  20.624  0.00  0.00    +0.000 A 
ATOM      9  C   UNL     1       2.281   5.958  20.211  0.00  0.00    +0.000 A 
ATOM     10  N   UNL     1       1.615   6.978  20.851  0.00  0.00    +0.000 N 
ATOM     11  C   UNL     1       1.563   8.104  20.065  0.00  0.00    +0.000 A 
ATOM     12  C   UNL     1       0.962   9.344  20.308  0.00  0.00    +0.000 A 
ATOM     13  C   UNL     1       1.024  10.304  19.293  0.00  0.00    +0.000 A 
ATOM     14  C   UNL     1       1.674  10.034  18.091  0.00  0.00    +0.000 A 
ATOM     15  C   UNL     1       2.298   8.799  17.882  0.00  0.00    +0.000 A 
ATOM     16  C   UNL     1       2.249   7.809  18.887  0.00  0.00    +0.000 A 
ATOM     17  C   UNL     1       2.754   6.467  18.997  0.00  0.00    +0.000 A 
ATOM     18  H   UNL     1       1.194   6.903  21.764  0.00  0.00    +0.000 HD
ENDROOT
TORSDOF 0
ENDMDL
