MODEL 1
REMARK VINA RESULT:      -7.0      0.000      0.000
REMARK  Name = 
REMARK  8 active torsions:
REMARK  status: ('A' for Active; 'I' for Inactive)
REMARK    1  A    between atoms: C_1  and  C_2
REMARK    2  A    between atoms: C_4  and  C_5
REMARK    3  A    between atoms: C_6  and  C_7
REMARK    4  A    between atoms: N_9  and  C_10
REMARK    5  A    between atoms: N_9  and  C_20
REMARK    6  A    between atoms: C_20  and  C_21
REMARK    7  A    between atoms: C_20  and  C_30
REMARK    8  A    between atoms: N_23  and  C_24
REMARK                            x       y       z     vdW  Elec       q    Type
REMARK                         _______ _______ _______ _____ _____    ______ ____
ROOT
ATOM      1  C   UNL     1      -0.014  14.616  19.498  0.00  0.00    +0.000 C 
ATOM      2  O   UNL     1      -0.374  14.982  18.377  0.00  0.00    +0.000 OA
ATOM      3  N   UNL     1      -0.729  13.604  20.205  0.00  0.00    +0.000 N 
ENDROOT
BRANCH   3   4
ATOM      4  C   UNL     1      -1.895  12.986  19.564  0.00  0.00    +0.000 A 
ATOM      5  C   UNL     1      -1.793  12.132  18.460  0.00  0.00    +0.000 A 
ATOM      6  N   UNL     1      -2.816  11.428  17.909  0.00  0.00    +0.000 NA
ATOM      7  C   UNL     1      -4.015  11.513  18.486  0.00  0.00    +0.000 A 
ATOM      8  C   UNL     1      -5.059  10.752  17.985  0.00  0.00    +0.000 A 
ATOM      9  C   UNL     1      -6.309  10.743  18.600  0.00  0.00    +0.000 A 
ATOM     10  C   UNL     1      -6.526  11.512  19.738  0.00  0.00    +0.000 A 
ATOM     11  C   UNL     1      -5.502  12.312  20.239  0.00  0.00    +0.000 A 
ATOM     12  C   UNL     1      -4.242  12.315  19.618  0.00  0.00    +0.000 A 
ATOM     13  C   UNL     1      -3.174  13.077  20.121  0.00  0.00    +0.000 A 
ENDBRANCH   3   4
BRANCH   1  19
ATOM     14  C   UNL     1       3.116  18.499  21.027  0.00  0.00    +0.000 C 
ATOM     15  C   UNL     1       2.603  17.159  20.658  0.00  0.00    +0.000 A 
ATOM     16  N   UNL     1       3.296  16.217  20.058  0.00  0.00    +0.000 NA
ATOM     17  C   UNL     1       2.464  15.160  19.715  0.00  0.00    +0.000 A 
ATOM     18  C   UNL     1       3.070  14.005  18.986  0.00  0.00    +0.000 C 
ATOM     19  C   UNL     1       1.123  15.335  20.055  0.00  0.00    +0.000 A 
ATOM     20  S   UNL     1       0.955  16.792  20.937  0.00  0.00    +0.000 S 
ENDBRANCH   1  19
BRANCH   3  21
ATOM     21  C   UNL     1      -0.278  12.998  21.516  0.00  0.00    +0.000 C 
BRANCH  21  22
ATOM     22  C   UNL     1      -0.247  11.440  21.561  0.00  0.00    +0.000 A 
ATOM     23  C   UNL     1       0.405  10.634  20.609  0.00  0.00    +0.000 A 
ATOM     24  C   UNL     1       0.590   9.262  20.801  0.00  0.00    +0.000 A 
ATOM     25  C   UNL     1       0.151   8.657  21.969  0.00  0.00    +0.000 A 
ATOM     26  C   UNL     1      -0.560   9.406  22.898  0.00  0.00    +0.000 A 
ATOM     27  C   UNL     1      -0.775  10.774  22.686  0.00  0.00    +0.000 A 
ENDBRANCH  21  22
BRANCH  21  28
ATOM     28  C   UNL     1      -0.864  13.683  22.802  0.00  0.00    +0.000 C 
ATOM     29  O   UNL     1      -0.233  14.482  23.498  0.00  0.00    +0.000 OA
ATOM     30  N   UNL     1      -2.214  13.457  23.080  0.00  0.00    +0.000 N 
ATOM     31  H   UNL     1      -2.764  13.084  22.320  0.00  0.00    +0.000 HD
BRANCH  30  32
ATOM     32  C   UNL     1      -2.940  14.106  24.183  0.00  0.00    +0.000 C 
ATOM     33  C   UNL     1      -3.581  15.409  23.682  0.00  0.00    +0.000 C 
ATOM     34  C   UNL     1      -4.677  15.127  22.652  0.00  0.00    +0.000 C 
ATOM     35  C   UNL     1      -5.749  14.184  23.197  0.00  0.00    +0.000 C 
ATOM     36  C   UNL     1      -5.161  12.919  23.814  0.00  0.00    +0.000 C 
ATOM     37  C   UNL     1      -4.049  13.239  24.810  0.00  0.00    +0.000 C 
ENDBRANCH  30  32
ENDBRANCH  21  28
ENDBRANCH   3  21
TORSDOF 6
ENDMDL
MODEL 2
REMARK VINA RESULT:      -6.9      1.015      1.341
REMARK  Name = 
REMARK  8 active torsions:
REMARK  status: ('A' for Active; 'I' for Inactive)
REMARK    1  A    between atoms: C_1  and  C_2
REMARK    2  A    between atoms: C_4  and  C_5
REMARK    3  A    between atoms: C_6  and  C_7
REMARK    4  A    between atoms: N_9  and  C_10
REMARK    5  A    between atoms: N_9  and  C_20
REMARK    6  A    between atoms: C_20  and  C_21
REMARK    7  A    between atoms: C_20  and  C_30
REMARK    8  A    between atoms: N_23  and  C_24
REMARK                            x       y       z     vdW  Elec       q    Type
REMARK                         _______ _______ _______ _____ _____    ______ ____
ROOT
ATOM      1  C   UNL     1      -0.078  14.740  19.817  0.00  0.00    +0.000 C 
ATOM      2  O   UNL     1      -0.406  15.139  18.697  0.00  0.00    +0.000 OA
ATOM      3  N   UNL     1      -0.794  13.686  20.458  0.00  0.00    +0.000 N 
ENDROOT
BRANCH   3   4
ATOM      4  C   UNL     1      -1.921  13.066  19.752  0.00  0.00    +0.000 A 
ATOM      5  C   UNL     1      -1.755  12.233  18.639  0.00  0.00    +0.000 A 
ATOM      6  N   UNL     1      -2.742  11.527  18.028  0.00  0.00    +0.000 NA
ATOM      7  C   UNL     1      -3.968  11.588  18.548  0.00  0.00    +0.000 A 
ATOM      8  C   UNL     1      -4.977  10.824  17.984  0.00  0.00    +0.000 A 
ATOM      9  C   UNL     1      -6.255  10.789  18.539  0.00  0.00    +0.000 A 
ATOM     10  C   UNL     1      -6.535  11.534  19.679  0.00  0.00    +0.000 A 
ATOM     11  C   UNL     1      -5.546  12.337  20.242  0.00  0.00    +0.000 A 
ATOM     12  C   UNL     1      -4.258  12.367  19.682  0.00  0.00    +0.000 A 
ATOM     13  C   UNL     1      -3.225  13.132  20.249  0.00  0.00    +0.000 A 
ENDBRANCH   3   4
BRANCH   1  19
ATOM     14  C   UNL     1       4.311  15.757  22.445  0.00  0.00    +0.000 C 
ATOM     15  C   UNL     1       3.006  15.910  21.759  0.00  0.00    +0.000 A 
ATOM     16  N   UNL     1       2.055  16.745  22.111  0.00  0.00    +0.000 NA
ATOM     17  C   UNL     1       0.912  16.508  21.358  0.00  0.00    +0.000 A 
ATOM     18  C   UNL     1      -0.295  17.339  21.645  0.00  0.00    +0.000 C 
ATOM     19  C   UNL     1       1.020  15.463  20.442  0.00  0.00    +0.000 A 
ATOM     20  S   UNL     1       2.628  14.875  20.450  0.00  0.00    +0.000 S 
ENDBRANCH   1  19
BRANCH   3  21
ATOM     21  C   UNL     1      -0.377  13.041  21.762  0.00  0.00    +0.000 C 
BRANCH  21  22
ATOM     22  C   UNL     1      -0.319  11.483  21.754  0.00  0.00    +0.000 A 
ATOM     23  C   UNL     1       0.359  10.722  20.784  0.00  0.00    +0.000 A 
ATOM     24  C   UNL     1       0.565   9.347  20.931  0.00  0.00    +0.000 A 
ATOM     25  C   UNL     1       0.121   8.695  22.071  0.00  0.00    +0.000 A 
ATOM     26  C   UNL     1      -0.615   9.399  23.014  0.00  0.00    +0.000 A 
ATOM     27  C   UNL     1      -0.851  10.769  22.848  0.00  0.00    +0.000 A 
ENDBRANCH  21  22
BRANCH  21  28
ATOM     28  C   UNL     1      -1.017  13.669  23.051  0.00  0.00    +0.000 C 
ATOM     29  O   UNL     1      -0.433  14.472  23.783  0.00  0.00    +0.000 OA
ATOM     30  N   UNL     1      -2.364  13.388  23.290  0.00  0.00    +0.000 N 
ATOM     31  H   UNL     1      -2.882  13.016  22.507  0.00  0.00    +0.000 HD
BRANCH  30  32
ATOM     32  C   UNL     1      -3.139  13.981  24.391  0.00  0.00    +0.000 C 
ATOM     33  C   UNL     1      -3.786  15.292  23.918  0.00  0.00    +0.000 C 
ATOM     34  C   UNL     1      -4.842  15.032  22.840  0.00  0.00    +0.000 C 
ATOM     35  C   UNL     1      -5.914  14.050  23.311  0.00  0.00    +0.000 C 
ATOM     36  C   UNL     1      -5.324  12.772  23.899  0.00  0.00    +0.000 C 
ATOM     37  C   UNL     1      -4.253  13.072  24.945  0.00  0.00    +0.000 C 
ENDBRANCH  30  32
ENDBRANCH  21  28
ENDBRANCH   3  21
TORSDOF 6
ENDMDL
MODEL 3
REMARK VINA RESULT:      -6.8      3.024      5.576
REMARK  Name = 
REMARK  8 active torsions:
REMARK  status: ('A' for Active; 'I' for Inactive)
REMARK    1  A    between atoms: C_1  and  C_2
REMARK    2  A    between atoms: C_4  and  C_5
REMARK    3  A    between atoms: C_6  and  C_7
REMARK    4  A    between atoms: N_9  and  C_10
REMARK    5  A    between atoms: N_9  and  C_20
REMARK    6  A    between atoms: C_20  and  C_21
REMARK    7  A    between atoms: C_20  and  C_30
REMARK    8  A    between atoms: N_23  and  C_24
REMARK                            x       y       z     vdW  Elec       q    Type
REMARK                         _______ _______ _______ _____ _____    ______ ____
ROOT
ATOM      1  C   UNL     1       1.509  11.833  18.905  0.00  0.00    +0.000 C 
ATOM      2  O   UNL     1       2.637  11.864  18.406  0.00  0.00    +0.000 OA
ATOM      3  N   UNL     1       0.823  10.597  19.092  0.00  0.00    +0.000 N 
ENDROOT
BRANCH   3   4
ATOM      4  C   UNL     1       1.492   9.352  18.698  0.00  0.00    +0.000 A 
ATOM      5  C   UNL     1       2.241   9.230  17.521  0.00  0.00    +0.000 A 
ATOM      6  N   UNL     1       2.989   8.152  17.170  0.00  0.00    +0.000 NA
ATOM      7  C   UNL     1       3.062   7.135  18.030  0.00  0.00    +0.000 A 
ATOM      8  C   UNL     1       3.873   6.053  17.726  0.00  0.00    +0.000 A 
ATOM      9  C   UNL     1       4.048   5.003  18.625  0.00  0.00    +0.000 A 
ATOM     10  C   UNL     1       3.398   5.029  19.854  0.00  0.00    +0.000 A 
ATOM     11  C   UNL     1       2.549   6.089  20.167  0.00  0.00    +0.000 A 
ATOM     12  C   UNL     1       2.379   7.148  19.259  0.00  0.00    +0.000 A 
ATOM     13  C   UNL     1       1.565   8.253  19.558  0.00  0.00    +0.000 A 
ENDBRANCH   3   4
BRANCH   1  19
ATOM     14  C   UNL     1      -0.467  16.625  18.326  0.00  0.00    +0.000 C 
ATOM     15  C   UNL     1       0.110  15.396  18.920  0.00  0.00    +0.000 A 
ATOM     16  N   UNL     1       0.939  15.360  19.939  0.00  0.00    +0.000 NA
ATOM     17  C   UNL     1       1.408  14.066  20.124  0.00  0.00    +0.000 A 
ATOM     18  C   UNL     1       2.397  13.834  21.219  0.00  0.00    +0.000 C 
ATOM     19  C   UNL     1       0.925  13.131  19.210  0.00  0.00    +0.000 A 
ATOM     20  S   UNL     1      -0.236  13.883  18.200  0.00  0.00    +0.000 S 
ENDBRANCH   1  19
BRANCH   3  21
ATOM     21  C   UNL     1      -0.495  10.454  19.822  0.00  0.00    +0.000 C 
BRANCH  21  22
ATOM     22  C   UNL     1      -1.772  10.667  18.953  0.00  0.00    +0.000 A 
ATOM     23  C   UNL     1      -2.808  11.562  19.277  0.00  0.00    +0.000 A 
ATOM     24  C   UNL     1      -3.824  11.878  18.371  0.00  0.00    +0.000 A 
ATOM     25  C   UNL     1      -3.819  11.326  17.099  0.00  0.00    +0.000 A 
ATOM     26  C   UNL     1      -2.854  10.384  16.770  0.00  0.00    +0.000 A 
ATOM     27  C   UNL     1      -1.857  10.042  17.692  0.00  0.00    +0.000 A 
ENDBRANCH  21  22
BRANCH  21  28
ATOM     28  C   UNL     1      -0.545  11.122  21.242  0.00  0.00    +0.000 C 
ATOM     29  O   UNL     1       0.323  10.961  22.104  0.00  0.00    +0.000 OA
ATOM     30  N   UNL     1      -1.570  12.042  21.473  0.00  0.00    +0.000 N 
ATOM     31  H   UNL     1      -2.042  12.390  20.651  0.00  0.00    +0.000 HD
BRANCH  30  32
ATOM     32  C   UNL     1      -1.696  12.832  22.708  0.00  0.00    +0.000 C 
ATOM     33  C   UNL     1      -1.619  14.329  22.373  0.00  0.00    +0.000 C 
ATOM     34  C   UNL     1      -2.826  14.774  21.542  0.00  0.00    +0.000 C 
ATOM     35  C   UNL     1      -4.150  14.451  22.234  0.00  0.00    +0.000 C 
ATOM     36  C   UNL     1      -4.235  12.999  22.694  0.00  0.00    +0.000 C 
ATOM     37  C   UNL     1      -3.000  12.584  23.490  0.00  0.00    +0.000 C 
ENDBRANCH  30  32
ENDBRANCH  21  28
ENDBRANCH   3  21
TORSDOF 6
ENDMDL
MODEL 4
REMARK VINA RESULT:      -6.8      1.419      2.305
REMARK  Name = 
REMARK  8 active torsions:
REMARK  status: ('A' for Active; 'I' for Inactive)
REMARK    1  A    between atoms: C_1  and  C_2
REMARK    2  A    between atoms: C_4  and  C_5
REMARK    3  A    between atoms: C_6  and  C_7
REMARK    4  A    between atoms: N_9  and  C_10
REMARK    5  A    between atoms: N_9  and  C_20
REMARK    6  A    between atoms: C_20  and  C_21
REMARK    7  A    between atoms: C_20  and  C_30
REMARK    8  A    between atoms: N_23  and  C_24
REMARK                            x       y       z     vdW  Elec       q    Type
REMARK                         _______ _______ _______ _____ _____    ______ ____
ROOT
ATOM      1  C   UNL     1      -0.054  14.520  19.973  0.00  0.00    +0.000 C 
ATOM      2  O   UNL     1      -0.316  14.841  18.811  0.00  0.00    +0.000 OA
ATOM      3  N   UNL     1      -0.706  13.413  20.592  0.00  0.00    +0.000 N 
ENDROOT
BRANCH   3   4
ATOM      4  C   UNL     1      -1.683  12.643  19.814  0.00  0.00    +0.000 A 
ATOM      5  C   UNL     1      -3.066  12.818  19.944  0.00  0.00    +0.000 A 
ATOM      6  N   UNL     1      -4.012  12.236  19.162  0.00  0.00    +0.000 NA
ATOM      7  C   UNL     1      -3.602  11.466  18.154  0.00  0.00    +0.000 A 
ATOM      8  C   UNL     1      -4.545  10.915  17.301  0.00  0.00    +0.000 A 
ATOM      9  C   UNL     1      -4.166  10.171  16.186  0.00  0.00    +0.000 A 
ATOM     10  C   UNL     1      -2.817   9.966  15.916  0.00  0.00    +0.000 A 
ATOM     11  C   UNL     1      -1.852  10.480  16.780  0.00  0.00    +0.000 A 
ATOM     12  C   UNL     1      -2.238  11.234  17.901  0.00  0.00    +0.000 A 
ATOM     13  C   UNL     1      -1.292  11.802  18.769  0.00  0.00    +0.000 A 
ENDBRANCH   3   4
BRANCH   1  19
ATOM     14  C   UNL     1       4.023  16.128  22.800  0.00  0.00    +0.000 C 
ATOM     15  C   UNL     1       2.735  16.096  22.069  0.00  0.00    +0.000 A 
ATOM     16  N   UNL     1       1.650  16.754  22.410  0.00  0.00    +0.000 NA
ATOM     17  C   UNL     1       0.586  16.365  21.606  0.00  0.00    +0.000 A 
ATOM     18  C   UNL     1      -0.749  16.981  21.872  0.00  0.00    +0.000 C 
ATOM     19  C   UNL     1       0.892  15.385  20.663  0.00  0.00    +0.000 A 
ATOM     20  S   UNL     1       2.572  15.063  20.714  0.00  0.00    +0.000 S 
ENDBRANCH   1  19
BRANCH   3  21
ATOM     21  C   UNL     1      -0.345  12.864  21.956  0.00  0.00    +0.000 C 
BRANCH  21  22
ATOM     22  C   UNL     1      -0.061  11.332  22.011  0.00  0.00    +0.000 A 
ATOM     23  C   UNL     1      -0.766  10.426  22.826  0.00  0.00    +0.000 A 
ATOM     24  C   UNL     1      -0.626   9.042  22.689  0.00  0.00    +0.000 A 
ATOM     25  C   UNL     1       0.206   8.520  21.709  0.00  0.00    +0.000 A 
ATOM     26  C   UNL     1       0.971   9.383  20.935  0.00  0.00    +0.000 A 
ATOM     27  C   UNL     1       0.856  10.769  21.099  0.00  0.00    +0.000 A 
ENDBRANCH  21  22
BRANCH  21  28
ATOM     28  C   UNL     1      -1.207  13.417  23.145  0.00  0.00    +0.000 C 
ATOM     29  O   UNL     1      -0.745  14.094  24.068  0.00  0.00    +0.000 OA
ATOM     30  N   UNL     1      -2.589  13.230  23.067  0.00  0.00    +0.000 N 
ATOM     31  H   UNL     1      -2.948  12.980  22.157  0.00  0.00    +0.000 HD
BRANCH  30  32
ATOM     32  C   UNL     1      -3.545  13.777  24.042  0.00  0.00    +0.000 C 
ATOM     33  C   UNL     1      -3.891  15.226  23.667  0.00  0.00    +0.000 C 
ATOM     34  C   UNL     1      -4.658  15.289  22.344  0.00  0.00    +0.000 C 
ATOM     35  C   UNL     1      -5.923  14.431  22.373  0.00  0.00    +0.000 C 
ATOM     36  C   UNL     1      -5.657  13.007  22.851  0.00  0.00    +0.000 C 
ATOM     37  C   UNL     1      -4.862  12.986  24.154  0.00  0.00    +0.000 C 
ENDBRANCH  30  32
ENDBRANCH  21  28
ENDBRANCH   3  21
TORSDOF 6
ENDMDL
MODEL 5
REMARK VINA RESULT:      -6.8      2.726      6.198
REMARK  Name = 
REMARK  8 active torsions:
REMARK  status: ('A' for Active; 'I' for Inactive)
REMARK    1  A    between atoms: C_1  and  C_2
REMARK    2  A    between atoms: C_4  and  C_5
REMARK    3  A    between atoms: C_6  and  C_7
REMARK    4  A    between atoms: N_9  and  C_10
REMARK    5  A    between atoms: N_9  and  C_20
REMARK    6  A    between atoms: C_20  and  C_21
REMARK    7  A    between atoms: C_20  and  C_30
REMARK    8  A    between atoms: N_23  and  C_24
REMARK                            x       y       z     vdW  Elec       q    Type
REMARK                         _______ _______ _______ _____ _____    ______ ____
ROOT
ATOM      1  C   UNL     1      -2.169  10.582  18.601  0.00  0.00    +0.000 C 
ATOM      2  O   UNL     1      -2.209   9.509  17.995  0.00  0.00    +0.000 OA
ATOM      3  N   UNL     1      -1.092  10.884  19.486  0.00  0.00    +0.000 N 
ENDROOT
BRANCH   3   4
ATOM      4  C   UNL     1      -0.015   9.900  19.650  0.00  0.00    +0.000 A 
ATOM      5  C   UNL     1       0.076   9.049  20.757  0.00  0.00    +0.000 A 
ATOM      6  N   UNL     1       0.966   8.033  20.901  0.00  0.00    +0.000 NA
ATOM      7  C   UNL     1       1.800   7.787  19.890  0.00  0.00    +0.000 A 
ATOM      8  C   UNL     1       2.672   6.713  19.984  0.00  0.00    +0.000 A 
ATOM      9  C   UNL     1       3.506   6.363  18.924  0.00  0.00    +0.000 A 
ATOM     10  C   UNL     1       3.475   7.100  17.745  0.00  0.00    +0.000 A 
ATOM     11  C   UNL     1       2.632   8.205  17.642  0.00  0.00    +0.000 A 
ATOM     12  C   UNL     1       1.790   8.552  18.711  0.00  0.00    +0.000 A 
ATOM     13  C   UNL     1       0.897   9.633  18.625  0.00  0.00    +0.000 A 
ENDBRANCH   3   4
BRANCH   1  19
ATOM     14  C   UNL     1      -6.822  12.855  19.220  0.00  0.00    +0.000 C 
ATOM     15  C   UNL     1      -5.526  12.421  18.648  0.00  0.00    +0.000 A 
ATOM     16  N   UNL     1      -5.299  12.174  17.378  0.00  0.00    +0.000 NA
ATOM     17  C   UNL     1      -4.031  11.630  17.218  0.00  0.00    +0.000 A 
ATOM     18  C   UNL     1      -3.607  11.247  15.838  0.00  0.00    +0.000 C 
ATOM     19  C   UNL     1      -3.315  11.457  18.401  0.00  0.00    +0.000 A 
ATOM     20  S   UNL     1      -4.211  12.119  19.701  0.00  0.00    +0.000 S 
ENDBRANCH   1  19
BRANCH   3  21
ATOM     21  C   UNL     1      -0.889  12.225  20.157  0.00  0.00    +0.000 C 
BRANCH  21  22
ATOM     22  C   UNL     1       0.444  12.957  19.811  0.00  0.00    +0.000 A 
ATOM     23  C   UNL     1       1.478  13.197  20.735  0.00  0.00    +0.000 A 
ATOM     24  C   UNL     1       2.735  13.661  20.337  0.00  0.00    +0.000 A 
ATOM     25  C   UNL     1       3.005  13.873  18.993  0.00  0.00    +0.000 A 
ATOM     26  C   UNL     1       1.987  13.716  18.061  0.00  0.00    +0.000 A 
ATOM     27  C   UNL     1       0.718  13.285  18.467  0.00  0.00    +0.000 A 
ENDBRANCH  21  22
BRANCH  21  28
ATOM     28  C   UNL     1      -1.295  12.279  21.673  0.00  0.00    +0.000 C 
ATOM     29  O   UNL     1      -0.881  11.483  22.520  0.00  0.00    +0.000 OA
ATOM     30  N   UNL     1      -2.064  13.370  22.084  0.00  0.00    +0.000 N 
ATOM     31  H   UNL     1      -2.093  14.153  21.448  0.00  0.00    +0.000 HD
BRANCH  30  32
ATOM     32  C   UNL     1      -2.438  13.624  23.485  0.00  0.00    +0.000 C 
ATOM     33  C   UNL     1      -2.808  15.104  23.659  0.00  0.00    +0.000 C 
ATOM     34  C   UNL     1      -4.080  15.454  22.882  0.00  0.00    +0.000 C 
ATOM     35  C   UNL     1      -5.257  14.562  23.277  0.00  0.00    +0.000 C 
ATOM     36  C   UNL     1      -4.911  13.077  23.234  0.00  0.00    +0.000 C 
ATOM     37  C   UNL     1      -3.620  12.774  23.990  0.00  0.00    +0.000 C 
ENDBRANCH  30  32
ENDBRANCH  21  28
ENDBRANCH   3  21
TORSDOF 6
ENDMDL
MODEL 6
REMARK VINA RESULT:      -6.8      2.922      6.311
REMARK  Name = 
REMARK  8 active torsions:
REMARK  status: ('A' for Active; 'I' for Inactive)
REMARK    1  A    between atoms: C_1  and  C_2
REMARK    2  A    between atoms: C_4  and  C_5
REMARK    3  A    between atoms: C_6  and  C_7
REMARK    4  A    between atoms: N_9  and  C_10
REMARK    5  A    between atoms: N_9  and  C_20
REMARK    6  A    between atoms: C_20  and  C_21
REMARK    7  A    between atoms: C_20  and  C_30
REMARK    8  A    between atoms: N_23  and  C_24
REMARK                            x       y       z     vdW  Elec       q    Type
REMARK                         _______ _______ _______ _____ _____    ______ ____
ROOT
ATOM      1  C   UNL     1      -1.644  10.360  18.411  0.00  0.00    +0.000 C 
ATOM      2  O   UNL     1      -1.711   9.294  17.795  0.00  0.00    +0.000 OA
ATOM      3  N   UNL     1      -0.572  10.616  19.318  0.00  0.00    +0.000 N 
ENDROOT
BRANCH   3   4
ATOM      4  C   UNL     1       0.466   9.594  19.490  0.00  0.00    +0.000 A 
ATOM      5  C   UNL     1       0.521   8.745  20.602  0.00  0.00    +0.000 A 
ATOM      6  N   UNL     1       1.373   7.697  20.754  0.00  0.00    +0.000 NA
ATOM      7  C   UNL     1       2.202   7.415  19.748  0.00  0.00    +0.000 A 
ATOM      8  C   UNL     1       3.033   6.311  19.849  0.00  0.00    +0.000 A 
ATOM      9  C   UNL     1       3.858   5.925  18.795  0.00  0.00    +0.000 A 
ATOM     10  C   UNL     1       3.858   6.658  17.613  0.00  0.00    +0.000 A 
ATOM     11  C   UNL     1       3.057   7.793  17.501  0.00  0.00    +0.000 A 
ATOM     12  C   UNL     1       2.224   8.175  18.565  0.00  0.00    +0.000 A 
ATOM     13  C   UNL     1       1.373   9.289  18.471  0.00  0.00    +0.000 A 
ENDBRANCH   3   4
BRANCH   1  19
ATOM     14  C   UNL     1      -6.216  12.803  18.987  0.00  0.00    +0.000 C 
ATOM     15  C   UNL     1      -4.932  12.321  18.427  0.00  0.00    +0.000 A 
ATOM     16  N   UNL     1      -4.702  12.065  17.159  0.00  0.00    +0.000 NA
ATOM     17  C   UNL     1      -3.454  11.475  17.011  0.00  0.00    +0.000 A 
ATOM     18  C   UNL     1      -3.031  11.075  15.635  0.00  0.00    +0.000 C 
ATOM     19  C   UNL     1      -2.755  11.276  18.201  0.00  0.00    +0.000 A 
ATOM     20  S   UNL     1      -3.638  11.971  19.492  0.00  0.00    +0.000 S 
ENDBRANCH   1  19
BRANCH   3  21
ATOM     21  C   UNL     1      -0.335  11.943  20.005  0.00  0.00    +0.000 C 
BRANCH  21  22
ATOM     22  C   UNL     1       0.999  12.662  19.637  0.00  0.00    +0.000 A 
ATOM     23  C   UNL     1       1.382  12.995  18.324  0.00  0.00    +0.000 A 
ATOM     24  C   UNL     1       2.476  13.823  18.058  0.00  0.00    +0.000 A 
ATOM     25  C   UNL     1       3.206  14.369  19.103  0.00  0.00    +0.000 A 
ATOM     26  C   UNL     1       2.902  14.005  20.409  0.00  0.00    +0.000 A 
ATOM     27  C   UNL     1       1.827  13.146  20.671  0.00  0.00    +0.000 A 
ENDBRANCH  21  22
BRANCH  21  28
ATOM     28  C   UNL     1      -0.702  11.978  21.531  0.00  0.00    +0.000 C 
ATOM     29  O   UNL     1      -0.131  11.296  22.387  0.00  0.00    +0.000 OA
ATOM     30  N   UNL     1      -1.639  12.930  21.936  0.00  0.00    +0.000 N 
ATOM     31  H   UNL     1      -1.823  13.674  21.278  0.00  0.00    +0.000 HD
BRANCH  30  32
ATOM     32  C   UNL     1      -2.014  13.163  23.339  0.00  0.00    +0.000 C 
ATOM     33  C   UNL     1      -2.095  14.674  23.608  0.00  0.00    +0.000 C 
ATOM     34  C   UNL     1      -3.242  15.316  22.823  0.00  0.00    +0.000 C 
ATOM     35  C   UNL     1      -4.585  14.650  23.121  0.00  0.00    +0.000 C 
ATOM     36  C   UNL     1      -4.533  13.132  22.982  0.00  0.00    +0.000 C 
ATOM     37  C   UNL     1      -3.358  12.533  23.751  0.00  0.00    +0.000 C 
ENDBRANCH  30  32
ENDBRANCH  21  28
ENDBRANCH   3  21
TORSDOF 6
ENDMDL
MODEL 7
REMARK VINA RESULT:      -6.8      1.375      2.174
REMARK  Name = 
REMARK  8 active torsions:
REMARK  status: ('A' for Active; 'I' for Inactive)
REMARK    1  A    between atoms: C_1  and  C_2
REMARK    2  A    between atoms: C_4  and  C_5
REMARK    3  A    between atoms: C_6  and  C_7
REMARK    4  A    between atoms: N_9  and  C_10
REMARK    5  A    between atoms: N_9  and  C_20
REMARK    6  A    between atoms: C_20  and  C_21
REMARK    7  A    between atoms: C_20  and  C_30
REMARK    8  A    between atoms: N_23  and  C_24
REMARK                            x       y       z     vdW  Elec       q    Type
REMARK                         _______ _______ _______ _____ _____    ______ ____
ROOT
ATOM      1  C   UNL     1      -0.115  14.741  19.828  0.00  0.00    +0.000 C 
ATOM      2  O   UNL     1      -0.393  15.056  18.668  0.00  0.00    +0.000 OA
ATOM      3  N   UNL     1      -0.745  13.625  20.455  0.00  0.00    +0.000 N 
ENDROOT
BRANCH   3   4
ATOM      4  C   UNL     1      -1.719  12.840  19.687  0.00  0.00    +0.000 A 
ATOM      5  C   UNL     1      -3.090  12.839  19.972  0.00  0.00    +0.000 A 
ATOM      6  N   UNL     1      -4.052  12.244  19.221  0.00  0.00    +0.000 NA
ATOM      7  C   UNL     1      -3.679  11.644  18.089  0.00  0.00    +0.000 A 
ATOM      8  C   UNL     1      -4.649  11.089  17.270  0.00  0.00    +0.000 A 
ATOM      9  C   UNL     1      -4.322  10.524  16.040  0.00  0.00    +0.000 A 
ATOM     10  C   UNL     1      -2.997  10.508  15.616  0.00  0.00    +0.000 A 
ATOM     11  C   UNL     1      -2.000  11.029  16.438  0.00  0.00    +0.000 A 
ATOM     12  C   UNL     1      -2.335  11.601  17.676  0.00  0.00    +0.000 A 
ATOM     13  C   UNL     1      -1.362  12.173  18.512  0.00  0.00    +0.000 A 
ENDBRANCH   3   4
BRANCH   1  19
ATOM     14  C   UNL     1       3.943  16.408  22.648  0.00  0.00    +0.000 C 
ATOM     15  C   UNL     1       2.658  16.359  21.912  0.00  0.00    +0.000 A 
ATOM     16  N   UNL     1       1.569  17.020  22.236  0.00  0.00    +0.000 NA
ATOM     17  C   UNL     1       0.511  16.614  21.433  0.00  0.00    +0.000 A 
ATOM     18  C   UNL     1      -0.827  17.230  21.682  0.00  0.00    +0.000 C 
ATOM     19  C   UNL     1       0.824  15.620  20.508  0.00  0.00    +0.000 A 
ATOM     20  S   UNL     1       2.506  15.304  20.573  0.00  0.00    +0.000 S 
ENDBRANCH   1  19
BRANCH   3  21
ATOM     21  C   UNL     1      -0.365  13.083  21.816  0.00  0.00    +0.000 C 
BRANCH  21  22
ATOM     22  C   UNL     1      -0.184  11.537  21.899  0.00  0.00    +0.000 A 
ATOM     23  C   UNL     1       0.737  10.806  21.125  0.00  0.00    +0.000 A 
ATOM     24  C   UNL     1       1.016   9.460  21.380  0.00  0.00    +0.000 A 
ATOM     25  C   UNL     1       0.400   8.810  22.439  0.00  0.00    +0.000 A 
ATOM     26  C   UNL     1      -0.567   9.479  23.178  0.00  0.00    +0.000 A 
ATOM     27  C   UNL     1      -0.871  10.816  22.897  0.00  0.00    +0.000 A 
ENDBRANCH  21  22
BRANCH  21  28
ATOM     28  C   UNL     1      -1.136  13.722  23.026  0.00  0.00    +0.000 C 
ATOM     29  O   UNL     1      -0.577  14.198  24.017  0.00  0.00    +0.000 OA
ATOM     30  N   UNL     1      -2.519  13.861  22.892  0.00  0.00    +0.000 N 
ATOM     31  H   UNL     1      -2.882  13.774  21.954  0.00  0.00    +0.000 HD
BRANCH  30  32
ATOM     32  C   UNL     1      -3.372  14.532  23.886  0.00  0.00    +0.000 C 
ATOM     33  C   UNL     1      -4.678  14.990  23.219  0.00  0.00    +0.000 C 
ATOM     34  C   UNL     1      -5.523  13.793  22.776  0.00  0.00    +0.000 C 
ATOM     35  C   UNL     1      -5.823  12.841  23.934  0.00  0.00    +0.000 C 
ATOM     36  C   UNL     1      -4.570  12.443  24.707  0.00  0.00    +0.000 C 
ATOM     37  C   UNL     1      -3.737  13.660  25.102  0.00  0.00    +0.000 C 
ENDBRANCH  30  32
ENDBRANCH  21  28
ENDBRANCH   3  21
TORSDOF 6
ENDMDL
MODEL 8
REMARK VINA RESULT:      -6.8      1.496      2.029
REMARK  Name = 
REMARK  8 active torsions:
REMARK  status: ('A' for Active; 'I' for Inactive)
REMARK    1  A    between atoms: C_1  and  C_2
REMARK    2  A    between atoms: C_4  and  C_5
REMARK    3  A    between atoms: C_6  and  C_7
REMARK    4  A    between atoms: N_9  and  C_10
REMARK    5  A    between atoms: N_9  and  C_20
REMARK    6  A    between atoms: C_20  and  C_21
REMARK    7  A    between atoms: C_20  and  C_30
REMARK    8  A    between atoms: N_23  and  C_24
REMARK                            x       y       z     vdW  Elec       q    Type
REMARK                         _______ _______ _______ _____ _____    ______ ____
ROOT
ATOM      1  C   UNL     1      -0.199  14.189  20.024  0.00  0.00    +0.000 C 
ATOM      2  O   UNL     1      -0.487  14.721  18.949  0.00  0.00    +0.000 OA
ATOM      3  N   UNL     1      -1.023  13.164  20.578  0.00  0.00    +0.000 N 
ENDROOT
BRANCH   3   4
ATOM      4  C   UNL     1      -2.213  12.736  19.835  0.00  0.00    +0.000 A 
ATOM      5  C   UNL     1      -2.151  11.890  18.721  0.00  0.00    +0.000 A 
ATOM      6  N   UNL     1      -3.220  11.354  18.076  0.00  0.00    +0.000 NA
ATOM      7  C   UNL     1      -4.435  11.611  18.561  0.00  0.00    +0.000 A 
ATOM      8  C   UNL     1      -5.538  11.022  17.963  0.00  0.00    +0.000 A 
ATOM      9  C   UNL     1      -6.820  11.192  18.479  0.00  0.00    +0.000 A 
ATOM     10  C   UNL     1      -7.011  11.970  19.616  0.00  0.00    +0.000 A 
ATOM     11  C   UNL     1      -5.922  12.602  20.213  0.00  0.00    +0.000 A 
ATOM     12  C   UNL     1      -4.630  12.424  19.692  0.00  0.00    +0.000 A 
ATOM     13  C   UNL     1      -3.505  13.011  20.293  0.00  0.00    +0.000 A 
ENDBRANCH   3   4
BRANCH   1  19
ATOM     14  C   UNL     1       4.443  14.503  22.381  0.00  0.00    +0.000 C 
ATOM     15  C   UNL     1       3.085  14.828  21.883  0.00  0.00    +0.000 A 
ATOM     16  N   UNL     1       2.196  15.558  22.518  0.00  0.00    +0.000 NA
ATOM     17  C   UNL     1       0.982  15.519  21.844  0.00  0.00    +0.000 A 
ATOM     18  C   UNL     1      -0.168  16.263  22.440  0.00  0.00    +0.000 C 
ATOM     19  C   UNL     1       0.973  14.729  20.696  0.00  0.00    +0.000 A 
ATOM     20  S   UNL     1       2.557  14.147  20.404  0.00  0.00    +0.000 S 
ENDBRANCH   1  19
BRANCH   3  21
ATOM     21  C   UNL     1      -0.673  12.363  21.813  0.00  0.00    +0.000 C 
BRANCH  21  22
ATOM     22  C   UNL     1       0.067  11.015  21.553  0.00  0.00    +0.000 A 
ATOM     23  C   UNL     1       0.067   9.927  22.446  0.00  0.00    +0.000 A 
ATOM     24  C   UNL     1       0.560   8.671  22.084  0.00  0.00    +0.000 A 
ATOM     25  C   UNL     1       1.045   8.457  20.802  0.00  0.00    +0.000 A 
ATOM     26  C   UNL     1       1.127   9.524  19.918  0.00  0.00    +0.000 A 
ATOM     27  C   UNL     1       0.665  10.791  20.296  0.00  0.00    +0.000 A 
ENDBRANCH  21  22
BRANCH  21  28
ATOM     28  C   UNL     1      -1.800  12.295  22.904  0.00  0.00    +0.000 C 
ATOM     29  O   UNL     1      -2.209  11.241  23.400  0.00  0.00    +0.000 OA
ATOM     30  N   UNL     1      -2.259  13.510  23.417  0.00  0.00    +0.000 N 
ATOM     31  H   UNL     1      -1.674  14.313  23.236  0.00  0.00    +0.000 HD
BRANCH  30  32
ATOM     32  C   UNL     1      -3.233  13.618  24.515  0.00  0.00    +0.000 C 
ATOM     33  C   UNL     1      -3.026  14.946  25.259  0.00  0.00    +0.000 C 
ATOM     34  C   UNL     1      -3.364  16.141  24.365  0.00  0.00    +0.000 C 
ATOM     35  C   UNL     1      -4.787  16.059  23.811  0.00  0.00    +0.000 C 
ATOM     36  C   UNL     1      -5.087  14.713  23.159  0.00  0.00    +0.000 C 
ATOM     37  C   UNL     1      -4.705  13.547  24.067  0.00  0.00    +0.000 C 
ENDBRANCH  30  32
ENDBRANCH  21  28
ENDBRANCH   3  21
TORSDOF 6
ENDMDL
MODEL 9
REMARK VINA RESULT:      -6.8      2.274      6.429
REMARK  Name = 
REMARK  8 active torsions:
REMARK  status: ('A' for Active; 'I' for Inactive)
REMARK    1  A    between atoms: C_1  and  C_2
REMARK    2  A    between atoms: C_4  and  C_5
REMARK    3  A    between atoms: C_6  and  C_7
REMARK    4  A    between atoms: N_9  and  C_10
REMARK    5  A    between atoms: N_9  and  C_20
REMARK    6  A    between atoms: C_20  and  C_21
REMARK    7  A    between atoms: C_20  and  C_30
REMARK    8  A    between atoms: N_23  and  C_24
REMARK                            x       y       z     vdW  Elec       q    Type
REMARK                         _______ _______ _______ _____ _____    ______ ____
ROOT
ATOM      1  C   UNL     1      -1.386  11.901  22.453  0.00  0.00    +0.000 C 
ATOM      2  O   UNL     1      -0.960  11.179  23.358  0.00  0.00    +0.000 OA
ATOM      3  N   UNL     1      -0.975  11.702  21.101  0.00  0.00    +0.000 N 
ENDROOT
BRANCH   3   4
ATOM      4  C   UNL     1      -0.048  10.605  20.800  0.00  0.00    +0.000 A 
ATOM      5  C   UNL     1       0.063   9.461  21.599  0.00  0.00    +0.000 A 
ATOM      6  N   UNL     1       0.801   8.360  21.302  0.00  0.00    +0.000 NA
ATOM      7  C   UNL     1       1.443   8.334  20.134  0.00  0.00    +0.000 A 
ATOM      8  C   UNL     1       2.147   7.195  19.777  0.00  0.00    +0.000 A 
ATOM      9  C   UNL     1       2.767   7.085  18.535  0.00  0.00    +0.000 A 
ATOM     10  C   UNL     1       2.687   8.136  17.627  0.00  0.00    +0.000 A 
ATOM     11  C   UNL     1       2.015   9.305  17.977  0.00  0.00    +0.000 A 
ATOM     12  C   UNL     1       1.388   9.409  19.230  0.00  0.00    +0.000 A 
ATOM     13  C   UNL     1       0.666  10.556  19.600  0.00  0.00    +0.000 A 
ENDBRANCH   3   4
BRANCH   1  19
ATOM     14  C   UNL     1      -5.434  15.180  22.702  0.00  0.00    +0.000 C 
ATOM     15  C   UNL     1      -4.103  14.561  22.899  0.00  0.00    +0.000 A 
ATOM     16  N   UNL     1      -2.971  15.215  23.030  0.00  0.00    +0.000 NA
ATOM     17  C   UNL     1      -1.904  14.326  23.029  0.00  0.00    +0.000 A 
ATOM     18  C   UNL     1      -0.526  14.891  23.131  0.00  0.00    +0.000 C 
ATOM     19  C   UNL     1      -2.259  12.986  22.876  0.00  0.00    +0.000 A 
ATOM     20  S   UNL     1      -3.966  12.855  22.873  0.00  0.00    +0.000 S 
ENDBRANCH   1  19
BRANCH   3  21
ATOM     21  C   UNL     1      -1.553  12.443  19.915  0.00  0.00    +0.000 C 
BRANCH  21  22
ATOM     22  C   UNL     1      -2.629  11.667  19.096  0.00  0.00    +0.000 A 
ATOM     23  C   UNL     1      -3.986  12.035  19.025  0.00  0.00    +0.000 A 
ATOM     24  C   UNL     1      -4.868  11.444  18.116  0.00  0.00    +0.000 A 
ATOM     25  C   UNL     1      -4.410  10.481  17.229  0.00  0.00    +0.000 A 
ATOM     26  C   UNL     1      -3.096  10.042  17.319  0.00  0.00    +0.000 A 
ATOM     27  C   UNL     1      -2.224  10.611  18.255  0.00  0.00    +0.000 A 
ENDBRANCH  21  22
BRANCH  21  28
ATOM     28  C   UNL     1      -0.507  13.230  19.049  0.00  0.00    +0.000 C 
ATOM     29  O   UNL     1      -0.528  13.263  17.816  0.00  0.00    +0.000 OA
ATOM     30  N   UNL     1       0.408  14.032  19.735  0.00  0.00    +0.000 N 
ATOM     31  H   UNL     1       0.179  14.238  20.696  0.00  0.00    +0.000 HD
BRANCH  30  32
ATOM     32  C   UNL     1       1.382  14.912  19.070  0.00  0.00    +0.000 C 
ATOM     33  C   UNL     1       0.786  16.320  18.920  0.00  0.00    +0.000 C 
ATOM     34  C   UNL     1       0.581  16.983  20.284  0.00  0.00    +0.000 C 
ATOM     35  C   UNL     1       1.874  17.038  21.097  0.00  0.00    +0.000 C 
ATOM     36  C   UNL     1       2.573  15.685  21.182  0.00  0.00    +0.000 C 
ATOM     37  C   UNL     1       2.729  15.040  19.807  0.00  0.00    +0.000 C 
ENDBRANCH  30  32
ENDBRANCH  21  28
ENDBRANCH   3  21
TORSDOF 6
ENDMDL
