MODEL 1
REMARK VINA RESULT:      -6.8      0.000      0.000
REMARK  Name = 
REMARK  5 active torsions:
REMARK  status: ('A' for Active; 'I' for Inactive)
REMARK    1  A    between atoms: C_1  and  C_2
REMARK    2  A    between atoms: C_2  and  C_3
REMARK    3  A    between atoms: C_8  and  C_9
REMARK    4  A    between atoms: C_15  and  C_16
REMARK    5  A    between atoms: C_18  and  N_19
REMARK                            x       y       z     vdW  Elec       q    Type
REMARK                         _______ _______ _______ _____ _____    ______ ____
ROOT
ATOM      1  C   UNL     1       5.963   5.388  16.333  0.00  0.00    +0.000 A 
ATOM      2  N   UNL     1       6.107   6.076  15.187  0.00  0.00    +0.000 NA
ATOM      3  N   UNL     1       5.184   7.056  15.267  0.00  0.00    +0.000 N 
ATOM      4  C   UNL     1       4.464   7.004  16.415  0.00  0.00    +0.000 A 
ATOM      5  C   UNL     1       4.918   5.918  17.124  0.00  0.00    +0.000 A 
ATOM      6  C   UNL     1       4.330   5.611  18.457  0.00  0.00    +0.000 C 
ATOM      7  C   UNL     1       3.153   6.537  18.728  0.00  0.00    +0.000 C 
ATOM      8  C   UNL     1       2.821   7.596  17.942  0.00  0.00    +0.000 C 
ATOM      9  O   UNL     1       3.513   7.869  16.752  0.00  0.00    +0.000 OA
ATOM     10  H   UNL     1       5.106   7.719  14.504  0.00  0.00    +0.000 HD
ENDROOT
BRANCH   6  11
ATOM     11  C   UNL     1       3.940   4.152  18.464  0.00  0.00    +0.000 A 
ATOM     12  C   UNL     1       2.976   3.608  17.604  0.00  0.00    +0.000 A 
ATOM     13  C   UNL     1       2.609   2.274  17.734  0.00  0.00    +0.000 A 
ATOM     14  C   UNL     1       3.220   1.516  18.717  0.00  0.00    +0.000 A 
ATOM     15  N   UNL     1       4.158   1.996  19.560  0.00  0.00    +0.000 NA
ATOM     16  C   UNL     1       4.488   3.298  19.421  0.00  0.00    +0.000 A 
ENDBRANCH   6  11
BRANCH   8  17
ATOM     17  N   UNL     1       1.802   8.485  18.189  0.00  0.00    +0.000 N 
ATOM     18  H   UNL     1       1.466   9.030  17.400  0.00  0.00    +0.000 HD
ATOM     19  H   UNL     1       1.941   9.030  19.035  0.00  0.00    +0.000 HD
ENDBRANCH   8  17
BRANCH   1  21
ATOM     20  C   UNL     1       7.789   4.539  17.807  0.00  0.00    +0.000 C 
ATOM     21  C   UNL     1       6.870   4.242  16.632  0.00  0.00    +0.000 C 
ENDBRANCH   1  21
BRANCH   7  22
ATOM     22  C   UNL     1       2.270   6.191  19.916  0.00  0.00    +0.000 C 
ATOM     23  N   UNL     1       1.537   5.903  20.902  0.00  0.00    +0.000 NA
ENDBRANCH   7  22
TORSDOF 4
ENDMDL
MODEL 2
REMARK VINA RESULT:      -6.8      2.052      4.484
REMARK  Name = 
REMARK  5 active torsions:
REMARK  status: ('A' for Active; 'I' for Inactive)
REMARK    1  A    between atoms: C_1  and  C_2
REMARK    2  A    between atoms: C_2  and  C_3
REMARK    3  A    between atoms: C_8  and  C_9
REMARK    4  A    between atoms: C_15  and  C_16
REMARK    5  A    between atoms: C_18  and  N_19
REMARK                            x       y       z     vdW  Elec       q    Type
REMARK                         _______ _______ _______ _____ _____    ______ ____
ROOT
ATOM      1  C   UNL     1       3.118   2.837  20.108  0.00  0.00    +0.000 A 
ATOM      2  N   UNL     1       2.754   2.486  21.354  0.00  0.00    +0.000 NA
ATOM      3  N   UNL     1       2.206   3.604  21.870  0.00  0.00    +0.000 N 
ATOM      4  C   UNL     1       2.217   4.643  20.998  0.00  0.00    +0.000 A 
ATOM      5  C   UNL     1       2.826   4.197  19.851  0.00  0.00    +0.000 A 
ATOM      6  C   UNL     1       2.967   5.114  18.687  0.00  0.00    +0.000 C 
ATOM      7  C   UNL     1       2.510   6.514  19.074  0.00  0.00    +0.000 C 
ATOM      8  C   UNL     1       1.899   6.816  20.251  0.00  0.00    +0.000 C 
ATOM      9  O   UNL     1       1.713   5.847  21.249  0.00  0.00    +0.000 OA
ATOM     10  H   UNL     1       1.846   3.581  22.818  0.00  0.00    +0.000 HD
ENDROOT
BRANCH   6  11
ATOM     11  C   UNL     1       4.408   5.073  18.238  0.00  0.00    +0.000 A 
ATOM     12  C   UNL     1       4.798   4.798  16.921  0.00  0.00    +0.000 A 
ATOM     13  C   UNL     1       6.149   4.691  16.608  0.00  0.00    +0.000 A 
ATOM     14  C   UNL     1       7.075   4.868  17.621  0.00  0.00    +0.000 A 
ATOM     15  N   UNL     1       6.744   5.142  18.900  0.00  0.00    +0.000 NA
ATOM     16  C   UNL     1       5.426   5.229  19.180  0.00  0.00    +0.000 A 
ENDBRANCH   6  11
BRANCH   8  17
ATOM     17  N   UNL     1       1.423   8.055  20.607  0.00  0.00    +0.000 N 
ATOM     18  H   UNL     1       2.063   8.839  20.511  0.00  0.00    +0.000 HD
ATOM     19  H   UNL     1       0.907   8.051  21.482  0.00  0.00    +0.000 HD
ENDBRANCH   8  17
BRANCH   1  21
ATOM     20  C   UNL     1       2.944   1.702  17.892  0.00  0.00    +0.000 C 
ATOM     21  C   UNL     1       3.719   1.823  19.195  0.00  0.00    +0.000 C 
ENDBRANCH   1  21
BRANCH   7  22
ATOM     22  C   UNL     1       2.834   7.633  18.098  0.00  0.00    +0.000 C 
ATOM     23  N   UNL     1       3.103   8.561  17.287  0.00  0.00    +0.000 NA
ENDBRANCH   7  22
TORSDOF 4
ENDMDL
MODEL 3
REMARK VINA RESULT:      -6.6      0.644      1.079
REMARK  Name = 
REMARK  5 active torsions:
REMARK  status: ('A' for Active; 'I' for Inactive)
REMARK    1  A    between atoms: C_1  and  C_2
REMARK    2  A    between atoms: C_2  and  C_3
REMARK    3  A    between atoms: C_8  and  C_9
REMARK    4  A    between atoms: C_15  and  C_16
REMARK    5  A    between atoms: C_18  and  N_19
REMARK                            x       y       z     vdW  Elec       q    Type
REMARK                         _______ _______ _______ _____ _____    ______ ____
ROOT
ATOM      1  C   UNL     1       5.938   5.383  16.410  0.00  0.00    +0.000 A 
ATOM      2  N   UNL     1       6.090   6.026  15.240  0.00  0.00    +0.000 NA
ATOM      3  N   UNL     1       5.173   7.013  15.277  0.00  0.00    +0.000 N 
ATOM      4  C   UNL     1       4.447   7.010  16.423  0.00  0.00    +0.000 A 
ATOM      5  C   UNL     1       4.892   5.950  17.176  0.00  0.00    +0.000 A 
ATOM      6  C   UNL     1       4.298   5.697  18.517  0.00  0.00    +0.000 C 
ATOM      7  C   UNL     1       3.124   6.640  18.747  0.00  0.00    +0.000 C 
ATOM      8  C   UNL     1       2.801   7.669  17.919  0.00  0.00    +0.000 C 
ATOM      9  O   UNL     1       3.500   7.892  16.722  0.00  0.00    +0.000 OA
ATOM     10  H   UNL     1       5.102   7.647  14.489  0.00  0.00    +0.000 HD
ENDROOT
BRANCH   6  11
ATOM     11  C   UNL     1       3.899   4.242  18.579  0.00  0.00    +0.000 A 
ATOM     12  C   UNL     1       4.454   3.328  19.484  0.00  0.00    +0.000 A 
ATOM     13  C   UNL     1       4.098   1.986  19.417  0.00  0.00    +0.000 A 
ATOM     14  C   UNL     1       3.190   1.594  18.449  0.00  0.00    +0.000 A 
ATOM     15  N   UNL     1       2.625   2.441  17.564  0.00  0.00    +0.000 NA
ATOM     16  C   UNL     1       2.997   3.736  17.642  0.00  0.00    +0.000 A 
ENDBRANCH   6  11
BRANCH   8  17
ATOM     17  N   UNL     1       1.787   8.573  18.127  0.00  0.00    +0.000 N 
ATOM     18  H   UNL     1       1.913   9.503  17.738  0.00  0.00    +0.000 HD
ATOM     19  H   UNL     1       1.436   8.570  19.080  0.00  0.00    +0.000 HD
ENDBRANCH   8  17
BRANCH   1  21
ATOM     20  C   UNL     1       7.781   4.596  17.898  0.00  0.00    +0.000 C 
ATOM     21  C   UNL     1       6.838   4.246  16.758  0.00  0.00    +0.000 C 
ENDBRANCH   1  21
BRANCH   7  22
ATOM     22  C   UNL     1       2.234   6.344  19.944  0.00  0.00    +0.000 C 
ATOM     23  N   UNL     1       1.497   6.099  20.937  0.00  0.00    +0.000 NA
ENDBRANCH   7  22
TORSDOF 4
ENDMDL
MODEL 4
REMARK VINA RESULT:      -6.6      1.516      4.236
REMARK  Name = 
REMARK  5 active torsions:
REMARK  status: ('A' for Active; 'I' for Inactive)
REMARK    1  A    between atoms: C_1  and  C_2
REMARK    2  A    between atoms: C_2  and  C_3
REMARK    3  A    between atoms: C_8  and  C_9
REMARK    4  A    between atoms: C_15  and  C_16
REMARK    5  A    between atoms: C_18  and  N_19
REMARK                            x       y       z     vdW  Elec       q    Type
REMARK                         _______ _______ _______ _____ _____    ______ ____
ROOT
ATOM      1  C   UNL     1       1.727   5.180  19.866  0.00  0.00    +0.000 A 
ATOM      2  N   UNL     1       1.574   6.327  20.550  0.00  0.00    +0.000 NA
ATOM      3  N   UNL     1       2.392   7.200  19.929  0.00  0.00    +0.000 N 
ATOM      4  C   UNL     1       3.056   6.644  18.885  0.00  0.00    +0.000 A 
ATOM      5  C   UNL     1       2.676   5.324  18.826  0.00  0.00    +0.000 A 
ATOM      6  C   UNL     1       3.224   4.447  17.756  0.00  0.00    +0.000 C 
ATOM      7  C   UNL     1       4.291   5.197  16.970  0.00  0.00    +0.000 C 
ATOM      8  C   UNL     1       4.556   6.522  17.120  0.00  0.00    +0.000 C 
ATOM      9  O   UNL     1       3.900   7.294  18.092  0.00  0.00    +0.000 OA
ATOM     10  H   UNL     1       2.442   8.153  20.271  0.00  0.00    +0.000 HD
ENDROOT
BRANCH   6  11
ATOM     11  C   UNL     1       3.754   3.195  18.412  0.00  0.00    +0.000 A 
ATOM     12  C   UNL     1       3.366   1.902  18.033  0.00  0.00    +0.000 A 
ATOM     13  C   UNL     1       3.833   0.804  18.746  0.00  0.00    +0.000 A 
ATOM     14  C   UNL     1       4.680   1.027  19.818  0.00  0.00    +0.000 A 
ATOM     15  N   UNL     1       5.085   2.252  20.211  0.00  0.00    +0.000 NA
ATOM     16  C   UNL     1       4.608   3.303  19.510  0.00  0.00    +0.000 A 
ENDBRANCH   6  11
BRANCH   8  17
ATOM     17  N   UNL     1       5.469   7.241  16.387  0.00  0.00    +0.000 N 
ATOM     18  H   UNL     1       6.142   7.797  16.909  0.00  0.00    +0.000 HD
ATOM     19  H   UNL     1       5.056   7.730  15.598  0.00  0.00    +0.000 HD
ENDBRANCH   8  17
BRANCH   1  21
ATOM     20  C   UNL     1       1.538   3.220  21.398  0.00  0.00    +0.000 C 
ATOM     21  C   UNL     1       0.922   3.980  20.234  0.00  0.00    +0.000 C 
ENDBRANCH   1  21
BRANCH   7  22
ATOM     22  C   UNL     1       5.143   4.374  16.018  0.00  0.00    +0.000 C 
ATOM     23  N   UNL     1       5.850   3.691  15.228  0.00  0.00    +0.000 NA
ENDBRANCH   7  22
TORSDOF 4
ENDMDL
MODEL 5
REMARK VINA RESULT:      -6.5      1.854      4.626
REMARK  Name = 
REMARK  5 active torsions:
REMARK  status: ('A' for Active; 'I' for Inactive)
REMARK    1  A    between atoms: C_1  and  C_2
REMARK    2  A    between atoms: C_2  and  C_3
REMARK    3  A    between atoms: C_8  and  C_9
REMARK    4  A    between atoms: C_15  and  C_16
REMARK    5  A    between atoms: C_18  and  N_19
REMARK                            x       y       z     vdW  Elec       q    Type
REMARK                         _______ _______ _______ _____ _____    ______ ____
ROOT
ATOM      1  C   UNL     1       3.151   2.923  20.050  0.00  0.00    +0.000 A 
ATOM      2  N   UNL     1       2.823   2.532  21.293  0.00  0.00    +0.000 NA
ATOM      3  N   UNL     1       2.250   3.620  21.846  0.00  0.00    +0.000 N 
ATOM      4  C   UNL     1       2.212   4.679  20.999  0.00  0.00    +0.000 A 
ATOM      5  C   UNL     1       2.813   4.279  19.830  0.00  0.00    +0.000 A 
ATOM      6  C   UNL     1       2.902   5.226  18.686  0.00  0.00    +0.000 C 
ATOM      7  C   UNL     1       2.410   6.602  19.115  0.00  0.00    +0.000 C 
ATOM      8  C   UNL     1       1.812   6.857  20.309  0.00  0.00    +0.000 C 
ATOM      9  O   UNL     1       1.676   5.860  21.287  0.00  0.00    +0.000 OA
ATOM     10  H   UNL     1       1.909   3.564  22.799  0.00  0.00    +0.000 HD
ENDROOT
BRANCH   6  11
ATOM     11  C   UNL     1       4.335   5.241  18.210  0.00  0.00    +0.000 A 
ATOM     12  C   UNL     1       5.426   5.487  19.055  0.00  0.00    +0.000 A 
ATOM     13  C   UNL     1       6.707   5.572  18.523  0.00  0.00    +0.000 A 
ATOM     14  C   UNL     1       6.865   5.403  17.158  0.00  0.00    +0.000 A 
ATOM     15  N   UNL     1       5.845   5.156  16.310  0.00  0.00    +0.000 NA
ATOM     16  C   UNL     1       4.610   5.091  16.850  0.00  0.00    +0.000 A 
ENDBRANCH   6  11
BRANCH   8  17
ATOM     17  N   UNL     1       1.304   8.072  20.704  0.00  0.00    +0.000 N 
ATOM     18  H   UNL     1       1.230   8.237  21.704  0.00  0.00    +0.000 HD
ATOM     19  H   UNL     1       0.481   8.353  20.179  0.00  0.00    +0.000 HD
ENDBRANCH   8  17
BRANCH   1  21
ATOM     20  C   UNL     1       2.955   1.814  17.823  0.00  0.00    +0.000 C 
ATOM     21  C   UNL     1       3.766   1.950  19.102  0.00  0.00    +0.000 C 
ENDBRANCH   1  21
BRANCH   7  22
ATOM     22  C   UNL     1       2.679   7.753  18.159  0.00  0.00    +0.000 C 
ATOM     23  N   UNL     1       2.903   8.707  17.366  0.00  0.00    +0.000 NA
ENDBRANCH   7  22
TORSDOF 4
ENDMDL
MODEL 6
REMARK VINA RESULT:      -6.4      2.187      5.326
REMARK  Name = 
REMARK  5 active torsions:
REMARK  status: ('A' for Active; 'I' for Inactive)
REMARK    1  A    between atoms: C_1  and  C_2
REMARK    2  A    between atoms: C_2  and  C_3
REMARK    3  A    between atoms: C_8  and  C_9
REMARK    4  A    between atoms: C_15  and  C_16
REMARK    5  A    between atoms: C_18  and  N_19
REMARK                            x       y       z     vdW  Elec       q    Type
REMARK                         _______ _______ _______ _____ _____    ______ ____
ROOT
ATOM      1  C   UNL     1       1.821   3.303  19.196  0.00  0.00    +0.000 A 
ATOM      2  N   UNL     1       1.397   2.178  18.594  0.00  0.00    +0.000 NA
ATOM      3  N   UNL     1       2.324   1.935  17.645  0.00  0.00    +0.000 N 
ATOM      4  C   UNL     1       3.309   2.868  17.626  0.00  0.00    +0.000 A 
ATOM      5  C   UNL     1       3.006   3.791  18.598  0.00  0.00    +0.000 A 
ATOM      6  C   UNL     1       3.926   4.936  18.839  0.00  0.00    +0.000 C 
ATOM      7  C   UNL     1       5.024   4.947  17.784  0.00  0.00    +0.000 C 
ATOM      8  C   UNL     1       5.222   3.949  16.882  0.00  0.00    +0.000 C 
ATOM      9  O   UNL     1       4.356   2.847  16.808  0.00  0.00    +0.000 OA
ATOM     10  H   UNL     1       2.219   1.119  17.054  0.00  0.00    +0.000 HD
ENDROOT
BRANCH   6  11
ATOM     11  C   UNL     1       3.099   6.200  18.834  0.00  0.00    +0.000 A 
ATOM     12  C   UNL     1       2.854   6.956  17.680  0.00  0.00    +0.000 A 
ATOM     13  C   UNL     1       2.158   8.156  17.775  0.00  0.00    +0.000 A 
ATOM     14  C   UNL     1       1.719   8.565  19.022  0.00  0.00    +0.000 A 
ATOM     15  N   UNL     1       1.925   7.864  20.156  0.00  0.00    +0.000 NA
ATOM     16  C   UNL     1       2.614   6.709  20.039  0.00  0.00    +0.000 A 
ENDBRANCH   6  11
BRANCH   8  17
ATOM     17  N   UNL     1       6.237   3.899  15.957  0.00  0.00    +0.000 N 
ATOM     18  H   UNL     1       5.967   3.898  14.977  0.00  0.00    +0.000 HD
ATOM     19  H   UNL     1       6.956   3.219  16.186  0.00  0.00    +0.000 HD
ENDBRANCH   8  17
BRANCH   1  21
ATOM     20  C   UNL     1       1.466   3.189  21.663  0.00  0.00    +0.000 C 
ATOM     21  C   UNL     1       1.065   3.856  20.356  0.00  0.00    +0.000 C 
ENDBRANCH   1  21
BRANCH   7  22
ATOM     22  C   UNL     1       5.892   6.193  17.713  0.00  0.00    +0.000 C 
ATOM     23  N   UNL     1       6.612   7.227  17.654  0.00  0.00    +0.000 NA
ENDBRANCH   7  22
TORSDOF 4
ENDMDL
MODEL 7
REMARK VINA RESULT:      -6.2      2.478      4.548
REMARK  Name = 
REMARK  5 active torsions:
REMARK  status: ('A' for Active; 'I' for Inactive)
REMARK    1  A    between atoms: C_1  and  C_2
REMARK    2  A    between atoms: C_2  and  C_3
REMARK    3  A    between atoms: C_8  and  C_9
REMARK    4  A    between atoms: C_15  and  C_16
REMARK    5  A    between atoms: C_18  and  N_19
REMARK                            x       y       z     vdW  Elec       q    Type
REMARK                         _______ _______ _______ _____ _____    ______ ____
ROOT
ATOM      1  C   UNL     1       6.615   6.572  18.061  0.00  0.00    +0.000 A 
ATOM      2  N   UNL     1       7.726   6.153  18.691  0.00  0.00    +0.000 NA
ATOM      3  N   UNL     1       7.439   4.893  19.075  0.00  0.00    +0.000 N 
ATOM      4  C   UNL     1       6.189   4.508  18.715  0.00  0.00    +0.000 A 
ATOM      5  C   UNL     1       5.608   5.578  18.079  0.00  0.00    +0.000 A 
ATOM      6  C   UNL     1       4.227   5.453  17.539  0.00  0.00    +0.000 C 
ATOM      7  C   UNL     1       3.627   4.118  17.959  0.00  0.00    +0.000 C 
ATOM      8  C   UNL     1       4.328   3.130  18.576  0.00  0.00    +0.000 C 
ATOM      9  O   UNL     1       5.670   3.308  18.948  0.00  0.00    +0.000 OA
ATOM     10  H   UNL     1       8.143   4.360  19.574  0.00  0.00    +0.000 HD
ENDROOT
BRANCH   6  11
ATOM     11  C   UNL     1       3.428   6.635  18.036  0.00  0.00    +0.000 A 
ATOM     12  C   UNL     1       2.858   6.696  19.315  0.00  0.00    +0.000 A 
ATOM     13  C   UNL     1       2.063   7.781  19.665  0.00  0.00    +0.000 A 
ATOM     14  C   UNL     1       1.862   8.780  18.728  0.00  0.00    +0.000 A 
ATOM     15  N   UNL     1       2.398   8.765  17.490  0.00  0.00    +0.000 NA
ATOM     16  C   UNL     1       3.157   7.695  17.171  0.00  0.00    +0.000 A 
ENDBRANCH   6  11
BRANCH   8  17
ATOM     17  N   UNL     1       3.834   1.893  18.915  0.00  0.00    +0.000 N 
ATOM     18  H   UNL     1       3.796   1.669  19.906  0.00  0.00    +0.000 HD
ATOM     19  H   UNL     1       4.200   1.142  18.338  0.00  0.00    +0.000 HD
ENDBRANCH   8  17
BRANCH   1  21
ATOM     20  C   UNL     1       7.861   8.703  17.694  0.00  0.00    +0.000 C 
ATOM     21  C   UNL     1       6.579   7.926  17.437  0.00  0.00    +0.000 C 
ENDBRANCH   1  21
BRANCH   7  22
ATOM     22  C   UNL     1       2.136   3.935  17.727  0.00  0.00    +0.000 C 
ATOM     23  N   UNL     1       0.899   3.784  17.534  0.00  0.00    +0.000 NA
ENDBRANCH   7  22
TORSDOF 4
ENDMDL
MODEL 8
REMARK VINA RESULT:      -6.2      2.486      4.461
REMARK  Name = 
REMARK  5 active torsions:
REMARK  status: ('A' for Active; 'I' for Inactive)
REMARK    1  A    between atoms: C_1  and  C_2
REMARK    2  A    between atoms: C_2  and  C_3
REMARK    3  A    between atoms: C_8  and  C_9
REMARK    4  A    between atoms: C_15  and  C_16
REMARK    5  A    between atoms: C_18  and  N_19
REMARK                            x       y       z     vdW  Elec       q    Type
REMARK                         _______ _______ _______ _____ _____    ______ ____
ROOT
ATOM      1  C   UNL     1       6.472   6.530  18.164  0.00  0.00    +0.000 A 
ATOM      2  N   UNL     1       7.572   6.166  18.846  0.00  0.00    +0.000 NA
ATOM      3  N   UNL     1       7.289   4.929  19.302  0.00  0.00    +0.000 N 
ATOM      4  C   UNL     1       6.053   4.506  18.936  0.00  0.00    +0.000 A 
ATOM      5  C   UNL     1       5.477   5.527  18.219  0.00  0.00    +0.000 A 
ATOM      6  C   UNL     1       4.111   5.351  17.654  0.00  0.00    +0.000 C 
ATOM      7  C   UNL     1       3.516   4.037  18.143  0.00  0.00    +0.000 C 
ATOM      8  C   UNL     1       4.212   3.098  18.837  0.00  0.00    +0.000 C 
ATOM      9  O   UNL     1       5.542   3.316  19.231  0.00  0.00    +0.000 OA
ATOM     10  H   UNL     1       7.986   4.437  19.850  0.00  0.00    +0.000 HD
ENDROOT
BRANCH   6  11
ATOM     11  C   UNL     1       3.287   6.551  18.057  0.00  0.00    +0.000 A 
ATOM     12  C   UNL     1       3.030   7.631  17.203  0.00  0.00    +0.000 A 
ATOM     13  C   UNL     1       2.337   8.739  17.679  0.00  0.00    +0.000 A 
ATOM     14  C   UNL     1       1.913   8.733  18.996  0.00  0.00    +0.000 A 
ATOM     15  N   UNL     1       2.131   7.711  19.850  0.00  0.00    +0.000 NA
ATOM     16  C   UNL     1       2.817   6.654  19.367  0.00  0.00    +0.000 A 
ENDBRANCH   6  11
BRANCH   8  17
ATOM     17  N   UNL     1       3.723   1.879  19.241  0.00  0.00    +0.000 N 
ATOM     18  H   UNL     1       2.764   1.856  19.575  0.00  0.00    +0.000 HD
ATOM     19  H   UNL     1       4.374   1.359  19.823  0.00  0.00    +0.000 HD
ENDBRANCH   8  17
BRANCH   1  21
ATOM     20  C   UNL     1       7.747   8.601  17.602  0.00  0.00    +0.000 C 
ATOM     21  C   UNL     1       6.437   7.842  17.456  0.00  0.00    +0.000 C 
ENDBRANCH   1  21
BRANCH   7  22
ATOM     22  C   UNL     1       2.033   3.821  17.885  0.00  0.00    +0.000 C 
ATOM     23  N   UNL     1       0.804   3.642  17.671  0.00  0.00    +0.000 NA
ENDBRANCH   7  22
TORSDOF 4
ENDMDL
MODEL 9
REMARK VINA RESULT:      -6.1      2.202      5.386
REMARK  Name = 
REMARK  5 active torsions:
REMARK  status: ('A' for Active; 'I' for Inactive)
REMARK    1  A    between atoms: C_1  and  C_2
REMARK    2  A    between atoms: C_2  and  C_3
REMARK    3  A    between atoms: C_8  and  C_9
REMARK    4  A    between atoms: C_15  and  C_16
REMARK    5  A    between atoms: C_18  and  N_19
REMARK                            x       y       z     vdW  Elec       q    Type
REMARK                         _______ _______ _______ _____ _____    ______ ____
ROOT
ATOM      1  C   UNL     1       1.819   3.290  19.239  0.00  0.00    +0.000 A 
ATOM      2  N   UNL     1       1.333   2.216  18.593  0.00  0.00    +0.000 NA
ATOM      3  N   UNL     1       2.235   1.973  17.621  0.00  0.00    +0.000 N 
ATOM      4  C   UNL     1       3.264   2.857  17.629  0.00  0.00    +0.000 A 
ATOM      5  C   UNL     1       3.019   3.748  18.647  0.00  0.00    +0.000 A 
ATOM      6  C   UNL     1       3.997   4.835  18.925  0.00  0.00    +0.000 C 
ATOM      7  C   UNL     1       5.080   4.841  17.855  0.00  0.00    +0.000 C 
ATOM      8  C   UNL     1       5.217   3.878  16.905  0.00  0.00    +0.000 C 
ATOM      9  O   UNL     1       4.297   2.823  16.795  0.00  0.00    +0.000 OA
ATOM     10  H   UNL     1       2.082   1.191  16.995  0.00  0.00    +0.000 HD
ENDROOT
BRANCH   6  11
ATOM     11  C   UNL     1       3.233   6.136  18.990  0.00  0.00    +0.000 A 
ATOM     12  C   UNL     1       2.660   6.636  20.167  0.00  0.00    +0.000 A 
ATOM     13  C   UNL     1       1.896   7.797  20.125  0.00  0.00    +0.000 A 
ATOM     14  C   UNL     1       1.730   8.432  18.907  0.00  0.00    +0.000 A 
ATOM     15  N   UNL     1       2.271   7.991  17.752  0.00  0.00    +0.000 NA
ATOM     16  C   UNL     1       2.997   6.855  17.817  0.00  0.00    +0.000 A 
ENDBRANCH   6  11
BRANCH   8  17
ATOM     17  N   UNL     1       6.217   3.822  15.963  0.00  0.00    +0.000 N 
ATOM     18  H   UNL     1       6.565   4.709  15.609  0.00  0.00    +0.000 HD
ATOM     19  H   UNL     1       6.049   3.128  15.241  0.00  0.00    +0.000 HD
ENDBRANCH   8  17
BRANCH   1  21
ATOM     20  C   UNL     1       1.502   3.090  21.706  0.00  0.00    +0.000 C 
ATOM     21  C   UNL     1       1.106   3.825  20.435  0.00  0.00    +0.000 C 
ENDBRANCH   1  21
BRANCH   7  22
ATOM     22  C   UNL     1       6.006   6.047  17.827  0.00  0.00    +0.000 C 
ATOM     23  N   UNL     1       6.776   7.046  17.804  0.00  0.00    +0.000 NA
ENDBRANCH   7  22
TORSDOF 4
ENDMDL
