MODEL 1
REMARK VINA RESULT:      -9.3      0.000      0.000
REMARK  Name = 
REMARK  5 active torsions:
REMARK  status: ('A' for Active; 'I' for Inactive)
REMARK    1  A    between atoms: C_2  and  C_3
REMARK    2  A    between atoms: C_2  and  C_11
REMARK    3  A    between atoms: C_3  and  C_4
REMARK    4  A    between atoms: N_14  and  C_15
REMARK    5  A    between atoms: C_15  and  C_16
REMARK                            x       y       z     vdW  Elec       q    Type
REMARK                         _______ _______ _______ _____ _____    ______ ____
ROOT
ATOM      1  C   UNL     1       6.980   6.864  16.946  0.00  0.00    +0.000 C 
ATOM      2  C   UNL     1       5.475   6.941  17.315  0.00  0.00    +0.000 C 
ATOM      3  C   UNL     1       5.011   5.928  18.375  0.00  0.00    +0.000 C 
ATOM      4  N   UNL     1       5.279   4.521  18.082  0.00  0.00    +0.000 NA
ATOM      5  C   UNL     1       6.622   4.259  17.599  0.00  0.00    +0.000 C 
ATOM      6  C   UNL     1       7.100   5.309  16.587  0.00  0.00    +0.000 C 
ENDROOT
BRANCH   1   8
ATOM      7  O   UNL     1       8.564   7.494  18.849  0.00  0.00    +0.000 OA
ATOM      8  C   UNL     1       7.902   8.016  17.955  0.00  0.00    +0.000 C 
BRANCH   8   9
ATOM      9  C   UNL     1       8.074   9.710  17.807  0.00  0.00    +0.000 C 
BRANCH   9  10
ATOM     10  C   UNL     1       9.284  10.476  18.440  0.00  0.00    +0.000 A 
ATOM     11  C   UNL     1      10.250  11.182  17.668  0.00  0.00    +0.000 A 
ATOM     12  C   UNL     1      11.290  11.935  18.259  0.00  0.00    +0.000 A 
ATOM     13  C   UNL     1      11.337  12.034  19.655  0.00  0.00    +0.000 A 
ATOM     14  F   UNL     1      12.325  12.733  20.225  0.00  0.00    +0.000 F 
ATOM     15  C   UNL     1      10.385  11.401  20.418  0.00  0.00    +0.000 A 
ATOM     16  C   UNL     1       9.360  10.641  19.831  0.00  0.00    +0.000 A 
ENDBRANCH   9  10
ENDBRANCH   8   9
ENDBRANCH   1   8
BRANCH   4  17
ATOM     17  C   UNL     1       4.884   3.593  19.173  0.00  0.00    +0.000 C 
BRANCH  17  18
ATOM     18  C   UNL     1       3.399   3.288  19.293  0.00  0.00    +0.000 A 
ATOM     19  C   UNL     1       2.804   3.158  20.558  0.00  0.00    +0.000 A 
ATOM     20  C   UNL     1       1.451   2.836  20.683  0.00  0.00    +0.000 A 
ATOM     21  C   UNL     1       0.667   2.665  19.546  0.00  0.00    +0.000 A 
ATOM     22  C   UNL     1       1.238   2.802  18.283  0.00  0.00    +0.000 A 
ATOM     23  C   UNL     1       2.595   3.110  18.156  0.00  0.00    +0.000 A 
ENDBRANCH  17  18
ENDBRANCH   4  17
TORSDOF 5
ENDMDL
MODEL 2
REMARK VINA RESULT:      -9.1      4.247      7.401
REMARK  Name = 
REMARK  5 active torsions:
REMARK  status: ('A' for Active; 'I' for Inactive)
REMARK    1  A    between atoms: C_2  and  C_3
REMARK    2  A    between atoms: C_2  and  C_11
REMARK    3  A    between atoms: C_3  and  C_4
REMARK    4  A    between atoms: N_14  and  C_15
REMARK    5  A    between atoms: C_15  and  C_16
REMARK                            x       y       z     vdW  Elec       q    Type
REMARK                         _______ _______ _______ _____ _____    ______ ____
ROOT
ATOM      1  C   UNL     1       2.314   2.495  19.504  0.00  0.00    +0.000 C 
ATOM      2  C   UNL     1       3.859   2.348  19.476  0.00  0.00    +0.000 C 
ATOM      3  C   UNL     1       4.590   3.322  18.536  0.00  0.00    +0.000 C 
ATOM      4  N   UNL     1       4.161   3.310  17.138  0.00  0.00    +0.000 NA
ATOM      5  C   UNL     1       2.721   3.321  16.956  0.00  0.00    +0.000 C 
ATOM      6  C   UNL     1       1.996   2.393  17.939  0.00  0.00    +0.000 C 
ENDROOT
BRANCH   1   8
ATOM      7  O   UNL     1       1.085   3.094  21.661  0.00  0.00    +0.000 OA
ATOM      8  C   UNL     1       1.843   3.592  20.833  0.00  0.00    +0.000 C 
BRANCH   8   9
ATOM      9  C   UNL     1       2.358   5.186  21.175  0.00  0.00    +0.000 C 
BRANCH   9  10
ATOM     10  C   UNL     1       2.119   6.365  20.174  0.00  0.00    +0.000 A 
ATOM     11  C   UNL     1       1.564   7.617  20.562  0.00  0.00    +0.000 A 
ATOM     12  C   UNL     1       1.429   8.699  19.662  0.00  0.00    +0.000 A 
ATOM     13  C   UNL     1       1.909   8.548  18.355  0.00  0.00    +0.000 A 
ATOM     14  F   UNL     1       1.774   9.560  17.491  0.00  0.00    +0.000 F 
ATOM     15  C   UNL     1       2.493   7.365  17.973  0.00  0.00    +0.000 A 
ATOM     16  C   UNL     1       2.614   6.285  18.864  0.00  0.00    +0.000 A 
ENDBRANCH   9  10
ENDBRANCH   8   9
ENDBRANCH   1   8
BRANCH   4  17
ATOM     17  C   UNL     1       4.842   4.324  16.292  0.00  0.00    +0.000 C 
BRANCH  17  18
ATOM     18  C   UNL     1       5.892   5.182  16.981  0.00  0.00    +0.000 A 
ATOM     19  C   UNL     1       6.906   4.583  17.743  0.00  0.00    +0.000 A 
ATOM     20  C   UNL     1       7.852   5.360  18.415  0.00  0.00    +0.000 A 
ATOM     21  C   UNL     1       7.811   6.748  18.314  0.00  0.00    +0.000 A 
ATOM     22  C   UNL     1       6.818   7.360  17.552  0.00  0.00    +0.000 A 
ATOM     23  C   UNL     1       5.864   6.583  16.890  0.00  0.00    +0.000 A 
ENDBRANCH  17  18
ENDBRANCH   4  17
TORSDOF 5
ENDMDL
MODEL 3
REMARK VINA RESULT:      -9.1      4.166      7.402
REMARK  Name = 
REMARK  5 active torsions:
REMARK  status: ('A' for Active; 'I' for Inactive)
REMARK    1  A    between atoms: C_2  and  C_3
REMARK    2  A    between atoms: C_2  and  C_11
REMARK    3  A    between atoms: C_3  and  C_4
REMARK    4  A    between atoms: N_14  and  C_15
REMARK    5  A    between atoms: C_15  and  C_16
REMARK                            x       y       z     vdW  Elec       q    Type
REMARK                         _______ _______ _______ _____ _____    ______ ____
ROOT
ATOM      1  C   UNL     1       2.422   2.467  19.458  0.00  0.00    +0.000 C 
ATOM      2  C   UNL     1       3.972   2.455  19.541  0.00  0.00    +0.000 C 
ATOM      3  C   UNL     1       4.682   3.458  18.615  0.00  0.00    +0.000 C 
ATOM      4  N   UNL     1       4.356   3.362  17.193  0.00  0.00    +0.000 NA
ATOM      5  C   UNL     1       2.937   3.241  16.914  0.00  0.00    +0.000 C 
ATOM      6  C   UNL     1       2.226   2.285  17.880  0.00  0.00    +0.000 C 
ENDROOT
BRANCH   1   8
ATOM      7  O   UNL     1       0.859   3.081  21.383  0.00  0.00    +0.000 OA
ATOM      8  C   UNL     1       1.766   3.562  20.708  0.00  0.00    +0.000 C 
BRANCH   8   9
ATOM      9  C   UNL     1       2.269   5.130  21.167  0.00  0.00    +0.000 C 
BRANCH   9  10
ATOM     10  C   UNL     1       2.227   6.337  20.170  0.00  0.00    +0.000 A 
ATOM     11  C   UNL     1       2.615   6.233  18.804  0.00  0.00    +0.000 A 
ATOM     12  C   UNL     1       2.495   7.311  17.898  0.00  0.00    +0.000 A 
ATOM     13  C   UNL     1       1.922   8.507  18.350  0.00  0.00    +0.000 A 
ATOM     14  F   UNL     1       1.816   9.538  17.504  0.00  0.00    +0.000 F 
ATOM     15  C   UNL     1       1.495   8.612  19.651  0.00  0.00    +0.000 A 
ATOM     16  C   UNL     1       1.628   7.545  20.556  0.00  0.00    +0.000 A 
ENDBRANCH   9  10
ENDBRANCH   8   9
ENDBRANCH   1   8
BRANCH   4  17
ATOM     17  C   UNL     1       5.006   4.403  16.356  0.00  0.00    +0.000 C 
BRANCH  17  18
ATOM     18  C   UNL     1       6.003   5.310  17.061  0.00  0.00    +0.000 A 
ATOM     19  C   UNL     1       5.981   6.695  16.837  0.00  0.00    +0.000 A 
ATOM     20  C   UNL     1       6.917   7.534  17.445  0.00  0.00    +0.000 A 
ATOM     21  C   UNL     1       7.873   7.004  18.305  0.00  0.00    +0.000 A 
ATOM     22  C   UNL     1       7.903   5.632  18.549  0.00  0.00    +0.000 A 
ATOM     23  C   UNL     1       6.975   4.790  17.930  0.00  0.00    +0.000 A 
ENDBRANCH  17  18
ENDBRANCH   4  17
TORSDOF 5
ENDMDL
MODEL 4
REMARK VINA RESULT:      -9.0      1.036      1.316
REMARK  Name = 
REMARK  5 active torsions:
REMARK  status: ('A' for Active; 'I' for Inactive)
REMARK    1  A    between atoms: C_2  and  C_3
REMARK    2  A    between atoms: C_2  and  C_11
REMARK    3  A    between atoms: C_3  and  C_4
REMARK    4  A    between atoms: N_14  and  C_15
REMARK    5  A    between atoms: C_15  and  C_16
REMARK                            x       y       z     vdW  Elec       q    Type
REMARK                         _______ _______ _______ _____ _____    ______ ____
ROOT
ATOM      1  C   UNL     1       6.985   6.265  17.350  0.00  0.00    +0.000 C 
ATOM      2  C   UNL     1       5.875   6.899  16.471  0.00  0.00    +0.000 C 
ATOM      3  C   UNL     1       4.506   7.047  17.155  0.00  0.00    +0.000 C 
ATOM      4  N   UNL     1       3.927   5.824  17.710  0.00  0.00    +0.000 NA
ATOM      5  C   UNL     1       4.860   5.019  18.478  0.00  0.00    +0.000 C 
ATOM      6  C   UNL     1       6.241   4.927  17.817  0.00  0.00    +0.000 C 
ENDROOT
BRANCH   1   8
ATOM      7  O   UNL     1       8.616   7.174  19.094  0.00  0.00    +0.000 OA
ATOM      8  C   UNL     1       7.914   7.558  18.161  0.00  0.00    +0.000 C 
BRANCH   8   9
ATOM      9  C   UNL     1       8.047   9.219  17.779  0.00  0.00    +0.000 C 
BRANCH   9  10
ATOM     10  C   UNL     1       9.115  10.140  18.457  0.00  0.00    +0.000 A 
ATOM     11  C   UNL     1      10.044  10.929  17.721  0.00  0.00    +0.000 A 
ATOM     12  C   UNL     1      10.949  11.817  18.347  0.00  0.00    +0.000 A 
ATOM     13  C   UNL     1      10.890  11.964  19.738  0.00  0.00    +0.000 A 
ATOM     14  F   UNL     1      11.751  12.791  20.342  0.00  0.00    +0.000 F 
ATOM     15  C   UNL     1       9.968  11.249  20.464  0.00  0.00    +0.000 A 
ATOM     16  C   UNL     1       9.078  10.356  19.842  0.00  0.00    +0.000 A 
ENDBRANCH   9  10
ENDBRANCH   8   9
ENDBRANCH   1   8
BRANCH   4  17
ATOM     17  C   UNL     1       2.645   6.038  18.429  0.00  0.00    +0.000 C 
BRANCH  17  18
ATOM     18  C   UNL     1       2.054   4.824  19.129  0.00  0.00    +0.000 A 
ATOM     19  C   UNL     1       2.109   4.718  20.528  0.00  0.00    +0.000 A 
ATOM     20  C   UNL     1       1.608   3.590  21.181  0.00  0.00    +0.000 A 
ATOM     21  C   UNL     1       1.022   2.563  20.447  0.00  0.00    +0.000 A 
ATOM     22  C   UNL     1       0.949   2.656  19.059  0.00  0.00    +0.000 A 
ATOM     23  C   UNL     1       1.462   3.779  18.403  0.00  0.00    +0.000 A 
ENDBRANCH  17  18
ENDBRANCH   4  17
TORSDOF 5
ENDMDL
MODEL 5
REMARK VINA RESULT:      -8.9      4.032      7.468
REMARK  Name = 
REMARK  5 active torsions:
REMARK  status: ('A' for Active; 'I' for Inactive)
REMARK    1  A    between atoms: C_2  and  C_3
REMARK    2  A    between atoms: C_2  and  C_11
REMARK    3  A    between atoms: C_3  and  C_4
REMARK    4  A    between atoms: N_14  and  C_15
REMARK    5  A    between atoms: C_15  and  C_16
REMARK                            x       y       z     vdW  Elec       q    Type
REMARK                         _______ _______ _______ _____ _____    ______ ____
ROOT
ATOM      1  C   UNL     1       2.771   2.397  19.628  0.00  0.00    +0.000 C 
ATOM      2  C   UNL     1       4.299   2.597  19.813  0.00  0.00    +0.000 C 
ATOM      3  C   UNL     1       4.935   3.650  18.889  0.00  0.00    +0.000 C 
ATOM      4  N   UNL     1       4.729   3.456  17.455  0.00  0.00    +0.000 NA
ATOM      5  C   UNL     1       3.361   3.134  17.088  0.00  0.00    +0.000 C 
ATOM      6  C   UNL     1       2.714   2.130  18.050  0.00  0.00    +0.000 C 
ENDROOT
BRANCH   1   8
ATOM      7  O   UNL     1       0.987   2.877  21.391  0.00  0.00    +0.000 OA
ATOM      8  C   UNL     1       1.889   3.442  20.777  0.00  0.00    +0.000 C 
BRANCH   8   9
ATOM      9  C   UNL     1       2.168   5.070  21.218  0.00  0.00    +0.000 C 
BRANCH   9  10
ATOM     10  C   UNL     1       2.060   6.237  20.181  0.00  0.00    +0.000 A 
ATOM     11  C   UNL     1       1.623   7.548  20.525  0.00  0.00    +0.000 A 
ATOM     12  C   UNL     1       1.607   8.611  19.594  0.00  0.00    +0.000 A 
ATOM     13  C   UNL     1       2.092   8.377  18.301  0.00  0.00    +0.000 A 
ATOM     14  F   UNL     1       2.070   9.373  17.408  0.00  0.00    +0.000 F 
ATOM     15  C   UNL     1       2.565   7.133  17.962  0.00  0.00    +0.000 A 
ATOM     16  C   UNL     1       2.567   6.072  18.884  0.00  0.00    +0.000 A 
ENDBRANCH   9  10
ENDBRANCH   8   9
ENDBRANCH   1   8
BRANCH   4  17
ATOM     17  C   UNL     1       5.295   4.542  16.614  0.00  0.00    +0.000 C 
BRANCH  17  18
ATOM     18  C   UNL     1       6.257   5.497  17.303  0.00  0.00    +0.000 A 
ATOM     19  C   UNL     1       6.276   6.857  16.953  0.00  0.00    +0.000 A 
ATOM     20  C   UNL     1       7.183   7.736  17.548  0.00  0.00    +0.000 A 
ATOM     21  C   UNL     1       8.066   7.275  18.519  0.00  0.00    +0.000 A 
ATOM     22  C   UNL     1       8.054   5.931  18.887  0.00  0.00    +0.000 A 
ATOM     23  C   UNL     1       7.156   5.047  18.282  0.00  0.00    +0.000 A 
ENDBRANCH  17  18
ENDBRANCH   4  17
TORSDOF 5
ENDMDL
MODEL 6
REMARK VINA RESULT:      -8.9      5.577      7.649
REMARK  Name = 
REMARK  5 active torsions:
REMARK  status: ('A' for Active; 'I' for Inactive)
REMARK    1  A    between atoms: C_2  and  C_3
REMARK    2  A    between atoms: C_2  and  C_11
REMARK    3  A    between atoms: C_3  and  C_4
REMARK    4  A    between atoms: N_14  and  C_15
REMARK    5  A    between atoms: C_15  and  C_16
REMARK                            x       y       z     vdW  Elec       q    Type
REMARK                         _______ _______ _______ _____ _____    ______ ____
ROOT
ATOM      1  C   UNL     1       2.567   2.481  19.234  0.00  0.00    +0.000 C 
ATOM      2  C   UNL     1       4.117   2.486  19.306  0.00  0.00    +0.000 C 
ATOM      3  C   UNL     1       4.803   3.614  18.516  0.00  0.00    +0.000 C 
ATOM      4  N   UNL     1       4.469   3.698  17.095  0.00  0.00    +0.000 NA
ATOM      5  C   UNL     1       3.050   3.589  16.809  0.00  0.00    +0.000 C 
ATOM      6  C   UNL     1       2.362   2.503  17.646  0.00  0.00    +0.000 C 
ENDROOT
BRANCH   1   8
ATOM      7  O   UNL     1       1.128   2.751  21.327  0.00  0.00    +0.000 OA
ATOM      8  C   UNL     1       1.902   3.391  20.619  0.00  0.00    +0.000 C 
BRANCH   8   9
ATOM      9  C   UNL     1       2.248   4.976  21.159  0.00  0.00    +0.000 C 
BRANCH   9  10
ATOM     10  C   UNL     1       2.058   6.225  20.234  0.00  0.00    +0.000 A 
ATOM     11  C   UNL     1       1.507   7.456  20.689  0.00  0.00    +0.000 A 
ATOM     12  C   UNL     1       1.416   8.598  19.862  0.00  0.00    +0.000 A 
ATOM     13  C   UNL     1       1.938   8.530  18.564  0.00  0.00    +0.000 A 
ATOM     14  F   UNL     1       1.846   9.601  17.767  0.00  0.00    +0.000 F 
ATOM     15  C   UNL     1       2.519   7.366  18.120  0.00  0.00    +0.000 A 
ATOM     16  C   UNL     1       2.595   6.226  18.938  0.00  0.00    +0.000 A 
ENDBRANCH   9  10
ENDBRANCH   8   9
ENDBRANCH   1   8
BRANCH   4  17
ATOM     17  C   UNL     1       5.095   4.851  16.398  0.00  0.00    +0.000 C 
BRANCH  17  18
ATOM     18  C   UNL     1       5.729   4.559  15.047  0.00  0.00    +0.000 A 
ATOM     19  C   UNL     1       6.986   5.096  14.725  0.00  0.00    +0.000 A 
ATOM     20  C   UNL     1       7.561   4.870  13.473  0.00  0.00    +0.000 A 
ATOM     21  C   UNL     1       6.901   4.084  12.534  0.00  0.00    +0.000 A 
ATOM     22  C   UNL     1       5.657   3.534  12.840  0.00  0.00    +0.000 A 
ATOM     23  C   UNL     1       5.075   3.770  14.088  0.00  0.00    +0.000 A 
ENDBRANCH  17  18
ENDBRANCH   4  17
TORSDOF 5
ENDMDL
MODEL 7
REMARK VINA RESULT:      -8.8      5.415      7.616
REMARK  Name = 
REMARK  5 active torsions:
REMARK  status: ('A' for Active; 'I' for Inactive)
REMARK    1  A    between atoms: C_2  and  C_3
REMARK    2  A    between atoms: C_2  and  C_11
REMARK    3  A    between atoms: C_3  and  C_4
REMARK    4  A    between atoms: N_14  and  C_15
REMARK    5  A    between atoms: C_15  and  C_16
REMARK                            x       y       z     vdW  Elec       q    Type
REMARK                         _______ _______ _______ _____ _____    ______ ____
ROOT
ATOM      1  C   UNL     1       3.362   2.243  19.577  0.00  0.00    +0.000 C 
ATOM      2  C   UNL     1       4.826   2.758  19.571  0.00  0.00    +0.000 C 
ATOM      3  C   UNL     1       5.100   3.933  18.616  0.00  0.00    +0.000 C 
ATOM      4  N   UNL     1       4.746   3.718  17.214  0.00  0.00    +0.000 NA
ATOM      5  C   UNL     1       3.439   3.120  17.015  0.00  0.00    +0.000 C 
ATOM      6  C   UNL     1       3.149   1.990  18.011  0.00  0.00    +0.000 C 
ENDROOT
BRANCH   1   8
ATOM      7  O   UNL     1       2.687   2.655  22.006  0.00  0.00    +0.000 OA
ATOM      8  C   UNL     1       2.446   3.064  20.873  0.00  0.00    +0.000 C 
BRANCH   8   9
ATOM      9  C   UNL     1       1.363   4.384  20.784  0.00  0.00    +0.000 C 
BRANCH   9  10
ATOM     10  C   UNL     1       1.743   5.717  20.058  0.00  0.00    +0.000 A 
ATOM     11  C   UNL     1       2.133   5.776  18.690  0.00  0.00    +0.000 A 
ATOM     12  C   UNL     1       2.395   6.997  18.028  0.00  0.00    +0.000 A 
ATOM     13  C   UNL     1       2.210   8.194  18.730  0.00  0.00    +0.000 A 
ATOM     14  F   UNL     1       2.469   9.355  18.117  0.00  0.00    +0.000 F 
ATOM     15  C   UNL     1       1.787   8.163  20.037  0.00  0.00    +0.000 A 
ATOM     16  C   UNL     1       1.540   6.948  20.699  0.00  0.00    +0.000 A 
ENDBRANCH   9  10
ENDBRANCH   8   9
ENDBRANCH   1   8
BRANCH   4  17
ATOM     17  C   UNL     1       4.956   4.910  16.352  0.00  0.00    +0.000 C 
BRANCH  17  18
ATOM     18  C   UNL     1       5.681   4.671  15.037  0.00  0.00    +0.000 A 
ATOM     19  C   UNL     1       5.084   3.895  14.030  0.00  0.00    +0.000 A 
ATOM     20  C   UNL     1       5.756   3.633  12.835  0.00  0.00    +0.000 A 
ATOM     21  C   UNL     1       7.024   4.164  12.617  0.00  0.00    +0.000 A 
ATOM     22  C   UNL     1       7.627   4.946  13.599  0.00  0.00    +0.000 A 
ATOM     23  C   UNL     1       6.961   5.198  14.802  0.00  0.00    +0.000 A 
ENDBRANCH  17  18
ENDBRANCH   4  17
TORSDOF 5
ENDMDL
MODEL 8
REMARK VINA RESULT:      -8.8      3.940      7.501
REMARK  Name = 
REMARK  5 active torsions:
REMARK  status: ('A' for Active; 'I' for Inactive)
REMARK    1  A    between atoms: C_2  and  C_3
REMARK    2  A    between atoms: C_2  and  C_11
REMARK    3  A    between atoms: C_3  and  C_4
REMARK    4  A    between atoms: N_14  and  C_15
REMARK    5  A    between atoms: C_15  and  C_16
REMARK                            x       y       z     vdW  Elec       q    Type
REMARK                         _______ _______ _______ _____ _____    ______ ____
ROOT
ATOM      1  C   UNL     1       2.988   2.045  19.821  0.00  0.00    +0.000 C 
ATOM      2  C   UNL     1       4.450   2.532  20.000  0.00  0.00    +0.000 C 
ATOM      3  C   UNL     1       4.883   3.659  19.047  0.00  0.00    +0.000 C 
ATOM      4  N   UNL     1       4.723   3.391  17.618  0.00  0.00    +0.000 NA
ATOM      5  C   UNL     1       3.441   2.809  17.262  0.00  0.00    +0.000 C 
ATOM      6  C   UNL     1       2.989   1.728  18.252  0.00  0.00    +0.000 C 
ENDROOT
BRANCH   1   8
ATOM      7  O   UNL     1       1.923   2.513  22.095  0.00  0.00    +0.000 OA
ATOM      8  C   UNL     1       1.920   2.937  20.942  0.00  0.00    +0.000 C 
BRANCH   8   9
ATOM      9  C   UNL     1       0.976   4.337  20.677  0.00  0.00    +0.000 C 
BRANCH   9  10
ATOM     10  C   UNL     1       1.554   5.601  19.956  0.00  0.00    +0.000 A 
ATOM     11  C   UNL     1       1.996   5.592  18.603  0.00  0.00    +0.000 A 
ATOM     12  C   UNL     1       2.441   6.760  17.943  0.00  0.00    +0.000 A 
ATOM     13  C   UNL     1       2.392   7.979  18.631  0.00  0.00    +0.000 A 
ATOM     14  F   UNL     1       2.823   9.089  18.020  0.00  0.00    +0.000 F 
ATOM     15  C   UNL     1       1.923   8.018  19.921  0.00  0.00    +0.000 A 
ATOM     16  C   UNL     1       1.495   6.854  20.582  0.00  0.00    +0.000 A 
ENDBRANCH   9  10
ENDBRANCH   8   9
ENDBRANCH   1   8
BRANCH   4  17
ATOM     17  C   UNL     1       5.079   4.541  16.747  0.00  0.00    +0.000 C 
BRANCH  17  18
ATOM     18  C   UNL     1       6.122   5.503  17.293  0.00  0.00    +0.000 A 
ATOM     19  C   UNL     1       7.140   5.037  18.140  0.00  0.00    +0.000 A 
ATOM     20  C   UNL     1       8.080   5.916  18.682  0.00  0.00    +0.000 A 
ATOM     21  C   UNL     1       8.030   7.270  18.365  0.00  0.00    +0.000 A 
ATOM     22  C   UNL     1       7.033   7.749  17.518  0.00  0.00    +0.000 A 
ATOM     23  C   UNL     1       6.085   6.872  16.985  0.00  0.00    +0.000 A 
ENDBRANCH  17  18
ENDBRANCH   4  17
TORSDOF 5
ENDMDL
MODEL 9
REMARK VINA RESULT:      -8.8      5.577      7.597
REMARK  Name = 
REMARK  5 active torsions:
REMARK  status: ('A' for Active; 'I' for Inactive)
REMARK    1  A    between atoms: C_2  and  C_3
REMARK    2  A    between atoms: C_2  and  C_11
REMARK    3  A    between atoms: C_3  and  C_4
REMARK    4  A    between atoms: N_14  and  C_15
REMARK    5  A    between atoms: C_15  and  C_16
REMARK                            x       y       z     vdW  Elec       q    Type
REMARK                         _______ _______ _______ _____ _____    ______ ____
ROOT
ATOM      1  C   UNL     1       2.584   2.568  19.185  0.00  0.00    +0.000 C 
ATOM      2  C   UNL     1       4.131   2.614  19.293  0.00  0.00    +0.000 C 
ATOM      3  C   UNL     1       4.808   3.734  18.485  0.00  0.00    +0.000 C 
ATOM      4  N   UNL     1       4.506   3.768  17.055  0.00  0.00    +0.000 NA
ATOM      5  C   UNL     1       3.098   3.616  16.740  0.00  0.00    +0.000 C 
ATOM      6  C   UNL     1       2.416   2.538  17.593  0.00  0.00    +0.000 C 
ENDROOT
BRANCH   1   8
ATOM      7  O   UNL     1       1.006   2.899  21.166  0.00  0.00    +0.000 OA
ATOM      8  C   UNL     1       1.864   3.502  20.526  0.00  0.00    +0.000 C 
BRANCH   8   9
ATOM      9  C   UNL     1       2.251   5.062  21.109  0.00  0.00    +0.000 C 
BRANCH   9  10
ATOM     10  C   UNL     1       2.192   6.327  20.189  0.00  0.00    +0.000 A 
ATOM     11  C   UNL     1       2.556   6.308  18.813  0.00  0.00    +0.000 A 
ATOM     12  C   UNL     1       2.420   7.439  17.977  0.00  0.00    +0.000 A 
ATOM     13  C   UNL     1       1.856   8.604  18.511  0.00  0.00    +0.000 A 
ATOM     14  F   UNL     1       1.736   9.686  17.732  0.00  0.00    +0.000 F 
ATOM     15  C   UNL     1       1.453   8.629  19.824  0.00  0.00    +0.000 A 
ATOM     16  C   UNL     1       1.601   7.509  20.659  0.00  0.00    +0.000 A 
ENDBRANCH   9  10
ENDBRANCH   8   9
ENDBRANCH   1   8
BRANCH   4  17
ATOM     17  C   UNL     1       5.121   4.916  16.338  0.00  0.00    +0.000 C 
BRANCH  17  18
ATOM     18  C   UNL     1       5.776   4.603  15.002  0.00  0.00    +0.000 A 
ATOM     19  C   UNL     1       7.036   5.137  14.690  0.00  0.00    +0.000 A 
ATOM     20  C   UNL     1       7.631   4.893  13.450  0.00  0.00    +0.000 A 
ATOM     21  C   UNL     1       6.986   4.090  12.514  0.00  0.00    +0.000 A 
ATOM     22  C   UNL     1       5.740   3.541  12.811  0.00  0.00    +0.000 A 
ATOM     23  C   UNL     1       5.138   3.797  14.046  0.00  0.00    +0.000 A 
ENDBRANCH  17  18
ENDBRANCH   4  17
TORSDOF 5
ENDMDL
