MODEL 1
REMARK VINA RESULT:      -7.1      0.000      0.000
REMARK  Name = 
REMARK  9 active torsions:
REMARK  status: ('A' for Active; 'I' for Inactive)
REMARK    1  A    between atoms: C_1  and  O_2
REMARK    2  A    between atoms: O_2  and  C_3
REMARK    3  A    between atoms: C_6  and  C_7
REMARK    4  A    between atoms: C_8  and  C_9
REMARK    5  A    between atoms: C_10  and  C_11
REMARK    6  A    between atoms: C_11  and  C_12
REMARK    7  A    between atoms: N_20  and  C_21
REMARK    8  A    between atoms: C_24  and  O_25
REMARK    9  A    between atoms: O_25  and  C_26
REMARK                            x       y       z     vdW  Elec       q    Type
REMARK                         _______ _______ _______ _____ _____    ______ ____
ROOT
ATOM      1  C   UNL     1      -1.239  10.536  19.915  0.00  0.00    +0.000 C 
ATOM      2  C   UNL     1      -0.988  11.881  20.679  0.00  0.00    +0.000 C 
ATOM      3  C   UNL     1       0.468  11.383  20.813  0.00  0.00    +0.000 C 
ATOM      4  O   UNL     1       1.470  11.793  21.352  0.00  0.00    +0.000 OA
ATOM      5  N   UNL     1       0.209  10.304  20.033  0.00  0.00    +0.000 N 
ENDROOT
BRANCH   1   9
ATOM      6  C   UNL     1      -2.994  10.837  15.832  0.00  0.00    +0.000 A 
ATOM      7  C   UNL     1      -3.135   9.668  16.572  0.00  0.00    +0.000 A 
ATOM      8  C   UNL     1      -2.608   9.578  17.863  0.00  0.00    +0.000 A 
ATOM      9  C   UNL     1      -1.876  10.629  18.450  0.00  0.00    +0.000 A 
ATOM     10  C   UNL     1      -1.725  11.787  17.656  0.00  0.00    +0.000 A 
ATOM     11  C   UNL     1      -2.282  11.901  16.375  0.00  0.00    +0.000 A 
BRANCH   6  13
ATOM     12  C   UNL     1      -3.050   9.811  13.710  0.00  0.00    +0.000 C 
ATOM     13  O   UNL     1      -3.555  10.810  14.587  0.00  0.00    +0.000 OA
ENDBRANCH   6  13
ENDBRANCH   1   9
BRANCH   5  14
ATOM     14  C   UNL     1       1.017   9.233  19.648  0.00  0.00    +0.000 A 
ATOM     15  C   UNL     1       1.318   8.203  20.544  0.00  0.00    +0.000 A 
ATOM     16  C   UNL     1       2.156   7.150  20.168  0.00  0.00    +0.000 A 
ATOM     17  C   UNL     1       2.707   7.107  18.889  0.00  0.00    +0.000 A 
ATOM     18  C   UNL     1       2.418   8.131  17.992  0.00  0.00    +0.000 A 
ATOM     19  C   UNL     1       1.566   9.176  18.364  0.00  0.00    +0.000 A 
BRANCH  17  20
ATOM     20  O   UNL     1       3.536   6.050  18.640  0.00  0.00    +0.000 OA
ATOM     21  C   UNL     1       2.978   5.008  17.849  0.00  0.00    +0.000 C 
ENDBRANCH  17  20
ENDBRANCH   5  14
BRANCH   2  22
ATOM     22  C   UNL     1      -1.673  12.088  21.981  0.00  0.00    +0.000 C 
ATOM     23  C   UNL     1      -2.842  12.749  22.049  0.00  0.00    +0.000 C 
BRANCH  23  24
ATOM     24  C   UNL     1      -3.576  13.415  20.908  0.00  0.00    +0.000 C 
BRANCH  24  25
ATOM     25  C   UNL     1      -4.827  12.677  20.494  0.00  0.00    +0.000 A 
ATOM     26  C   UNL     1      -5.872  12.478  21.404  0.00  0.00    +0.000 A 
ATOM     27  C   UNL     1      -7.021  11.786  21.023  0.00  0.00    +0.000 A 
ATOM     28  C   UNL     1      -7.144  11.289  19.726  0.00  0.00    +0.000 A 
ATOM     29  C   UNL     1      -6.116  11.488  18.808  0.00  0.00    +0.000 A 
ATOM     30  C   UNL     1      -4.965  12.181  19.187  0.00  0.00    +0.000 A 
ENDBRANCH  24  25
ENDBRANCH  23  24
ENDBRANCH   2  22
TORSDOF 7
ENDMDL
MODEL 2
REMARK VINA RESULT:      -7.0      2.238      7.301
REMARK  Name = 
REMARK  9 active torsions:
REMARK  status: ('A' for Active; 'I' for Inactive)
REMARK    1  A    between atoms: C_1  and  O_2
REMARK    2  A    between atoms: O_2  and  C_3
REMARK    3  A    between atoms: C_6  and  C_7
REMARK    4  A    between atoms: C_8  and  C_9
REMARK    5  A    between atoms: C_10  and  C_11
REMARK    6  A    between atoms: C_11  and  C_12
REMARK    7  A    between atoms: N_20  and  C_21
REMARK    8  A    between atoms: C_24  and  O_25
REMARK    9  A    between atoms: O_25  and  C_26
REMARK                            x       y       z     vdW  Elec       q    Type
REMARK                         _______ _______ _______ _____ _____    ______ ____
ROOT
ATOM      1  C   UNL     1       0.086  10.751  19.369  0.00  0.00    +0.000 C 
ATOM      2  C   UNL     1       0.632   9.331  19.744  0.00  0.00    +0.000 C 
ATOM      3  C   UNL     1       0.857   9.931  21.150  0.00  0.00    +0.000 C 
ATOM      4  O   UNL     1       1.335   9.534  22.186  0.00  0.00    +0.000 OA
ATOM      5  N   UNL     1       0.253  11.091  20.790  0.00  0.00    +0.000 N 
ENDROOT
BRANCH   1   9
ATOM      6  C   UNL     1      -3.992  10.939  17.584  0.00  0.00    +0.000 A 
ATOM      7  C   UNL     1      -3.624  11.827  18.590  0.00  0.00    +0.000 A 
ATOM      8  C   UNL     1      -2.338  11.788  19.135  0.00  0.00    +0.000 A 
ATOM      9  C   UNL     1      -1.383  10.832  18.737  0.00  0.00    +0.000 A 
ATOM     10  C   UNL     1      -1.803   9.926  17.738  0.00  0.00    +0.000 A 
ATOM     11  C   UNL     1      -3.078   9.981  17.159  0.00  0.00    +0.000 A 
BRANCH   6  13
ATOM     12  C   UNL     1      -5.897  12.318  17.419  0.00  0.00    +0.000 C 
ATOM     13  O   UNL     1      -5.271  11.075  17.125  0.00  0.00    +0.000 OA
ENDBRANCH   6  13
ENDBRANCH   1   9
BRANCH   5  14
ATOM     14  C   UNL     1       0.048  12.278  21.496  0.00  0.00    +0.000 A 
ATOM     15  C   UNL     1      -0.938  12.365  22.482  0.00  0.00    +0.000 A 
ATOM     16  C   UNL     1      -1.166  13.564  23.163  0.00  0.00    +0.000 A 
ATOM     17  C   UNL     1      -0.411  14.697  22.869  0.00  0.00    +0.000 A 
ATOM     18  C   UNL     1       0.569  14.623  21.884  0.00  0.00    +0.000 A 
ATOM     19  C   UNL     1       0.807  13.418  21.215  0.00  0.00    +0.000 A 
BRANCH  17  20
ATOM     20  O   UNL     1      -0.740  15.822  23.572  0.00  0.00    +0.000 OA
ATOM     21  C   UNL     1      -1.165  15.604  24.912  0.00  0.00    +0.000 C 
ENDBRANCH  17  20
ENDBRANCH   5  14
BRANCH   2  22
ATOM     22  C   UNL     1       1.879   8.861  19.086  0.00  0.00    +0.000 C 
ATOM     23  C   UNL     1       2.363   7.630  19.324  0.00  0.00    +0.000 C 
BRANCH  23  24
ATOM     24  C   UNL     1       1.810   6.607  20.289  0.00  0.00    +0.000 C 
BRANCH  24  25
ATOM     25  C   UNL     1       1.650   5.236  19.676  0.00  0.00    +0.000 A 
ATOM     26  C   UNL     1       2.057   4.991  18.358  0.00  0.00    +0.000 A 
ATOM     27  C   UNL     1       1.899   3.727  17.791  0.00  0.00    +0.000 A 
ATOM     28  C   UNL     1       1.336   2.691  18.534  0.00  0.00    +0.000 A 
ATOM     29  C   UNL     1       0.935   2.917  19.848  0.00  0.00    +0.000 A 
ATOM     30  C   UNL     1       1.094   4.182  20.418  0.00  0.00    +0.000 A 
ENDBRANCH  24  25
ENDBRANCH  23  24
ENDBRANCH   2  22
TORSDOF 7
ENDMDL
MODEL 3
REMARK VINA RESULT:      -7.0      0.944      1.478
REMARK  Name = 
REMARK  9 active torsions:
REMARK  status: ('A' for Active; 'I' for Inactive)
REMARK    1  A    between atoms: C_1  and  O_2
REMARK    2  A    between atoms: O_2  and  C_3
REMARK    3  A    between atoms: C_6  and  C_7
REMARK    4  A    between atoms: C_8  and  C_9
REMARK    5  A    between atoms: C_10  and  C_11
REMARK    6  A    between atoms: C_11  and  C_12
REMARK    7  A    between atoms: N_20  and  C_21
REMARK    8  A    between atoms: C_24  and  O_25
REMARK    9  A    between atoms: O_25  and  C_26
REMARK                            x       y       z     vdW  Elec       q    Type
REMARK                         _______ _______ _______ _____ _____    ______ ____
ROOT
ATOM      1  C   UNL     1      -1.090  10.553  20.120  0.00  0.00    +0.000 C 
ATOM      2  C   UNL     1      -0.801  11.893  20.879  0.00  0.00    +0.000 C 
ATOM      3  C   UNL     1       0.682  11.471  20.793  0.00  0.00    +0.000 C 
ATOM      4  O   UNL     1       1.728  11.922  21.198  0.00  0.00    +0.000 OA
ATOM      5  N   UNL     1       0.369  10.396  20.027  0.00  0.00    +0.000 N 
ENDROOT
BRANCH   1   9
ATOM      6  C   UNL     1      -3.459  10.837  16.358  0.00  0.00    +0.000 A 
ATOM      7  C   UNL     1      -2.388   9.954  16.448  0.00  0.00    +0.000 A 
ATOM      8  C   UNL     1      -1.658   9.844  17.634  0.00  0.00    +0.000 A 
ATOM      9  C   UNL     1      -1.932  10.643  18.762  0.00  0.00    +0.000 A 
ATOM     10  C   UNL     1      -3.005  11.551  18.622  0.00  0.00    +0.000 A 
ATOM     11  C   UNL     1      -3.767  11.642  17.449  0.00  0.00    +0.000 A 
BRANCH   6  13
ATOM     12  C   UNL     1      -3.511  10.055  14.134  0.00  0.00    +0.000 C 
ATOM     13  O   UNL     1      -4.101  10.854  15.152  0.00  0.00    +0.000 OA
ENDBRANCH   6  13
ENDBRANCH   1   9
BRANCH   5  14
ATOM     14  C   UNL     1       1.167   9.377  19.502  0.00  0.00    +0.000 A 
ATOM     15  C   UNL     1       1.446   8.229  20.248  0.00  0.00    +0.000 A 
ATOM     16  C   UNL     1       2.275   7.227  19.734  0.00  0.00    +0.000 A 
ATOM     17  C   UNL     1       2.836   7.355  18.466  0.00  0.00    +0.000 A 
ATOM     18  C   UNL     1       2.568   8.498  17.718  0.00  0.00    +0.000 A 
ATOM     19  C   UNL     1       1.727   9.493  18.227  0.00  0.00    +0.000 A 
BRANCH  17  20
ATOM     20  O   UNL     1       3.654   6.331  18.078  0.00  0.00    +0.000 OA
ATOM     21  C   UNL     1       3.787   5.267  19.013  0.00  0.00    +0.000 C 
ENDBRANCH  17  20
ENDBRANCH   5  14
BRANCH   2  22
ATOM     22  C   UNL     1      -1.304  12.036  22.270  0.00  0.00    +0.000 C 
ATOM     23  C   UNL     1      -2.524  12.547  22.513  0.00  0.00    +0.000 C 
BRANCH  23  24
ATOM     24  C   UNL     1      -3.497  13.096  21.497  0.00  0.00    +0.000 C 
BRANCH  24  25
ATOM     25  C   UNL     1      -4.940  12.810  21.839  0.00  0.00    +0.000 A 
ATOM     26  C   UNL     1      -5.819  12.311  20.870  0.00  0.00    +0.000 A 
ATOM     27  C   UNL     1      -7.153  12.059  21.185  0.00  0.00    +0.000 A 
ATOM     28  C   UNL     1      -7.627  12.298  22.474  0.00  0.00    +0.000 A 
ATOM     29  C   UNL     1      -6.762  12.787  23.451  0.00  0.00    +0.000 A 
ATOM     30  C   UNL     1      -5.426  13.038  23.137  0.00  0.00    +0.000 A 
ENDBRANCH  24  25
ENDBRANCH  23  24
ENDBRANCH   2  22
TORSDOF 7
ENDMDL
MODEL 4
REMARK VINA RESULT:      -7.0      0.987      1.619
REMARK  Name = 
REMARK  9 active torsions:
REMARK  status: ('A' for Active; 'I' for Inactive)
REMARK    1  A    between atoms: C_1  and  O_2
REMARK    2  A    between atoms: O_2  and  C_3
REMARK    3  A    between atoms: C_6  and  C_7
REMARK    4  A    between atoms: C_8  and  C_9
REMARK    5  A    between atoms: C_10  and  C_11
REMARK    6  A    between atoms: C_11  and  C_12
REMARK    7  A    between atoms: N_20  and  C_21
REMARK    8  A    between atoms: C_24  and  O_25
REMARK    9  A    between atoms: O_25  and  C_26
REMARK                            x       y       z     vdW  Elec       q    Type
REMARK                         _______ _______ _______ _____ _____    ______ ____
ROOT
ATOM      1  C   UNL     1      -1.082  10.586  20.073  0.00  0.00    +0.000 C 
ATOM      2  C   UNL     1      -0.808  11.940  20.813  0.00  0.00    +0.000 C 
ATOM      3  C   UNL     1       0.677  11.519  20.760  0.00  0.00    +0.000 C 
ATOM      4  O   UNL     1       1.715  11.980  21.175  0.00  0.00    +0.000 OA
ATOM      5  N   UNL     1       0.379  10.430  20.009  0.00  0.00    +0.000 N 
ENDROOT
BRANCH   1   9
ATOM      6  C   UNL     1      -3.332  10.730  16.231  0.00  0.00    +0.000 A 
ATOM      7  C   UNL     1      -3.724  11.523  17.305  0.00  0.00    +0.000 A 
ATOM      8  C   UNL     1      -3.006  11.499  18.503  0.00  0.00    +0.000 A 
ATOM      9  C   UNL     1      -1.900  10.649  18.699  0.00  0.00    +0.000 A 
ATOM     10  C   UNL     1      -1.552   9.835  17.599  0.00  0.00    +0.000 A 
ATOM     11  C   UNL     1      -2.243   9.879  16.380  0.00  0.00    +0.000 A 
BRANCH   6  13
ATOM     12  C   UNL     1      -3.694  10.049  14.003  0.00  0.00    +0.000 C 
ATOM     13  O   UNL     1      -4.106  10.841  15.111  0.00  0.00    +0.000 OA
ENDBRANCH   6  13
ENDBRANCH   1   9
BRANCH   5  14
ATOM     14  C   UNL     1       1.188   9.404  19.516  0.00  0.00    +0.000 A 
ATOM     15  C   UNL     1       1.729   9.474  18.229  0.00  0.00    +0.000 A 
ATOM     16  C   UNL     1       2.508   8.429  17.724  0.00  0.00    +0.000 A 
ATOM     17  C   UNL     1       2.760   7.298  18.497  0.00  0.00    +0.000 A 
ATOM     18  C   UNL     1       2.220   7.216  19.777  0.00  0.00    +0.000 A 
ATOM     19  C   UNL     1       1.453   8.269  20.287  0.00  0.00    +0.000 A 
BRANCH  17  20
ATOM     20  O   UNL     1       3.507   6.326  17.892  0.00  0.00    +0.000 OA
ATOM     21  C   UNL     1       4.633   6.788  17.156  0.00  0.00    +0.000 C 
ENDBRANCH  17  20
ENDBRANCH   5  14
BRANCH   2  22
ATOM     22  C   UNL     1      -1.336  12.107  22.192  0.00  0.00    +0.000 C 
ATOM     23  C   UNL     1      -2.576  12.580  22.404  0.00  0.00    +0.000 C 
BRANCH  23  24
ATOM     24  C   UNL     1      -3.555  13.062  21.358  0.00  0.00    +0.000 C 
BRANCH  24  25
ATOM     25  C   UNL     1      -4.994  12.774  21.712  0.00  0.00    +0.000 A 
ATOM     26  C   UNL     1      -5.477  13.027  23.002  0.00  0.00    +0.000 A 
ATOM     27  C   UNL     1      -6.803  12.749  23.329  0.00  0.00    +0.000 A 
ATOM     28  C   UNL     1      -7.666  12.219  22.371  0.00  0.00    +0.000 A 
ATOM     29  C   UNL     1      -7.203  11.971  21.082  0.00  0.00    +0.000 A 
ATOM     30  C   UNL     1      -5.875  12.250  20.752  0.00  0.00    +0.000 A 
ENDBRANCH  24  25
ENDBRANCH  23  24
ENDBRANCH   2  22
TORSDOF 7
ENDMDL
MODEL 5
REMARK VINA RESULT:      -6.9      0.562      1.615
REMARK  Name = 
REMARK  9 active torsions:
REMARK  status: ('A' for Active; 'I' for Inactive)
REMARK    1  A    between atoms: C_1  and  O_2
REMARK    2  A    between atoms: O_2  and  C_3
REMARK    3  A    between atoms: C_6  and  C_7
REMARK    4  A    between atoms: C_8  and  C_9
REMARK    5  A    between atoms: C_10  and  C_11
REMARK    6  A    between atoms: C_11  and  C_12
REMARK    7  A    between atoms: N_20  and  C_21
REMARK    8  A    between atoms: C_24  and  O_25
REMARK    9  A    between atoms: O_25  and  C_26
REMARK                            x       y       z     vdW  Elec       q    Type
REMARK                         _______ _______ _______ _____ _____    ______ ____
ROOT
ATOM      1  C   UNL     1      -1.120  10.553  19.964  0.00  0.00    +0.000 C 
ATOM      2  C   UNL     1      -0.867  11.912  20.702  0.00  0.00    +0.000 C 
ATOM      3  C   UNL     1       0.616  11.482  20.712  0.00  0.00    +0.000 C 
ATOM      4  O   UNL     1       1.640  11.940  21.163  0.00  0.00    +0.000 OA
ATOM      5  N   UNL     1       0.341  10.388  19.959  0.00  0.00    +0.000 N 
ENDROOT
BRANCH   1   9
ATOM      6  C   UNL     1      -3.264  10.669  16.060  0.00  0.00    +0.000 A 
ATOM      7  C   UNL     1      -2.445  11.726  16.443  0.00  0.00    +0.000 A 
ATOM      8  C   UNL     1      -1.751  11.683  17.655  0.00  0.00    +0.000 A 
ATOM      9  C   UNL     1      -1.883  10.609  18.558  0.00  0.00    +0.000 A 
ATOM     10  C   UNL     1      -2.748   9.570  18.150  0.00  0.00    +0.000 A 
ATOM     11  C   UNL     1      -3.419   9.587  16.920  0.00  0.00    +0.000 A 
BRANCH   6  13
ATOM     12  C   UNL     1      -3.390  10.001  13.803  0.00  0.00    +0.000 C 
ATOM     13  O   UNL     1      -3.886  10.820  14.854  0.00  0.00    +0.000 OA
ENDBRANCH   6  13
ENDBRANCH   1   9
BRANCH   5  14
ATOM     14  C   UNL     1       1.162   9.353  19.507  0.00  0.00    +0.000 A 
ATOM     15  C   UNL     1       1.678   9.362  18.208  0.00  0.00    +0.000 A 
ATOM     16  C   UNL     1       2.470   8.306  17.746  0.00  0.00    +0.000 A 
ATOM     17  C   UNL     1       2.760   7.225  18.575  0.00  0.00    +0.000 A 
ATOM     18  C   UNL     1       2.245   7.204  19.868  0.00  0.00    +0.000 A 
ATOM     19  C   UNL     1       1.465   8.268  20.334  0.00  0.00    +0.000 A 
BRANCH  17  20
ATOM     20  O   UNL     1       3.515   6.236  18.010  0.00  0.00    +0.000 OA
ATOM     21  C   UNL     1       4.622   6.680  17.235  0.00  0.00    +0.000 C 
ENDBRANCH  17  20
ENDBRANCH   5  14
BRANCH   2  22
ATOM     22  C   UNL     1      -1.448  12.095  22.057  0.00  0.00    +0.000 C 
ATOM     23  C   UNL     1      -2.580  12.798  22.234  0.00  0.00    +0.000 C 
BRANCH  23  24
ATOM     24  C   UNL     1      -3.365  13.536  21.175  0.00  0.00    +0.000 C 
BRANCH  24  25
ATOM     25  C   UNL     1      -4.660  12.851  20.807  0.00  0.00    +0.000 A 
ATOM     26  C   UNL     1      -4.809  12.228  19.561  0.00  0.00    +0.000 A 
ATOM     27  C   UNL     1      -6.009  11.606  19.219  0.00  0.00    +0.000 A 
ATOM     28  C   UNL     1      -7.074  11.593  20.118  0.00  0.00    +0.000 A 
ATOM     29  C   UNL     1      -6.937  12.200  21.364  0.00  0.00    +0.000 A 
ATOM     30  C   UNL     1      -5.735  12.822  21.709  0.00  0.00    +0.000 A 
ENDBRANCH  24  25
ENDBRANCH  23  24
ENDBRANCH   2  22
TORSDOF 7
ENDMDL
MODEL 6
REMARK VINA RESULT:      -6.9      2.014      7.627
REMARK  Name = 
REMARK  9 active torsions:
REMARK  status: ('A' for Active; 'I' for Inactive)
REMARK    1  A    between atoms: C_1  and  O_2
REMARK    2  A    between atoms: O_2  and  C_3
REMARK    3  A    between atoms: C_6  and  C_7
REMARK    4  A    between atoms: C_8  and  C_9
REMARK    5  A    between atoms: C_10  and  C_11
REMARK    6  A    between atoms: C_11  and  C_12
REMARK    7  A    between atoms: N_20  and  C_21
REMARK    8  A    between atoms: C_24  and  O_25
REMARK    9  A    between atoms: O_25  and  C_26
REMARK                            x       y       z     vdW  Elec       q    Type
REMARK                         _______ _______ _______ _____ _____    ______ ____
ROOT
ATOM      1  C   UNL     1      -0.312  11.168  19.024  0.00  0.00    +0.000 C 
ATOM      2  C   UNL     1       0.506   9.831  19.017  0.00  0.00    +0.000 C 
ATOM      3  C   UNL     1       0.859  10.190  20.477  0.00  0.00    +0.000 C 
ATOM      4  O   UNL     1       1.556   9.703  21.336  0.00  0.00    +0.000 OA
ATOM      5  N   UNL     1       0.029  11.263  20.452  0.00  0.00    +0.000 N 
ENDROOT
BRANCH   1   9
ATOM      6  C   UNL     1      -4.605  10.907  17.863  0.00  0.00    +0.000 A 
ATOM      7  C   UNL     1      -4.169  11.912  18.720  0.00  0.00    +0.000 A 
ATOM      8  C   UNL     1      -2.819  12.013  19.067  0.00  0.00    +0.000 A 
ATOM      9  C   UNL     1      -1.857  11.088  18.615  0.00  0.00    +0.000 A 
ATOM     10  C   UNL     1      -2.342  10.063  17.774  0.00  0.00    +0.000 A 
ATOM     11  C   UNL     1      -3.687   9.975  17.390  0.00  0.00    +0.000 A 
BRANCH   6  13
ATOM     12  C   UNL     1      -6.793  10.652  18.701  0.00  0.00    +0.000 C 
ATOM     13  O   UNL     1      -5.943  10.912  17.591  0.00  0.00    +0.000 OA
ENDBRANCH   6  13
ENDBRANCH   1   9
BRANCH   5  14
ATOM     14  C   UNL     1      -0.244  12.237  21.413  0.00  0.00    +0.000 A 
ATOM     15  C   UNL     1      -1.189  12.009  22.418  0.00  0.00    +0.000 A 
ATOM     16  C   UNL     1      -1.487  12.999  23.358  0.00  0.00    +0.000 A 
ATOM     17  C   UNL     1      -0.845  14.234  23.311  0.00  0.00    +0.000 A 
ATOM     18  C   UNL     1       0.093  14.473  22.311  0.00  0.00    +0.000 A 
ATOM     19  C   UNL     1       0.401  13.476  21.380  0.00  0.00    +0.000 A 
BRANCH  17  20
ATOM     20  O   UNL     1      -1.236  15.137  24.259  0.00  0.00    +0.000 OA
ATOM     21  C   UNL     1      -1.188  16.502  23.860  0.00  0.00    +0.000 C 
ENDBRANCH  17  20
ENDBRANCH   5  14
BRANCH   2  22
ATOM     22  C   UNL     1       1.688   9.735  18.121  0.00  0.00    +0.000 C 
ATOM     23  C   UNL     1       2.381   8.588  18.012  0.00  0.00    +0.000 C 
BRANCH  23  24
ATOM     24  C   UNL     1       2.144   7.309  18.781  0.00  0.00    +0.000 C 
BRANCH  24  25
ATOM     25  C   UNL     1       2.765   6.097  18.127  0.00  0.00    +0.000 A 
ATOM     26  C   UNL     1       2.058   4.892  18.039  0.00  0.00    +0.000 A 
ATOM     27  C   UNL     1       2.638   3.772  17.445  0.00  0.00    +0.000 A 
ATOM     28  C   UNL     1       3.930   3.842  16.927  0.00  0.00    +0.000 A 
ATOM     29  C   UNL     1       4.642   5.037  16.999  0.00  0.00    +0.000 A 
ATOM     30  C   UNL     1       4.062   6.160  17.592  0.00  0.00    +0.000 A 
ENDBRANCH  24  25
ENDBRANCH  23  24
ENDBRANCH   2  22
TORSDOF 7
ENDMDL
MODEL 7
REMARK VINA RESULT:      -6.9      2.036      7.575
REMARK  Name = 
REMARK  9 active torsions:
REMARK  status: ('A' for Active; 'I' for Inactive)
REMARK    1  A    between atoms: C_1  and  O_2
REMARK    2  A    between atoms: O_2  and  C_3
REMARK    3  A    between atoms: C_6  and  C_7
REMARK    4  A    between atoms: C_8  and  C_9
REMARK    5  A    between atoms: C_10  and  C_11
REMARK    6  A    between atoms: C_11  and  C_12
REMARK    7  A    between atoms: N_20  and  C_21
REMARK    8  A    between atoms: C_24  and  O_25
REMARK    9  A    between atoms: O_25  and  C_26
REMARK                            x       y       z     vdW  Elec       q    Type
REMARK                         _______ _______ _______ _____ _____    ______ ____
ROOT
ATOM      1  C   UNL     1      -0.196  11.068  18.845  0.00  0.00    +0.000 C 
ATOM      2  C   UNL     1       0.542   9.686  18.817  0.00  0.00    +0.000 C 
ATOM      3  C   UNL     1       0.841   9.962  20.307  0.00  0.00    +0.000 C 
ATOM      4  O   UNL     1       1.465   9.399  21.176  0.00  0.00    +0.000 OA
ATOM      5  N   UNL     1       0.077  11.083  20.290  0.00  0.00    +0.000 N 
ENDROOT
BRANCH   1   9
ATOM      6  C   UNL     1      -4.430  11.122  17.461  0.00  0.00    +0.000 A 
ATOM      7  C   UNL     1      -4.055  11.827  18.599  0.00  0.00    +0.000 A 
ATOM      8  C   UNL     1      -2.723  11.834  19.023  0.00  0.00    +0.000 A 
ATOM      9  C   UNL     1      -1.721  11.098  18.360  0.00  0.00    +0.000 A 
ATOM     10  C   UNL     1      -2.146  10.368  17.228  0.00  0.00    +0.000 A 
ATOM     11  C   UNL     1      -3.472  10.385  16.774  0.00  0.00    +0.000 A 
BRANCH   6  13
ATOM     12  C   UNL     1      -6.362  12.467  17.328  0.00  0.00    +0.000 C 
ATOM     13  O   UNL     1      -5.756  11.194  17.141  0.00  0.00    +0.000 OA
ENDBRANCH   6  13
ENDBRANCH   1   9
BRANCH   5  14
ATOM     14  C   UNL     1      -0.187  12.031  21.280  0.00  0.00    +0.000 A 
ATOM     15  C   UNL     1      -1.090  11.759  22.311  0.00  0.00    +0.000 A 
ATOM     16  C   UNL     1      -1.380  12.723  23.280  0.00  0.00    +0.000 A 
ATOM     17  C   UNL     1      -0.772  13.976  23.236  0.00  0.00    +0.000 A 
ATOM     18  C   UNL     1       0.124  14.258  22.209  0.00  0.00    +0.000 A 
ATOM     19  C   UNL     1       0.425  13.287  21.248  0.00  0.00    +0.000 A 
BRANCH  17  20
ATOM     20  O   UNL     1      -1.152  14.850  24.215  0.00  0.00    +0.000 OA
ATOM     21  C   UNL     1      -2.543  14.870  24.511  0.00  0.00    +0.000 C 
ENDBRANCH  17  20
ENDBRANCH   5  14
BRANCH   2  22
ATOM     22  C   UNL     1       1.760   9.556  17.976  0.00  0.00    +0.000 C 
ATOM     23  C   UNL     1       2.447   8.402  17.929  0.00  0.00    +0.000 C 
BRANCH  23  24
ATOM     24  C   UNL     1       2.168   7.146  18.722  0.00  0.00    +0.000 C 
BRANCH  24  25
ATOM     25  C   UNL     1       2.768   5.905  18.104  0.00  0.00    +0.000 A 
ATOM     26  C   UNL     1       4.115   5.878  17.722  0.00  0.00    +0.000 A 
ATOM     27  C   UNL     1       4.663   4.736  17.141  0.00  0.00    +0.000 A 
ATOM     28  C   UNL     1       3.875   3.604  16.939  0.00  0.00    +0.000 A 
ATOM     29  C   UNL     1       2.536   3.614  17.323  0.00  0.00    +0.000 A 
ATOM     30  C   UNL     1       1.986   4.756  17.906  0.00  0.00    +0.000 A 
ENDBRANCH  24  25
ENDBRANCH  23  24
ENDBRANCH   2  22
TORSDOF 7
ENDMDL
MODEL 8
REMARK VINA RESULT:      -6.9      2.258      7.190
REMARK  Name = 
REMARK  9 active torsions:
REMARK  status: ('A' for Active; 'I' for Inactive)
REMARK    1  A    between atoms: C_1  and  O_2
REMARK    2  A    between atoms: O_2  and  C_3
REMARK    3  A    between atoms: C_6  and  C_7
REMARK    4  A    between atoms: C_8  and  C_9
REMARK    5  A    between atoms: C_10  and  C_11
REMARK    6  A    between atoms: C_11  and  C_12
REMARK    7  A    between atoms: N_20  and  C_21
REMARK    8  A    between atoms: C_24  and  O_25
REMARK    9  A    between atoms: O_25  and  C_26
REMARK                            x       y       z     vdW  Elec       q    Type
REMARK                         _______ _______ _______ _____ _____    ______ ____
ROOT
ATOM      1  C   UNL     1       0.132  10.653  19.021  0.00  0.00    +0.000 C 
ATOM      2  C   UNL     1       0.671   9.222  19.364  0.00  0.00    +0.000 C 
ATOM      3  C   UNL     1       0.965   9.808  20.762  0.00  0.00    +0.000 C 
ATOM      4  O   UNL     1       1.481   9.396  21.775  0.00  0.00    +0.000 OA
ATOM      5  N   UNL     1       0.365  10.980  20.436  0.00  0.00    +0.000 N 
ENDROOT
BRANCH   1   9
ATOM      6  C   UNL     1      -4.013  10.918  17.410  0.00  0.00    +0.000 A 
ATOM      7  C   UNL     1      -3.622  11.721  18.476  0.00  0.00    +0.000 A 
ATOM      8  C   UNL     1      -2.315  11.659  18.969  0.00  0.00    +0.000 A 
ATOM      9  C   UNL     1      -1.361  10.760  18.453  0.00  0.00    +0.000 A 
ATOM     10  C   UNL     1      -1.804   9.938  17.394  0.00  0.00    +0.000 A 
ATOM     11  C   UNL     1      -3.101  10.019  16.869  0.00  0.00    +0.000 A 
BRANCH   6  13
ATOM     12  C   UNL     1      -5.851  12.376  17.170  0.00  0.00    +0.000 C 
ATOM     13  O   UNL     1      -5.311  11.070  17.012  0.00  0.00    +0.000 OA
ENDBRANCH   6  13
ENDBRANCH   1   9
BRANCH   5  14
ATOM     14  C   UNL     1       0.209  12.165  21.157  0.00  0.00    +0.000 A 
ATOM     15  C   UNL     1       1.039  13.264  20.919  0.00  0.00    +0.000 A 
ATOM     16  C   UNL     1       0.906  14.437  21.667  0.00  0.00    +0.000 A 
ATOM     17  C   UNL     1      -0.061  14.532  22.666  0.00  0.00    +0.000 A 
ATOM     18  C   UNL     1      -0.888  13.441  22.915  0.00  0.00    +0.000 A 
ATOM     19  C   UNL     1      -0.764  12.273  22.155  0.00  0.00    +0.000 A 
BRANCH  17  20
ATOM     20  O   UNL     1      -0.082  15.712  23.354  0.00  0.00    +0.000 OA
ATOM     21  C   UNL     1       1.034  16.567  23.138  0.00  0.00    +0.000 C 
ENDBRANCH  17  20
ENDBRANCH   5  14
BRANCH   2  22
ATOM     22  C   UNL     1       1.881   8.738  18.650  0.00  0.00    +0.000 C 
ATOM     23  C   UNL     1       2.451   7.564  18.974  0.00  0.00    +0.000 C 
BRANCH  23  24
ATOM     24  C   UNL     1       2.037   6.632  20.089  0.00  0.00    +0.000 C 
BRANCH  24  25
ATOM     25  C   UNL     1       1.727   5.233  19.611  0.00  0.00    +0.000 A 
ATOM     26  C   UNL     1       1.124   4.303  20.468  0.00  0.00    +0.000 A 
ATOM     27  C   UNL     1       0.850   3.009  20.029  0.00  0.00    +0.000 A 
ATOM     28  C   UNL     1       1.169   2.627  18.727  0.00  0.00    +0.000 A 
ATOM     29  C   UNL     1       1.761   3.544  17.861  0.00  0.00    +0.000 A 
ATOM     30  C   UNL     1       2.035   4.841  18.299  0.00  0.00    +0.000 A 
ENDBRANCH  24  25
ENDBRANCH  23  24
ENDBRANCH   2  22
TORSDOF 7
ENDMDL
MODEL 9
REMARK VINA RESULT:      -6.8      0.973      1.342
REMARK  Name = 
REMARK  9 active torsions:
REMARK  status: ('A' for Active; 'I' for Inactive)
REMARK    1  A    between atoms: C_1  and  O_2
REMARK    2  A    between atoms: O_2  and  C_3
REMARK    3  A    between atoms: C_6  and  C_7
REMARK    4  A    between atoms: C_8  and  C_9
REMARK    5  A    between atoms: C_10  and  C_11
REMARK    6  A    between atoms: C_11  and  C_12
REMARK    7  A    between atoms: N_20  and  C_21
REMARK    8  A    between atoms: C_24  and  O_25
REMARK    9  A    between atoms: O_25  and  C_26
REMARK                            x       y       z     vdW  Elec       q    Type
REMARK                         _______ _______ _______ _____ _____    ______ ____
ROOT
ATOM      1  C   UNL     1      -1.147  10.805  19.993  0.00  0.00    +0.000 C 
ATOM      2  C   UNL     1      -0.830  12.229  20.566  0.00  0.00    +0.000 C 
ATOM      3  C   UNL     1       0.642  11.760  20.562  0.00  0.00    +0.000 C 
ATOM      4  O   UNL     1       1.695  12.235  20.917  0.00  0.00    +0.000 OA
ATOM      5  N   UNL     1       0.308  10.599  19.946  0.00  0.00    +0.000 N 
ENDROOT
BRANCH   1   9
ATOM      6  C   UNL     1      -3.468  10.624  16.195  0.00  0.00    +0.000 A 
ATOM      7  C   UNL     1      -2.275   9.921  16.323  0.00  0.00    +0.000 A 
ATOM      8  C   UNL     1      -1.557   9.955  17.521  0.00  0.00    +0.000 A 
ATOM      9  C   UNL     1      -1.970  10.729  18.623  0.00  0.00    +0.000 A 
ATOM     10  C   UNL     1      -3.168  11.455  18.445  0.00  0.00    +0.000 A 
ATOM     11  C   UNL     1      -3.916  11.398  17.260  0.00  0.00    +0.000 A 
BRANCH   6  13
ATOM     12  C   UNL     1      -3.258  10.060  13.916  0.00  0.00    +0.000 C 
ATOM     13  O   UNL     1      -4.085  10.511  14.982  0.00  0.00    +0.000 OA
ENDBRANCH   6  13
ENDBRANCH   1   9
BRANCH   5  14
ATOM     14  C   UNL     1       1.083   9.497  19.578  0.00  0.00    +0.000 A 
ATOM     15  C   UNL     1       1.631   9.403  18.295  0.00  0.00    +0.000 A 
ATOM     16  C   UNL     1       2.376   8.282  17.916  0.00  0.00    +0.000 A 
ATOM     17  C   UNL     1       2.587   7.238  18.814  0.00  0.00    +0.000 A 
ATOM     18  C   UNL     1       2.040   7.320  20.091  0.00  0.00    +0.000 A 
ATOM     19  C   UNL     1       1.308   8.449  20.474  0.00  0.00    +0.000 A 
BRANCH  17  20
ATOM     20  O   UNL     1       3.302   6.180  18.328  0.00  0.00    +0.000 OA
ATOM     21  C   UNL     1       2.532   5.056  17.922  0.00  0.00    +0.000 C 
ENDBRANCH  17  20
ENDBRANCH   5  14
BRANCH   2  22
ATOM     22  C   UNL     1      -1.345  12.575  21.916  0.00  0.00    +0.000 C 
ATOM     23  C   UNL     1      -2.466  13.303  22.061  0.00  0.00    +0.000 C 
BRANCH  23  24
ATOM     24  C   UNL     1      -3.298  13.917  20.960  0.00  0.00    +0.000 C 
BRANCH  24  25
ATOM     25  C   UNL     1      -4.759  13.541  21.037  0.00  0.00    +0.000 A 
ATOM     26  C   UNL     1      -5.298  13.006  22.214  0.00  0.00    +0.000 A 
ATOM     27  C   UNL     1      -6.644  12.649  22.279  0.00  0.00    +0.000 A 
ATOM     28  C   UNL     1      -7.470  12.825  21.170  0.00  0.00    +0.000 A 
ATOM     29  C   UNL     1      -6.951  13.364  19.996  0.00  0.00    +0.000 A 
ATOM     30  C   UNL     1      -5.604  13.724  19.930  0.00  0.00    +0.000 A 
ENDBRANCH  24  25
ENDBRANCH  23  24
ENDBRANCH   2  22
TORSDOF 7
ENDMDL
