MODEL 1
REMARK VINA RESULT:      -5.9      0.000      0.000
REMARK  Name = 
REMARK  8 active torsions:
REMARK  status: ('A' for Active; 'I' for Inactive)
REMARK    1  A    between atoms: C_1  and  C_2
REMARK    2  A    between atoms: C_2  and  C_3
REMARK    3  A    between atoms: C_3  and  N_4
REMARK    4  A    between atoms: C_6  and  C_7
REMARK    5  A    between atoms: C_7  and  O_8
REMARK    6  A    between atoms: C_10  and  O_11
REMARK    7  A    between atoms: O_11  and  C_12
REMARK    8  A    between atoms: C_13  and  O_14
REMARK                            x       y       z     vdW  Elec       q    Type
REMARK                         _______ _______ _______ _____ _____    ______ ____
ROOT
ATOM      1  N   UNL     1       4.417   4.786  18.393  0.00  0.00    +0.000 NA
ATOM      2  C   UNL     1       5.702   4.938  19.127  0.00  0.00    +0.000 C 
ATOM      3  C   UNL     1       6.866   5.495  18.281  0.00  0.00    +0.000 C 
ATOM      4  O   UNL     1       7.384   4.439  17.467  0.00  0.00    +0.000 OA
ATOM      5  C   UNL     1       6.822   4.378  16.155  0.00  0.00    +0.000 C 
ATOM      6  C   UNL     1       5.274   4.500  16.064  0.00  0.00    +0.000 C 
ATOM      7  C   UNL     1       4.542   3.845  17.249  0.00  0.00    +0.000 C 
ENDROOT
BRANCH   5   8
ATOM      8  O   UNL     1       7.448   5.323  15.285  0.00  0.00    +0.000 OA
ATOM      9  C   UNL     1       7.333   4.963  13.916  0.00  0.00    +0.000 C 
ENDBRANCH   5   8
BRANCH   6  10
ATOM     10  O   UNL     1       4.813   5.865  15.957  0.00  0.00    +0.000 OA
ATOM     11  H   UNL     1       5.542   6.408  16.322  0.00  0.00    +0.000 HD
ENDBRANCH   6  10
BRANCH   1  12
ATOM     12  C   UNL     1       3.335   4.344  19.298  0.00  0.00    +0.000 C 
BRANCH  12  14
ATOM     13  C   UNL     1       1.150   3.029  19.126  0.00  0.00    +0.000 C 
ATOM     14  C   UNL     1       1.950   4.230  18.640  0.00  0.00    +0.000 C 
ENDBRANCH  12  14
ENDBRANCH   1  12
BRANCH   3  15
ATOM     15  C   UNL     1       8.011   5.973  19.187  0.00  0.00    +0.000 C 
BRANCH  15  16
ATOM     16  O   UNL     1       7.903   5.424  20.499  0.00  0.00    +0.000 OA
ATOM     17  H   UNL     1       8.820   5.246  20.778  0.00  0.00    +0.000 HD
ENDBRANCH  15  16
ENDBRANCH   3  15
TORSDOF 6
ENDMDL
MODEL 2
REMARK VINA RESULT:      -5.8      1.996      4.402
REMARK  Name = 
REMARK  8 active torsions:
REMARK  status: ('A' for Active; 'I' for Inactive)
REMARK    1  A    between atoms: C_1  and  C_2
REMARK    2  A    between atoms: C_2  and  C_3
REMARK    3  A    between atoms: C_3  and  N_4
REMARK    4  A    between atoms: C_6  and  C_7
REMARK    5  A    between atoms: C_7  and  O_8
REMARK    6  A    between atoms: C_10  and  O_11
REMARK    7  A    between atoms: O_11  and  C_12
REMARK    8  A    between atoms: C_13  and  O_14
REMARK                            x       y       z     vdW  Elec       q    Type
REMARK                         _______ _______ _______ _____ _____    ______ ____
ROOT
ATOM      1  N   UNL     1       6.247   4.179  16.015  0.00  0.00    +0.000 NA
ATOM      2  C   UNL     1       7.079   5.112  16.819  0.00  0.00    +0.000 C 
ATOM      3  C   UNL     1       6.727   5.160  18.321  0.00  0.00    +0.000 C 
ATOM      4  O   UNL     1       5.554   5.962  18.489  0.00  0.00    +0.000 OA
ATOM      5  C   UNL     1       4.333   5.222  18.506  0.00  0.00    +0.000 C 
ATOM      6  C   UNL     1       4.167   4.143  17.399  0.00  0.00    +0.000 C 
ATOM      7  C   UNL     1       4.807   4.546  16.057  0.00  0.00    +0.000 C 
ENDROOT
BRANCH   5   8
ATOM      8  O   UNL     1       4.098   4.652  19.796  0.00  0.00    +0.000 OA
ATOM      9  C   UNL     1       2.768   4.859  20.249  0.00  0.00    +0.000 C 
ENDBRANCH   5   8
BRANCH   6  10
ATOM     10  O   UNL     1       4.696   2.852  17.773  0.00  0.00    +0.000 OA
ATOM     11  H   UNL     1       5.558   3.045  18.197  0.00  0.00    +0.000 HD
ENDBRANCH   6  10
BRANCH   1  12
ATOM     12  C   UNL     1       6.714   4.120  14.614  0.00  0.00    +0.000 C 
BRANCH  12  14
ATOM     13  C   UNL     1       6.098   3.323  12.265  0.00  0.00    +0.000 C 
ATOM     14  C   UNL     1       5.601   3.927  13.571  0.00  0.00    +0.000 C 
ENDBRANCH  12  14
ENDBRANCH   1  12
BRANCH   3  15
ATOM     15  C   UNL     1       7.855   5.832  19.119  0.00  0.00    +0.000 C 
BRANCH  15  16
ATOM     16  O   UNL     1       7.856   5.411  20.481  0.00  0.00    +0.000 OA
ATOM     17  H   UNL     1       8.655   5.810  20.872  0.00  0.00    +0.000 HD
ENDBRANCH  15  16
ENDBRANCH   3  15
TORSDOF 6
ENDMDL
MODEL 3
REMARK VINA RESULT:      -5.8      2.908      5.412
REMARK  Name = 
REMARK  8 active torsions:
REMARK  status: ('A' for Active; 'I' for Inactive)
REMARK    1  A    between atoms: C_1  and  C_2
REMARK    2  A    between atoms: C_2  and  C_3
REMARK    3  A    between atoms: C_3  and  N_4
REMARK    4  A    between atoms: C_6  and  C_7
REMARK    5  A    between atoms: C_7  and  O_8
REMARK    6  A    between atoms: C_10  and  O_11
REMARK    7  A    between atoms: O_11  and  C_12
REMARK    8  A    between atoms: C_13  and  O_14
REMARK                            x       y       z     vdW  Elec       q    Type
REMARK                         _______ _______ _______ _____ _____    ______ ____
ROOT
ATOM      1  N   UNL     1       4.665   4.301  17.366  0.00  0.00    +0.000 NA
ATOM      2  C   UNL     1       3.706   5.364  17.768  0.00  0.00    +0.000 C 
ATOM      3  C   UNL     1       3.171   5.238  19.210  0.00  0.00    +0.000 C 
ATOM      4  O   UNL     1       2.157   4.229  19.234  0.00  0.00    +0.000 OA
ATOM      5  C   UNL     1       2.630   2.929  19.588  0.00  0.00    +0.000 C 
ATOM      6  C   UNL     1       3.932   2.454  18.881  0.00  0.00    +0.000 C 
ATOM      7  C   UNL     1       4.049   2.949  17.427  0.00  0.00    +0.000 C 
ENDROOT
BRANCH   5   8
ATOM      8  O   UNL     1       2.758   2.798  21.005  0.00  0.00    +0.000 OA
ATOM      9  C   UNL     1       1.503   2.799  21.668  0.00  0.00    +0.000 C 
ENDBRANCH   5   8
BRANCH   6  10
ATOM     10  O   UNL     1       5.136   2.839  19.579  0.00  0.00    +0.000 OA
ATOM     11  H   UNL     1       5.365   2.066  20.136  0.00  0.00    +0.000 HD
ENDBRANCH   6  10
BRANCH   1  12
ATOM     12  C   UNL     1       5.203   4.552  16.012  0.00  0.00    +0.000 C 
BRANCH  12  14
ATOM     13  C   UNL     1       7.441   4.581  17.247  0.00  0.00    +0.000 C 
ATOM     14  C   UNL     1       6.734   4.472  15.902  0.00  0.00    +0.000 C 
ENDBRANCH  12  14
ENDBRANCH   1  12
BRANCH   3  15
ATOM     15  C   UNL     1       2.513   6.553  19.658  0.00  0.00    +0.000 C 
BRANCH  15  16
ATOM     16  O   UNL     1       1.910   6.424  20.944  0.00  0.00    +0.000 OA
ATOM     17  H   UNL     1       1.097   6.961  20.900  0.00  0.00    +0.000 HD
ENDBRANCH  15  16
ENDBRANCH   3  15
TORSDOF 6
ENDMDL
MODEL 4
REMARK VINA RESULT:      -5.7      1.445      3.223
REMARK  Name = 
REMARK  8 active torsions:
REMARK  status: ('A' for Active; 'I' for Inactive)
REMARK    1  A    between atoms: C_1  and  C_2
REMARK    2  A    between atoms: C_2  and  C_3
REMARK    3  A    between atoms: C_3  and  N_4
REMARK    4  A    between atoms: C_6  and  C_7
REMARK    5  A    between atoms: C_7  and  O_8
REMARK    6  A    between atoms: C_10  and  O_11
REMARK    7  A    between atoms: O_11  and  C_12
REMARK    8  A    between atoms: C_13  and  O_14
REMARK                            x       y       z     vdW  Elec       q    Type
REMARK                         _______ _______ _______ _____ _____    ______ ____
ROOT
ATOM      1  N   UNL     1       4.208   3.564  17.583  0.00  0.00    +0.000 NA
ATOM      2  C   UNL     1       4.715   3.833  16.211  0.00  0.00    +0.000 C 
ATOM      3  C   UNL     1       6.056   4.593  16.157  0.00  0.00    +0.000 C 
ATOM      4  O   UNL     1       5.806   5.980  16.403  0.00  0.00    +0.000 OA
ATOM      5  C   UNL     1       5.954   6.371  17.768  0.00  0.00    +0.000 C 
ATOM      6  C   UNL     1       5.287   5.444  18.825  0.00  0.00    +0.000 C 
ATOM      7  C   UNL     1       3.966   4.821  18.339  0.00  0.00    +0.000 C 
ENDROOT
BRANCH   5   8
ATOM      8  O   UNL     1       7.329   6.587  18.093  0.00  0.00    +0.000 OA
ATOM      9  C   UNL     1       7.799   7.854  17.656  0.00  0.00    +0.000 C 
ENDBRANCH   5   8
BRANCH   6  10
ATOM     10  O   UNL     1       6.147   4.372  19.270  0.00  0.00    +0.000 OA
ATOM     11  H   UNL     1       7.038   4.773  19.336  0.00  0.00    +0.000 HD
ENDBRANCH   6  10
BRANCH   1  12
ATOM     12  C   UNL     1       2.976   2.749  17.546  0.00  0.00    +0.000 C 
BRANCH  12  14
ATOM     13  C   UNL     1       0.911   2.650  19.050  0.00  0.00    +0.000 C 
ATOM     14  C   UNL     1       1.712   3.468  18.045  0.00  0.00    +0.000 C 
ENDBRANCH  12  14
ENDBRANCH   1  12
BRANCH   3  15
ATOM     15  C   UNL     1       6.680   4.486  14.756  0.00  0.00    +0.000 C 
BRANCH  15  16
ATOM     16  O   UNL     1       7.739   5.425  14.582  0.00  0.00    +0.000 OA
ATOM     17  H   UNL     1       8.527   4.996  14.964  0.00  0.00    +0.000 HD
ENDBRANCH  15  16
ENDBRANCH   3  15
TORSDOF 6
ENDMDL
MODEL 5
REMARK VINA RESULT:      -5.7      2.856      5.335
REMARK  Name = 
REMARK  8 active torsions:
REMARK  status: ('A' for Active; 'I' for Inactive)
REMARK    1  A    between atoms: C_1  and  C_2
REMARK    2  A    between atoms: C_2  and  C_3
REMARK    3  A    between atoms: C_3  and  N_4
REMARK    4  A    between atoms: C_6  and  C_7
REMARK    5  A    between atoms: C_7  and  O_8
REMARK    6  A    between atoms: C_10  and  O_11
REMARK    7  A    between atoms: O_11  and  C_12
REMARK    8  A    between atoms: C_13  and  O_14
REMARK                            x       y       z     vdW  Elec       q    Type
REMARK                         _______ _______ _______ _____ _____    ______ ____
ROOT
ATOM      1  N   UNL     1       4.749   4.808  17.267  0.00  0.00    +0.000 NA
ATOM      2  C   UNL     1       3.726   5.791  17.712  0.00  0.00    +0.000 C 
ATOM      3  C   UNL     1       3.179   5.554  19.135  0.00  0.00    +0.000 C 
ATOM      4  O   UNL     1       2.224   4.490  19.085  0.00  0.00    +0.000 OA
ATOM      5  C   UNL     1       2.766   3.200  19.373  0.00  0.00    +0.000 C 
ATOM      6  C   UNL     1       4.102   2.840  18.664  0.00  0.00    +0.000 C 
ATOM      7  C   UNL     1       4.211   3.423  17.242  0.00  0.00    +0.000 C 
ENDROOT
BRANCH   5   8
ATOM      8  O   UNL     1       2.881   2.997  20.784  0.00  0.00    +0.000 OA
ATOM      9  C   UNL     1       1.618   2.929  21.430  0.00  0.00    +0.000 C 
ENDBRANCH   5   8
BRANCH   6  10
ATOM     10  O   UNL     1       5.272   3.252  19.403  0.00  0.00    +0.000 OA
ATOM     11  H   UNL     1       5.774   3.825  18.786  0.00  0.00    +0.000 HD
ENDBRANCH   6  10
BRANCH   1  12
ATOM     12  C   UNL     1       5.291   5.166  15.939  0.00  0.00    +0.000 C 
BRANCH  12  14
ATOM     13  C   UNL     1       6.084   3.936  13.844  0.00  0.00    +0.000 C 
ATOM     14  C   UNL     1       6.266   4.138  15.342  0.00  0.00    +0.000 C 
ENDBRANCH  12  14
ENDBRANCH   1  12
BRANCH   3  15
ATOM     15  C   UNL     1       2.441   6.802  19.645  0.00  0.00    +0.000 C 
BRANCH  15  16
ATOM     16  O   UNL     1       1.959   6.619  20.974  0.00  0.00    +0.000 OA
ATOM     17  H   UNL     1       1.732   7.513  21.289  0.00  0.00    +0.000 HD
ENDBRANCH  15  16
ENDBRANCH   3  15
TORSDOF 6
ENDMDL
MODEL 6
REMARK VINA RESULT:      -5.7      0.692      1.028
REMARK  Name = 
REMARK  8 active torsions:
REMARK  status: ('A' for Active; 'I' for Inactive)
REMARK    1  A    between atoms: C_1  and  C_2
REMARK    2  A    between atoms: C_2  and  C_3
REMARK    3  A    between atoms: C_3  and  N_4
REMARK    4  A    between atoms: C_6  and  C_7
REMARK    5  A    between atoms: C_7  and  O_8
REMARK    6  A    between atoms: C_10  and  O_11
REMARK    7  A    between atoms: O_11  and  C_12
REMARK    8  A    between atoms: C_13  and  O_14
REMARK                            x       y       z     vdW  Elec       q    Type
REMARK                         _______ _______ _______ _____ _____    ______ ____
ROOT
ATOM      1  N   UNL     1       4.476   4.710  18.324  0.00  0.00    +0.000 NA
ATOM      2  C   UNL     1       5.755   4.878  19.064  0.00  0.00    +0.000 C 
ATOM      3  C   UNL     1       6.908   5.477  18.231  0.00  0.00    +0.000 C 
ATOM      4  O   UNL     1       7.452   4.449  17.400  0.00  0.00    +0.000 OA
ATOM      5  C   UNL     1       6.895   4.398  16.086  0.00  0.00    +0.000 C 
ATOM      6  C   UNL     1       5.345   4.487  15.992  0.00  0.00    +0.000 C 
ATOM      7  C   UNL     1       4.625   3.793  17.163  0.00  0.00    +0.000 C 
ENDROOT
BRANCH   5   8
ATOM      8  O   UNL     1       7.502   5.373  15.235  0.00  0.00    +0.000 OA
ATOM      9  C   UNL     1       7.410   5.030  13.860  0.00  0.00    +0.000 C 
ENDBRANCH   5   8
BRANCH   6  10
ATOM     10  O   UNL     1       4.853   5.842  15.909  0.00  0.00    +0.000 OA
ATOM     11  H   UNL     1       4.449   6.019  16.783  0.00  0.00    +0.000 HD
ENDBRANCH   6  10
BRANCH   1  12
ATOM     12  C   UNL     1       3.402   4.226  19.217  0.00  0.00    +0.000 C 
BRANCH  12  14
ATOM     13  C   UNL     1       2.464   6.569  19.622  0.00  0.00    +0.000 C 
ATOM     14  C   UNL     1       2.153   5.121  19.267  0.00  0.00    +0.000 C 
ENDBRANCH  12  14
ENDBRANCH   1  12
BRANCH   3  15
ATOM     15  C   UNL     1       8.039   5.965  19.150  0.00  0.00    +0.000 C 
BRANCH  15  16
ATOM     16  O   UNL     1       7.902   5.444  20.471  0.00  0.00    +0.000 OA
ATOM     17  H   UNL     1       7.892   6.225  21.054  0.00  0.00    +0.000 HD
ENDBRANCH  15  16
ENDBRANCH   3  15
TORSDOF 6
ENDMDL
MODEL 7
REMARK VINA RESULT:      -5.6      1.580      3.426
REMARK  Name = 
REMARK  8 active torsions:
REMARK  status: ('A' for Active; 'I' for Inactive)
REMARK    1  A    between atoms: C_1  and  C_2
REMARK    2  A    between atoms: C_2  and  C_3
REMARK    3  A    between atoms: C_3  and  N_4
REMARK    4  A    between atoms: C_6  and  C_7
REMARK    5  A    between atoms: C_7  and  O_8
REMARK    6  A    between atoms: C_10  and  O_11
REMARK    7  A    between atoms: O_11  and  C_12
REMARK    8  A    between atoms: C_13  and  O_14
REMARK                            x       y       z     vdW  Elec       q    Type
REMARK                         _______ _______ _______ _____ _____    ______ ____
ROOT
ATOM      1  N   UNL     1       4.800   3.620  18.218  0.00  0.00    +0.000 NA
ATOM      2  C   UNL     1       4.551   3.781  16.761  0.00  0.00    +0.000 C 
ATOM      3  C   UNL     1       5.597   4.639  16.019  0.00  0.00    +0.000 C 
ATOM      4  O   UNL     1       5.326   6.019  16.282  0.00  0.00    +0.000 OA
ATOM      5  C   UNL     1       6.060   6.564  17.379  0.00  0.00    +0.000 C 
ATOM      6  C   UNL     1       6.101   5.704  18.675  0.00  0.00    +0.000 C 
ATOM      7  C   UNL     1       4.796   4.926  18.928  0.00  0.00    +0.000 C 
ENDROOT
BRANCH   5   8
ATOM      8  O   UNL     1       7.384   6.925  16.980  0.00  0.00    +0.000 OA
ATOM      9  C   UNL     1       7.840   8.111  17.614  0.00  0.00    +0.000 C 
ENDBRANCH   5   8
BRANCH   6  10
ATOM     10  O   UNL     1       7.193   4.759  18.700  0.00  0.00    +0.000 OA
ATOM     11  H   UNL     1       6.766   3.877  18.694  0.00  0.00    +0.000 HD
ENDBRANCH   6  10
BRANCH   1  12
ATOM     12  C   UNL     1       3.812   2.706  18.830  0.00  0.00    +0.000 C 
BRANCH  12  14
ATOM     13  C   UNL     1       1.273   2.600  18.555  0.00  0.00    +0.000 C 
ATOM     14  C   UNL     1       2.631   2.331  17.920  0.00  0.00    +0.000 C 
ENDBRANCH  12  14
ENDBRANCH   1  12
BRANCH   3  15
ATOM     15  C   UNL     1       5.482   4.435  14.500  0.00  0.00    +0.000 C 
BRANCH  15  16
ATOM     16  O   UNL     1       6.356   3.404  14.043  0.00  0.00    +0.000 OA
ATOM     17  H   UNL     1       6.093   3.237  13.119  0.00  0.00    +0.000 HD
ENDBRANCH  15  16
ENDBRANCH   3  15
TORSDOF 6
ENDMDL
MODEL 8
REMARK VINA RESULT:      -5.6      1.743      3.499
REMARK  Name = 
REMARK  8 active torsions:
REMARK  status: ('A' for Active; 'I' for Inactive)
REMARK    1  A    between atoms: C_1  and  C_2
REMARK    2  A    between atoms: C_2  and  C_3
REMARK    3  A    between atoms: C_3  and  N_4
REMARK    4  A    between atoms: C_6  and  C_7
REMARK    5  A    between atoms: C_7  and  O_8
REMARK    6  A    between atoms: C_10  and  O_11
REMARK    7  A    between atoms: O_11  and  C_12
REMARK    8  A    between atoms: C_13  and  O_14
REMARK                            x       y       z     vdW  Elec       q    Type
REMARK                         _______ _______ _______ _____ _____    ______ ____
ROOT
ATOM      1  N   UNL     1       4.569   3.983  17.356  0.00  0.00    +0.000 NA
ATOM      2  C   UNL     1       5.009   4.136  15.944  0.00  0.00    +0.000 C 
ATOM      3  C   UNL     1       6.342   4.890  15.762  0.00  0.00    +0.000 C 
ATOM      4  O   UNL     1       6.096   6.292  15.901  0.00  0.00    +0.000 OA
ATOM      5  C   UNL     1       6.307   6.797  17.220  0.00  0.00    +0.000 C 
ATOM      6  C   UNL     1       5.695   5.963  18.382  0.00  0.00    +0.000 C 
ATOM      7  C   UNL     1       4.356   5.299  18.014  0.00  0.00    +0.000 C 
ENDROOT
BRANCH   5   8
ATOM      8  O   UNL     1       7.694   7.042  17.460  0.00  0.00    +0.000 OA
ATOM      9  C   UNL     1       7.959   8.396  17.796  0.00  0.00    +0.000 C 
ENDBRANCH   5   8
BRANCH   6  10
ATOM     10  O   UNL     1       6.580   4.933  18.875  0.00  0.00    +0.000 OA
ATOM     11  H   UNL     1       6.023   4.130  18.939  0.00  0.00    +0.000 HD
ENDBRANCH   6  10
BRANCH   1  12
ATOM     12  C   UNL     1       3.340   3.166  17.447  0.00  0.00    +0.000 C 
BRANCH  12  14
ATOM     13  C   UNL     1       4.098   2.085  19.635  0.00  0.00    +0.000 C 
ATOM     14  C   UNL     1       3.488   1.868  18.257  0.00  0.00    +0.000 C 
ENDBRANCH  12  14
ENDBRANCH   1  12
BRANCH   3  15
ATOM     15  C   UNL     1       6.900   4.665  14.347  0.00  0.00    +0.000 C 
BRANCH  15  16
ATOM     16  O   UNL     1       7.929   5.602  14.036  0.00  0.00    +0.000 OA
ATOM     17  H   UNL     1       8.099   6.081  14.867  0.00  0.00    +0.000 HD
ENDBRANCH  15  16
ENDBRANCH   3  15
TORSDOF 6
ENDMDL
MODEL 9
REMARK VINA RESULT:      -5.5      2.701      5.199
REMARK  Name = 
REMARK  8 active torsions:
REMARK  status: ('A' for Active; 'I' for Inactive)
REMARK    1  A    between atoms: C_1  and  C_2
REMARK    2  A    between atoms: C_2  and  C_3
REMARK    3  A    between atoms: C_3  and  N_4
REMARK    4  A    between atoms: C_6  and  C_7
REMARK    5  A    between atoms: C_7  and  O_8
REMARK    6  A    between atoms: C_10  and  O_11
REMARK    7  A    between atoms: O_11  and  C_12
REMARK    8  A    between atoms: C_13  and  O_14
REMARK                            x       y       z     vdW  Elec       q    Type
REMARK                         _______ _______ _______ _____ _____    ______ ____
ROOT
ATOM      1  N   UNL     1       5.350   5.325  17.588  0.00  0.00    +0.000 NA
ATOM      2  C   UNL     1       4.259   6.259  17.969  0.00  0.00    +0.000 C 
ATOM      3  C   UNL     1       3.246   5.689  18.984  0.00  0.00    +0.000 C 
ATOM      4  O   UNL     1       2.345   4.821  18.291  0.00  0.00    +0.000 OA
ATOM      5  C   UNL     1       2.723   3.444  18.309  0.00  0.00    +0.000 C 
ATOM      6  C   UNL     1       4.215   3.136  17.993  0.00  0.00    +0.000 C 
ATOM      7  C   UNL     1       4.823   4.090  16.948  0.00  0.00    +0.000 C 
ENDROOT
BRANCH   5   8
ATOM      8  O   UNL     1       2.337   2.824  19.538  0.00  0.00    +0.000 OA
ATOM      9  C   UNL     1       0.949   2.960  19.804  0.00  0.00    +0.000 C 
ENDBRANCH   5   8
BRANCH   6  10
ATOM     10  O   UNL     1       5.064   3.157  19.161  0.00  0.00    +0.000 OA
ATOM     11  H   UNL     1       5.313   2.221  19.310  0.00  0.00    +0.000 HD
ENDBRANCH   6  10
BRANCH   1  12
ATOM     12  C   UNL     1       6.327   5.982  16.694  0.00  0.00    +0.000 C 
BRANCH  12  14
ATOM     13  C   UNL     1       7.874   6.328  18.700  0.00  0.00    +0.000 C 
ATOM     14  C   UNL     1       7.327   6.910  17.403  0.00  0.00    +0.000 C 
ENDBRANCH  12  14
ENDBRANCH   1  12
BRANCH   3  15
ATOM     15  C   UNL     1       2.405   6.819  19.599  0.00  0.00    +0.000 C 
BRANCH  15  16
ATOM     16  O   UNL     1       1.913   6.462  20.889  0.00  0.00    +0.000 OA
ATOM     17  H   UNL     1       1.772   7.307  21.353  0.00  0.00    +0.000 HD
ENDBRANCH  15  16
ENDBRANCH   3  15
TORSDOF 6
ENDMDL
