MODEL 1
REMARK VINA RESULT:      -8.0      0.000      0.000
REMARK  Name = 
REMARK  7 active torsions:
REMARK  status: ('A' for Active; 'I' for Inactive)
REMARK    1  A    between atoms: C_1  and  C_2
REMARK    2  A    between atoms: C_5  and  S_6
REMARK    3  A    between atoms: S_6  and  N_9
REMARK    4  A    between atoms: N_9  and  C_10
REMARK    5  A    between atoms: C_12  and  C_13
REMARK    6  A    between atoms: N_15  and  C_16
REMARK    7  A    between atoms: C_16  and  C_17
REMARK                            x       y       z     vdW  Elec       q    Type
REMARK                         _______ _______ _______ _____ _____    ______ ____
ROOT
ATOM      1  C   UNL     1       0.536  10.101  19.336  0.00  0.00    +0.000 A 
ATOM      2  C   UNL     1       0.159  10.244  20.611  0.00  0.00    +0.000 A 
ATOM      3  C   UNL     1       0.453   9.214  21.582  0.00  0.00    +0.000 A 
ATOM      4  C   UNL     1      -0.129   9.353  22.955  0.00  0.00    +0.000 C 
ATOM      5  C   UNL     1       1.229   8.177  21.227  0.00  0.00    +0.000 A 
ATOM      6  N   UNL     1       1.733   8.044  19.941  0.00  0.00    +0.000 N 
ATOM      7  C   UNL     1       1.403   8.942  18.919  0.00  0.00    +0.000 A 
ATOM      8  O   UNL     1       1.800   8.844  17.758  0.00  0.00    +0.000 OA
ENDROOT
BRANCH   1   9
ATOM      9  N   UNL     1       0.258  11.152  18.424  0.00  0.00    +0.000 N 
ATOM     10  H   UNL     1       0.917  11.321  17.668  0.00  0.00    +0.000 HD
BRANCH   9  11
ATOM     11  S   UNL     1      -0.574  12.518  18.930  0.00  0.00    +0.000 S 
ATOM     12  O   UNL     1      -0.256  13.541  17.958  0.00  0.00    +0.000 OA
ATOM     13  O   UNL     1      -0.372  12.756  20.346  0.00  0.00    +0.000 OA
BRANCH  11  18
ATOM     14  C   UNL     1      -6.404  11.017  18.226  0.00  0.00    +0.000 C 
ATOM     15  C   UNL     1      -4.962  11.388  18.397  0.00  0.00    +0.000 A 
ATOM     16  C   UNL     1      -4.547  12.126  19.511  0.00  0.00    +0.000 A 
ATOM     17  C   UNL     1      -3.207  12.471  19.667  0.00  0.00    +0.000 A 
ATOM     18  C   UNL     1      -2.270  12.059  18.717  0.00  0.00    +0.000 A 
ATOM     19  C   UNL     1      -2.669  11.334  17.591  0.00  0.00    +0.000 A 
ATOM     20  C   UNL     1      -4.017  11.002  17.434  0.00  0.00    +0.000 A 
ENDBRANCH  11  18
ENDBRANCH   9  11
ENDBRANCH   1   9
BRANCH   6  21
ATOM     21  C   UNL     1       2.699   6.981  19.659  0.00  0.00    +0.000 C 
BRANCH  21  22
ATOM     22  C   UNL     1       2.082   5.628  19.382  0.00  0.00    +0.000 A 
ATOM     23  C   UNL     1       2.063   5.117  18.074  0.00  0.00    +0.000 A 
ATOM     24  C   UNL     1       1.566   3.838  17.820  0.00  0.00    +0.000 A 
ATOM     25  C   UNL     1       1.077   3.071  18.869  0.00  0.00    +0.000 A 
ATOM     26  F   UNL     1       0.613   1.838  18.626  0.00  0.00    +0.000 F 
ATOM     27  C   UNL     1       1.066   3.563  20.168  0.00  0.00    +0.000 A 
ATOM     28  C   UNL     1       1.566   4.841  20.427  0.00  0.00    +0.000 A 
ENDBRANCH  21  22
ENDBRANCH   6  21
TORSDOF 5
ENDMDL
MODEL 2
REMARK VINA RESULT:      -8.0      5.080      8.860
REMARK  Name = 
REMARK  7 active torsions:
REMARK  status: ('A' for Active; 'I' for Inactive)
REMARK    1  A    between atoms: C_1  and  C_2
REMARK    2  A    between atoms: C_5  and  S_6
REMARK    3  A    between atoms: S_6  and  N_9
REMARK    4  A    between atoms: N_9  and  C_10
REMARK    5  A    between atoms: C_12  and  C_13
REMARK    6  A    between atoms: N_15  and  C_16
REMARK    7  A    between atoms: C_16  and  C_17
REMARK                            x       y       z     vdW  Elec       q    Type
REMARK                         _______ _______ _______ _____ _____    ______ ____
ROOT
ATOM      1  C   UNL     1       3.983   3.634  18.643  0.00  0.00    +0.000 A 
ATOM      2  C   UNL     1       2.920   2.900  18.296  0.00  0.00    +0.000 A 
ATOM      3  C   UNL     1       1.642   3.112  18.939  0.00  0.00    +0.000 A 
ATOM      4  C   UNL     1       0.530   2.160  18.625  0.00  0.00    +0.000 C 
ATOM      5  C   UNL     1       1.494   4.143  19.785  0.00  0.00    +0.000 A 
ATOM      6  N   UNL     1       2.544   4.998  20.092  0.00  0.00    +0.000 N 
ATOM      7  C   UNL     1       3.837   4.792  19.595  0.00  0.00    +0.000 A 
ATOM      8  O   UNL     1       4.803   5.504  19.867  0.00  0.00    +0.000 OA
ENDROOT
BRANCH   1   9
ATOM      9  N   UNL     1       5.210   3.417  17.963  0.00  0.00    +0.000 N 
ATOM     10  H   UNL     1       6.023   3.147  18.510  0.00  0.00    +0.000 HD
BRANCH   9  11
ATOM     11  S   UNL     1       5.572   4.278  16.570  0.00  0.00    +0.000 S 
ATOM     12  O   UNL     1       4.302   4.772  16.085  0.00  0.00    +0.000 OA
ATOM     13  O   UNL     1       6.449   3.519  15.701  0.00  0.00    +0.000 OA
BRANCH  11  18
ATOM     14  C   UNL     1       8.703   9.032  18.653  0.00  0.00    +0.000 C 
ATOM     15  C   UNL     1       7.929   7.855  18.141  0.00  0.00    +0.000 A 
ATOM     16  C   UNL     1       6.918   8.031  17.190  0.00  0.00    +0.000 A 
ATOM     17  C   UNL     1       6.199   6.936  16.716  0.00  0.00    +0.000 A 
ATOM     18  C   UNL     1       6.505   5.654  17.178  0.00  0.00    +0.000 A 
ATOM     19  C   UNL     1       7.502   5.461  18.137  0.00  0.00    +0.000 A 
ATOM     20  C   UNL     1       8.210   6.566  18.618  0.00  0.00    +0.000 A 
ENDBRANCH  11  18
ENDBRANCH   9  11
ENDBRANCH   1   9
BRANCH   6  21
ATOM     21  C   UNL     1       2.281   6.193  20.895  0.00  0.00    +0.000 C 
BRANCH  21  22
ATOM     22  C   UNL     1       1.890   7.416  20.094  0.00  0.00    +0.000 A 
ATOM     23  C   UNL     1       1.149   8.445  20.696  0.00  0.00    +0.000 A 
ATOM     24  C   UNL     1       0.849   9.610  19.989  0.00  0.00    +0.000 A 
ATOM     25  C   UNL     1       1.280   9.745  18.676  0.00  0.00    +0.000 A 
ATOM     26  F   UNL     1       1.005  10.871  18.003  0.00  0.00    +0.000 F 
ATOM     27  C   UNL     1       1.998   8.732  18.052  0.00  0.00    +0.000 A 
ATOM     28  C   UNL     1       2.302   7.566  18.758  0.00  0.00    +0.000 A 
ENDBRANCH  21  22
ENDBRANCH   6  21
TORSDOF 5
ENDMDL
MODEL 3
REMARK VINA RESULT:      -7.9      3.556      8.081
REMARK  Name = 
REMARK  7 active torsions:
REMARK  status: ('A' for Active; 'I' for Inactive)
REMARK    1  A    between atoms: C_1  and  C_2
REMARK    2  A    between atoms: C_5  and  S_6
REMARK    3  A    between atoms: S_6  and  N_9
REMARK    4  A    between atoms: N_9  and  C_10
REMARK    5  A    between atoms: C_12  and  C_13
REMARK    6  A    between atoms: N_15  and  C_16
REMARK    7  A    between atoms: C_16  and  C_17
REMARK                            x       y       z     vdW  Elec       q    Type
REMARK                         _______ _______ _______ _____ _____    ______ ____
ROOT
ATOM      1  C   UNL     1       2.052   7.821  19.917  0.00  0.00    +0.000 A 
ATOM      2  C   UNL     1       1.324   7.739  21.036  0.00  0.00    +0.000 A 
ATOM      3  C   UNL     1       0.318   8.735  21.331  0.00  0.00    +0.000 A 
ATOM      4  C   UNL     1      -0.354   8.682  22.668  0.00  0.00    +0.000 C 
ATOM      5  C   UNL     1       0.022   9.664  20.409  0.00  0.00    +0.000 A 
ATOM      6  N   UNL     1       0.677   9.722  19.187  0.00  0.00    +0.000 N 
ATOM      7  C   UNL     1       1.736   8.861  18.873  0.00  0.00    +0.000 A 
ATOM      8  O   UNL     1       2.367   8.898  17.817  0.00  0.00    +0.000 OA
ENDROOT
BRANCH   1   9
ATOM      9  N   UNL     1       3.004   6.804  19.649  0.00  0.00    +0.000 N 
ATOM     10  H   UNL     1       3.972   7.078  19.500  0.00  0.00    +0.000 HD
BRANCH   9  11
ATOM     11  S   UNL     1       2.549   5.408  18.837  0.00  0.00    +0.000 S 
ATOM     12  O   UNL     1       1.317   5.745  18.158  0.00  0.00    +0.000 OA
ATOM     13  O   UNL     1       2.620   4.252  19.709  0.00  0.00    +0.000 OA
BRANCH  11  18
ATOM     14  C   UNL     1       6.939   4.819  14.699  0.00  0.00    +0.000 C 
ATOM     15  C   UNL     1       5.854   4.961  15.723  0.00  0.00    +0.000 A 
ATOM     16  C   UNL     1       5.470   6.228  16.177  0.00  0.00    +0.000 A 
ATOM     17  C   UNL     1       4.463   6.359  17.130  0.00  0.00    +0.000 A 
ATOM     18  C   UNL     1       3.820   5.219  17.618  0.00  0.00    +0.000 A 
ATOM     19  C   UNL     1       4.200   3.946  17.187  0.00  0.00    +0.000 A 
ATOM     20  C   UNL     1       5.220   3.822  16.241  0.00  0.00    +0.000 A 
ENDBRANCH  11  18
ENDBRANCH   9  11
ENDBRANCH   1   9
BRANCH   6  21
ATOM     21  C   UNL     1       0.202  10.655  18.165  0.00  0.00    +0.000 C 
BRANCH  21  22
ATOM     22  C   UNL     1      -1.300  10.682  17.987  0.00  0.00    +0.000 A 
ATOM     23  C   UNL     1      -2.080  11.594  18.716  0.00  0.00    +0.000 A 
ATOM     24  C   UNL     1      -3.457  11.679  18.503  0.00  0.00    +0.000 A 
ATOM     25  C   UNL     1      -4.059  10.846  17.569  0.00  0.00    +0.000 A 
ATOM     26  F   UNL     1      -5.378  10.939  17.355  0.00  0.00    +0.000 F 
ATOM     27  C   UNL     1      -3.311   9.921  16.850  0.00  0.00    +0.000 A 
ATOM     28  C   UNL     1      -1.933   9.836  17.059  0.00  0.00    +0.000 A 
ENDBRANCH  21  22
ENDBRANCH   6  21
TORSDOF 5
ENDMDL
MODEL 4
REMARK VINA RESULT:      -7.9      1.403      2.209
REMARK  Name = 
REMARK  7 active torsions:
REMARK  status: ('A' for Active; 'I' for Inactive)
REMARK    1  A    between atoms: C_1  and  C_2
REMARK    2  A    between atoms: C_5  and  S_6
REMARK    3  A    between atoms: S_6  and  N_9
REMARK    4  A    between atoms: N_9  and  C_10
REMARK    5  A    between atoms: C_12  and  C_13
REMARK    6  A    between atoms: N_15  and  C_16
REMARK    7  A    between atoms: C_16  and  C_17
REMARK                            x       y       z     vdW  Elec       q    Type
REMARK                         _______ _______ _______ _____ _____    ______ ____
ROOT
ATOM      1  C   UNL     1       0.198  10.060  19.387  0.00  0.00    +0.000 A 
ATOM      2  C   UNL     1      -0.048  10.230  20.691  0.00  0.00    +0.000 A 
ATOM      3  C   UNL     1       0.452   9.280  21.660  0.00  0.00    +0.000 A 
ATOM      4  C   UNL     1       0.017   9.433  23.085  0.00  0.00    +0.000 C 
ATOM      5  C   UNL     1       1.281   8.304  21.258  0.00  0.00    +0.000 A 
ATOM      6  N   UNL     1       1.650   8.154  19.929  0.00  0.00    +0.000 N 
ATOM      7  C   UNL     1       1.122   8.967  18.917  0.00  0.00    +0.000 A 
ATOM      8  O   UNL     1       1.394   8.848  17.723  0.00  0.00    +0.000 OA
ENDROOT
BRANCH   1   9
ATOM      9  N   UNL     1      -0.282  11.034  18.473  0.00  0.00    +0.000 N 
ATOM     10  H   UNL     1       0.103  11.974  18.525  0.00  0.00    +0.000 HD
BRANCH   9  11
ATOM     11  S   UNL     1      -1.861  10.967  17.912  0.00  0.00    +0.000 S 
ATOM     12  O   UNL     1      -2.285   9.600  18.125  0.00  0.00    +0.000 OA
ATOM     13  O   UNL     1      -1.976  11.579  16.603  0.00  0.00    +0.000 OA
BRANCH  11  18
ATOM     14  C   UNL     1      -4.813  14.570  21.791  0.00  0.00    +0.000 C 
ATOM     15  C   UNL     1      -4.086  13.679  20.830  0.00  0.00    +0.000 A 
ATOM     16  C   UNL     1      -2.690  13.723  20.739  0.00  0.00    +0.000 A 
ATOM     17  C   UNL     1      -2.016  12.895  19.844  0.00  0.00    +0.000 A 
ATOM     18  C   UNL     1      -2.738  12.002  19.049  0.00  0.00    +0.000 A 
ATOM     19  C   UNL     1      -4.132  11.954  19.117  0.00  0.00    +0.000 A 
ATOM     20  C   UNL     1      -4.802  12.797  20.007  0.00  0.00    +0.000 A 
ENDBRANCH  11  18
ENDBRANCH   9  11
ENDBRANCH   1   9
BRANCH   6  21
ATOM     21  C   UNL     1       2.677   7.173  19.578  0.00  0.00    +0.000 C 
BRANCH  21  22
ATOM     22  C   UNL     1       2.155   5.774  19.335  0.00  0.00    +0.000 A 
ATOM     23  C   UNL     1       1.648   5.016  20.402  0.00  0.00    +0.000 A 
ATOM     24  C   UNL     1       1.094   3.755  20.176  0.00  0.00    +0.000 A 
ATOM     25  C   UNL     1       1.055   3.245  18.885  0.00  0.00    +0.000 A 
ATOM     26  F   UNL     1       0.509   2.041  18.667  0.00  0.00    +0.000 F 
ATOM     27  C   UNL     1       1.568   3.968  17.816  0.00  0.00    +0.000 A 
ATOM     28  C   UNL     1       2.120   5.232  18.038  0.00  0.00    +0.000 A 
ENDBRANCH  21  22
ENDBRANCH   6  21
TORSDOF 5
ENDMDL
MODEL 5
REMARK VINA RESULT:      -7.8      1.395      2.011
REMARK  Name = 
REMARK  7 active torsions:
REMARK  status: ('A' for Active; 'I' for Inactive)
REMARK    1  A    between atoms: C_1  and  C_2
REMARK    2  A    between atoms: C_5  and  S_6
REMARK    3  A    between atoms: S_6  and  N_9
REMARK    4  A    between atoms: N_9  and  C_10
REMARK    5  A    between atoms: C_12  and  C_13
REMARK    6  A    between atoms: N_15  and  C_16
REMARK    7  A    between atoms: C_16  and  C_17
REMARK                            x       y       z     vdW  Elec       q    Type
REMARK                         _______ _______ _______ _____ _____    ______ ____
ROOT
ATOM      1  C   UNL     1       0.089  10.167  19.560  0.00  0.00    +0.000 A 
ATOM      2  C   UNL     1      -0.125  10.303  20.873  0.00  0.00    +0.000 A 
ATOM      3  C   UNL     1       0.394   9.328  21.806  0.00  0.00    +0.000 A 
ATOM      4  C   UNL     1      -0.008   9.444  23.243  0.00  0.00    +0.000 C 
ATOM      5  C   UNL     1       1.211   8.360  21.359  0.00  0.00    +0.000 A 
ATOM      6  N   UNL     1       1.548   8.244  20.019  0.00  0.00    +0.000 N 
ATOM      7  C   UNL     1       0.999   9.084  19.041  0.00  0.00    +0.000 A 
ATOM      8  O   UNL     1       1.243   8.996  17.838  0.00  0.00    +0.000 OA
ENDROOT
BRANCH   1   9
ATOM      9  N   UNL     1      -0.408  11.165  18.683  0.00  0.00    +0.000 N 
ATOM     10  H   UNL     1      -0.106  12.126  18.826  0.00  0.00    +0.000 HD
BRANCH   9  11
ATOM     11  S   UNL     1      -1.937  11.018  18.009  0.00  0.00    +0.000 S 
ATOM     12  O   UNL     1      -2.307   9.632  18.198  0.00  0.00    +0.000 OA
ATOM     13  O   UNL     1      -1.987  11.622  16.692  0.00  0.00    +0.000 OA
BRANCH  11  18
ATOM     14  C   UNL     1      -5.438  14.354  21.664  0.00  0.00    +0.000 C 
ATOM     15  C   UNL     1      -4.570  13.529  20.763  0.00  0.00    +0.000 A 
ATOM     16  C   UNL     1      -5.143  12.677  19.812  0.00  0.00    +0.000 A 
ATOM     17  C   UNL     1      -4.335  11.910  18.976  0.00  0.00    +0.000 A 
ATOM     18  C   UNL     1      -2.945  12.009  19.074  0.00  0.00    +0.000 A 
ATOM     19  C   UNL     1      -2.356  12.845  20.027  0.00  0.00    +0.000 A 
ATOM     20  C   UNL     1      -3.173  13.601  20.871  0.00  0.00    +0.000 A 
ENDBRANCH  11  18
ENDBRANCH   9  11
ENDBRANCH   1   9
BRANCH   6  21
ATOM     21  C   UNL     1       2.564   7.270  19.619  0.00  0.00    +0.000 C 
BRANCH  21  22
ATOM     22  C   UNL     1       2.036   5.873  19.380  0.00  0.00    +0.000 A 
ATOM     23  C   UNL     1       2.046   5.327  18.087  0.00  0.00    +0.000 A 
ATOM     24  C   UNL     1       1.632   4.012  17.868  0.00  0.00    +0.000 A 
ATOM     25  C   UNL     1       1.199   3.243  18.940  0.00  0.00    +0.000 A 
ATOM     26  F   UNL     1       0.817   1.976  18.732  0.00  0.00    +0.000 F 
ATOM     27  C   UNL     1       1.162   3.767  20.226  0.00  0.00    +0.000 A 
ATOM     28  C   UNL     1       1.578   5.082  20.449  0.00  0.00    +0.000 A 
ENDBRANCH  21  22
ENDBRANCH   6  21
TORSDOF 5
ENDMDL
MODEL 6
REMARK VINA RESULT:      -7.6      2.685      4.195
REMARK  Name = 
REMARK  7 active torsions:
REMARK  status: ('A' for Active; 'I' for Inactive)
REMARK    1  A    between atoms: C_1  and  C_2
REMARK    2  A    between atoms: C_5  and  S_6
REMARK    3  A    between atoms: S_6  and  N_9
REMARK    4  A    between atoms: N_9  and  C_10
REMARK    5  A    between atoms: C_12  and  C_13
REMARK    6  A    between atoms: N_15  and  C_16
REMARK    7  A    between atoms: C_16  and  C_17
REMARK                            x       y       z     vdW  Elec       q    Type
REMARK                         _______ _______ _______ _____ _____    ______ ____
ROOT
ATOM      1  C   UNL     1      -1.003  11.834  19.695  0.00  0.00    +0.000 A 
ATOM      2  C   UNL     1      -2.068  11.261  19.122  0.00  0.00    +0.000 A 
ATOM      3  C   UNL     1      -1.898  10.301  18.055  0.00  0.00    +0.000 A 
ATOM      4  C   UNL     1      -3.123   9.811  17.346  0.00  0.00    +0.000 C 
ATOM      5  C   UNL     1      -0.662   9.882  17.737  0.00  0.00    +0.000 A 
ATOM      6  N   UNL     1       0.467  10.369  18.380  0.00  0.00    +0.000 N 
ATOM      7  C   UNL     1       0.390  11.380  19.347  0.00  0.00    +0.000 A 
ATOM      8  O   UNL     1       1.367  11.865  19.917  0.00  0.00    +0.000 OA
ENDROOT
BRANCH   1   9
ATOM      9  N   UNL     1      -1.214  12.745  20.762  0.00  0.00    +0.000 N 
ATOM     10  H   UNL     1      -0.869  13.696  20.658  0.00  0.00    +0.000 HD
BRANCH   9  11
ATOM     11  S   UNL     1      -1.263  12.199  22.347  0.00  0.00    +0.000 S 
ATOM     12  O   UNL     1      -0.420  13.109  23.091  0.00  0.00    +0.000 OA
ATOM     13  O   UNL     1      -1.042  10.768  22.412  0.00  0.00    +0.000 OA
BRANCH  11  18
ATOM     14  C   UNL     1      -7.042  13.157  23.905  0.00  0.00    +0.000 C 
ATOM     15  C   UNL     1      -5.613  12.918  23.522  0.00  0.00    +0.000 A 
ATOM     16  C   UNL     1      -5.199  13.074  22.195  0.00  0.00    +0.000 A 
ATOM     17  C   UNL     1      -3.870  12.851  21.841  0.00  0.00    +0.000 A 
ATOM     18  C   UNL     1      -2.944  12.489  22.821  0.00  0.00    +0.000 A 
ATOM     19  C   UNL     1      -3.343  12.314  24.149  0.00  0.00    +0.000 A 
ATOM     20  C   UNL     1      -4.679  12.528  24.494  0.00  0.00    +0.000 A 
ENDBRANCH  11  18
ENDBRANCH   9  11
ENDBRANCH   1   9
BRANCH   6  21
ATOM     21  C   UNL     1       1.767   9.760  18.100  0.00  0.00    +0.000 C 
BRANCH  21  22
ATOM     22  C   UNL     1       1.985   8.414  18.753  0.00  0.00    +0.000 A 
ATOM     23  C   UNL     1       1.627   8.216  20.097  0.00  0.00    +0.000 A 
ATOM     24  C   UNL     1       1.754   6.958  20.686  0.00  0.00    +0.000 A 
ATOM     25  C   UNL     1       2.248   5.897  19.939  0.00  0.00    +0.000 A 
ATOM     26  F   UNL     1       2.355   4.685  20.502  0.00  0.00    +0.000 F 
ATOM     27  C   UNL     1       2.628   6.072  18.614  0.00  0.00    +0.000 A 
ATOM     28  C   UNL     1       2.500   7.330  18.020  0.00  0.00    +0.000 A 
ENDBRANCH  21  22
ENDBRANCH   6  21
TORSDOF 5
ENDMDL
MODEL 7
REMARK VINA RESULT:      -7.6      3.749      8.342
REMARK  Name = 
REMARK  7 active torsions:
REMARK  status: ('A' for Active; 'I' for Inactive)
REMARK    1  A    between atoms: C_1  and  C_2
REMARK    2  A    between atoms: C_5  and  S_6
REMARK    3  A    between atoms: S_6  and  N_9
REMARK    4  A    between atoms: N_9  and  C_10
REMARK    5  A    between atoms: C_12  and  C_13
REMARK    6  A    between atoms: N_15  and  C_16
REMARK    7  A    between atoms: C_16  and  C_17
REMARK                            x       y       z     vdW  Elec       q    Type
REMARK                         _______ _______ _______ _____ _____    ______ ____
ROOT
ATOM      1  C   UNL     1      -0.559  10.788  19.940  0.00  0.00    +0.000 A 
ATOM      2  C   UNL     1      -0.971  10.305  18.762  0.00  0.00    +0.000 A 
ATOM      3  C   UNL     1      -2.244  10.711  18.210  0.00  0.00    +0.000 A 
ATOM      4  C   UNL     1      -2.726  10.021  16.971  0.00  0.00    +0.000 C 
ATOM      5  C   UNL     1      -2.947  11.681  18.817  0.00  0.00    +0.000 A 
ATOM      6  N   UNL     1      -2.504  12.287  19.983  0.00  0.00    +0.000 N 
ATOM      7  C   UNL     1      -1.336  11.873  20.637  0.00  0.00    +0.000 A 
ATOM      8  O   UNL     1      -0.924  12.359  21.690  0.00  0.00    +0.000 OA
ENDROOT
BRANCH   1   9
ATOM      9  N   UNL     1       0.712  10.390  20.429  0.00  0.00    +0.000 N 
ATOM     10  H   UNL     1       1.533  10.604  19.868  0.00  0.00    +0.000 HD
BRANCH   9  11
ATOM     11  S   UNL     1       0.865   9.013  21.375  0.00  0.00    +0.000 S 
ATOM     12  O   UNL     1      -0.489   8.575  21.634  0.00  0.00    +0.000 OA
ATOM     13  O   UNL     1       1.793   9.232  22.467  0.00  0.00    +0.000 OA
BRANCH  11  18
ATOM     14  C   UNL     1       3.400   4.979  17.627  0.00  0.00    +0.000 C 
ATOM     15  C   UNL     1       2.772   5.979  18.551  0.00  0.00    +0.000 A 
ATOM     16  C   UNL     1       2.245   5.572  19.781  0.00  0.00    +0.000 A 
ATOM     17  C   UNL     1       1.660   6.503  20.639  0.00  0.00    +0.000 A 
ATOM     18  C   UNL     1       1.621   7.850  20.275  0.00  0.00    +0.000 A 
ATOM     19  C   UNL     1       2.131   8.271  19.044  0.00  0.00    +0.000 A 
ATOM     20  C   UNL     1       2.703   7.331  18.184  0.00  0.00    +0.000 A 
ENDBRANCH  11  18
ENDBRANCH   9  11
ENDBRANCH   1   9
BRANCH   6  21
ATOM     21  C   UNL     1      -3.231  13.443  20.508  0.00  0.00    +0.000 C 
BRANCH  21  22
ATOM     22  C   UNL     1      -4.307  13.105  21.517  0.00  0.00    +0.000 A 
ATOM     23  C   UNL     1      -4.011  13.109  22.890  0.00  0.00    +0.000 A 
ATOM     24  C   UNL     1      -5.014  12.873  23.831  0.00  0.00    +0.000 A 
ATOM     25  C   UNL     1      -6.311  12.623  23.404  0.00  0.00    +0.000 A 
ATOM     26  F   UNL     1      -7.276  12.412  24.309  0.00  0.00    +0.000 F 
ATOM     27  C   UNL     1      -6.624  12.595  22.050  0.00  0.00    +0.000 A 
ATOM     28  C   UNL     1      -5.623  12.833  21.105  0.00  0.00    +0.000 A 
ENDBRANCH  21  22
ENDBRANCH   6  21
TORSDOF 5
ENDMDL
MODEL 8
REMARK VINA RESULT:      -7.5      2.777      4.285
REMARK  Name = 
REMARK  7 active torsions:
REMARK  status: ('A' for Active; 'I' for Inactive)
REMARK    1  A    between atoms: C_1  and  C_2
REMARK    2  A    between atoms: C_5  and  S_6
REMARK    3  A    between atoms: S_6  and  N_9
REMARK    4  A    between atoms: N_9  and  C_10
REMARK    5  A    between atoms: C_12  and  C_13
REMARK    6  A    between atoms: N_15  and  C_16
REMARK    7  A    between atoms: C_16  and  C_17
REMARK                            x       y       z     vdW  Elec       q    Type
REMARK                         _______ _______ _______ _____ _____    ______ ____
ROOT
ATOM      1  C   UNL     1      -1.335  12.083  19.777  0.00  0.00    +0.000 A 
ATOM      2  C   UNL     1      -2.351  11.430  19.201  0.00  0.00    +0.000 A 
ATOM      3  C   UNL     1      -2.101  10.454  18.164  0.00  0.00    +0.000 A 
ATOM      4  C   UNL     1      -3.279   9.871  17.448  0.00  0.00    +0.000 C 
ATOM      5  C   UNL     1      -0.836  10.105  17.879  0.00  0.00    +0.000 A 
ATOM      6  N   UNL     1       0.248  10.679  18.528  0.00  0.00    +0.000 N 
ATOM      7  C   UNL     1       0.091  11.708  19.466  0.00  0.00    +0.000 A 
ATOM      8  O   UNL     1       1.025  12.268  20.040  0.00  0.00    +0.000 OA
ENDROOT
BRANCH   1   9
ATOM      9  N   UNL     1      -1.622  13.007  20.815  0.00  0.00    +0.000 N 
ATOM     10  H   UNL     1      -1.367  13.982  20.676  0.00  0.00    +0.000 HD
BRANCH   9  11
ATOM     11  S   UNL     1      -1.611  12.513  22.418  0.00  0.00    +0.000 S 
ATOM     12  O   UNL     1      -0.838  13.513  23.121  0.00  0.00    +0.000 OA
ATOM     13  O   UNL     1      -1.274  11.107  22.527  0.00  0.00    +0.000 OA
BRANCH  11  18
ATOM     14  C   UNL     1      -7.435  13.061  24.008  0.00  0.00    +0.000 C 
ATOM     15  C   UNL     1      -5.995  12.923  23.617  0.00  0.00    +0.000 A 
ATOM     16  C   UNL     1      -5.582  13.224  22.315  0.00  0.00    +0.000 A 
ATOM     17  C   UNL     1      -4.243  13.095  21.953  0.00  0.00    +0.000 A 
ATOM     18  C   UNL     1      -3.306  12.681  22.902  0.00  0.00    +0.000 A 
ATOM     19  C   UNL     1      -3.703  12.363  24.203  0.00  0.00    +0.000 A 
ATOM     20  C   UNL     1      -5.049  12.482  24.556  0.00  0.00    +0.000 A 
ENDBRANCH  11  18
ENDBRANCH   9  11
ENDBRANCH   1   9
BRANCH   6  21
ATOM     21  C   UNL     1       1.589  10.146  18.288  0.00  0.00    +0.000 C 
BRANCH  21  22
ATOM     22  C   UNL     1       1.813   8.745  18.814  0.00  0.00    +0.000 A 
ATOM     23  C   UNL     1       2.411   7.773  17.996  0.00  0.00    +0.000 A 
ATOM     24  C   UNL     1       2.691   6.500  18.496  0.00  0.00    +0.000 A 
ATOM     25  C   UNL     1       2.365   6.194  19.811  0.00  0.00    +0.000 A 
ATOM     26  F   UNL     1       2.648   4.977  20.295  0.00  0.00    +0.000 F 
ATOM     27  C   UNL     1       1.755   7.133  20.633  0.00  0.00    +0.000 A 
ATOM     28  C   UNL     1       1.475   8.408  20.136  0.00  0.00    +0.000 A 
ENDBRANCH  21  22
ENDBRANCH   6  21
TORSDOF 5
ENDMDL
MODEL 9
REMARK VINA RESULT:      -7.4      1.328      2.254
REMARK  Name = 
REMARK  7 active torsions:
REMARK  status: ('A' for Active; 'I' for Inactive)
REMARK    1  A    between atoms: C_1  and  C_2
REMARK    2  A    between atoms: C_5  and  S_6
REMARK    3  A    between atoms: S_6  and  N_9
REMARK    4  A    between atoms: N_9  and  C_10
REMARK    5  A    between atoms: C_12  and  C_13
REMARK    6  A    between atoms: N_15  and  C_16
REMARK    7  A    between atoms: C_16  and  C_17
REMARK                            x       y       z     vdW  Elec       q    Type
REMARK                         _______ _______ _______ _____ _____    ______ ____
ROOT
ATOM      1  C   UNL     1       0.144  10.131  19.591  0.00  0.00    +0.000 A 
ATOM      2  C   UNL     1      -0.094  10.246  20.903  0.00  0.00    +0.000 A 
ATOM      3  C   UNL     1       0.415   9.260  21.829  0.00  0.00    +0.000 A 
ATOM      4  C   UNL     1      -0.014   9.351  23.261  0.00  0.00    +0.000 C 
ATOM      5  C   UNL     1       1.246   8.304  21.383  0.00  0.00    +0.000 A 
ATOM      6  N   UNL     1       1.608   8.211  20.047  0.00  0.00    +0.000 N 
ATOM      7  C   UNL     1       1.071   9.063  19.072  0.00  0.00    +0.000 A 
ATOM      8  O   UNL     1       1.337   8.994  17.873  0.00  0.00    +0.000 OA
ENDROOT
BRANCH   1   9
ATOM      9  N   UNL     1      -0.344  11.140  18.721  0.00  0.00    +0.000 N 
ATOM     10  H   UNL     1      -0.321  10.965  17.720  0.00  0.00    +0.000 HD
BRANCH   9  11
ATOM     11  S   UNL     1      -0.215  12.758  19.141  0.00  0.00    +0.000 S 
ATOM     12  O   UNL     1      -0.471  13.492  17.920  0.00  0.00    +0.000 OA
ATOM     13  O   UNL     1       0.990  13.002  19.910  0.00  0.00    +0.000 OA
BRANCH  11  18
ATOM     14  C   UNL     1      -4.942  13.525  22.857  0.00  0.00    +0.000 C 
ATOM     15  C   UNL     1      -3.771  13.336  21.941  0.00  0.00    +0.000 A 
ATOM     16  C   UNL     1      -3.933  12.698  20.706  0.00  0.00    +0.000 A 
ATOM     17  C   UNL     1      -2.843  12.522  19.856  0.00  0.00    +0.000 A 
ATOM     18  C   UNL     1      -1.587  13.003  20.232  0.00  0.00    +0.000 A 
ATOM     19  C   UNL     1      -1.404  13.630  21.467  0.00  0.00    +0.000 A 
ATOM     20  C   UNL     1      -2.499  13.792  22.320  0.00  0.00    +0.000 A 
ENDBRANCH  11  18
ENDBRANCH   9  11
ENDBRANCH   1   9
BRANCH   6  21
ATOM     21  C   UNL     1       2.637   7.250  19.651  0.00  0.00    +0.000 C 
BRANCH  21  22
ATOM     22  C   UNL     1       2.127   5.848  19.400  0.00  0.00    +0.000 A 
ATOM     23  C   UNL     1       1.642   5.074  20.467  0.00  0.00    +0.000 A 
ATOM     24  C   UNL     1       1.098   3.810  20.236  0.00  0.00    +0.000 A 
ATOM     25  C   UNL     1       1.048   3.312  18.941  0.00  0.00    +0.000 A 
ATOM     26  F   UNL     1       0.513   2.104  18.718  0.00  0.00    +0.000 F 
ATOM     27  C   UNL     1       1.540   4.050  17.872  0.00  0.00    +0.000 A 
ATOM     28  C   UNL     1       2.082   5.318  18.099  0.00  0.00    +0.000 A 
ENDBRANCH  21  22
ENDBRANCH   6  21
TORSDOF 5
ENDMDL
