MODEL 1
REMARK VINA RESULT:      -8.1      0.000      0.000
REMARK  Name = 
REMARK  6 active torsions:
REMARK  status: ('A' for Active; 'I' for Inactive)
REMARK    1  A    between atoms: C_1  and  C_2
REMARK    2  A    between atoms: C_4  and  O_5
REMARK    3  A    between atoms: O_5  and  C_6
REMARK    4  A    between atoms: C_9  and  C_10
REMARK    5  A    between atoms: C_13  and  C_14
REMARK    6  A    between atoms: C_19  and  C_20
REMARK                            x       y       z     vdW  Elec       q    Type
REMARK                         _______ _______ _______ _____ _____    ______ ____
ROOT
ATOM      1  C   UNL     1       1.694   2.897  21.482  0.00  0.00    +0.000 C 
ATOM      2  C   UNL     1       2.434   3.916  20.665  0.00  0.00    +0.000 A 
ATOM      3  C   UNL     1       3.584   3.553  19.963  0.00  0.00    +0.000 A 
ATOM      4  C   UNL     1       4.270   4.518  19.229  0.00  0.00    +0.000 A 
ATOM      5  C   UNL     1       3.744   5.804  19.164  0.00  0.00    +0.000 A 
ATOM      6  C   UNL     1       2.589   6.085  19.878  0.00  0.00    +0.000 A 
ATOM      7  N   UNL     1       1.928   5.170  20.650  0.00  0.00    +0.000 NA
ENDROOT
BRANCH   6   8
ATOM      8  C   UNL     1       2.008   7.467  19.855  0.00  0.00    +0.000 C 
ATOM      9  O   UNL     1       2.192   8.179  18.877  0.00  0.00    +0.000 OA
ATOM     10  N   UNL     1       1.334   7.799  21.013  0.00  0.00    +0.000 N 
ATOM     11  C   UNL     1       0.753   9.020  21.193  0.00  0.00    +0.000 A 
ATOM     12  N   UNL     1       0.568   9.978  20.323  0.00  0.00    +0.000 NA
ATOM     13  C   UNL     1      -0.039  11.072  20.934  0.00  0.00    +0.000 A 
ATOM     14  C   UNL     1      -0.273  10.905  22.289  0.00  0.00    +0.000 A 
ATOM     15  S   UNL     1       0.201   9.328  22.779  0.00  0.00    +0.000 S 
ATOM     16  H   UNL     1       1.324   7.130  21.774  0.00  0.00    +0.000 HD
BRANCH  13  17
ATOM     17  C   UNL     1      -0.370  12.282  20.123  0.00  0.00    +0.000 C 
ATOM     18  F   UNL     1      -0.402  11.982  18.793  0.00  0.00    +0.000 F 
ATOM     19  F   UNL     1      -1.612  12.752  20.427  0.00  0.00    +0.000 F 
ENDBRANCH  13  17
ENDBRANCH   6   8
BRANCH   4  20
ATOM     20  O   UNL     1       5.454   4.329  18.560  0.00  0.00    +0.000 OA
BRANCH  20  21
ATOM     21  C   UNL     1       5.754   5.223  17.477  0.00  0.00    +0.000 C 
ATOM     22  C   UNL     1       7.260   5.328  17.271  0.00  0.00    +0.000 C 
ATOM     23  O   UNL     1       7.639   4.394  16.255  0.00  0.00    +0.000 OA
ATOM     24  C   UNL     1       6.480   4.028  15.503  0.00  0.00    +0.000 C 
ATOM     25  C   UNL     1       6.657   4.477  14.059  0.00  0.00    +0.000 C 
ATOM     26  C   UNL     1       5.262   4.673  16.152  0.00  0.00    +0.000 C 
ENDBRANCH  20  21
ENDBRANCH   4  20
TORSDOF 4
ENDMDL
MODEL 2
REMARK VINA RESULT:      -8.0      4.765      8.491
REMARK  Name = 
REMARK  6 active torsions:
REMARK  status: ('A' for Active; 'I' for Inactive)
REMARK    1  A    between atoms: C_1  and  C_2
REMARK    2  A    between atoms: C_4  and  O_5
REMARK    3  A    between atoms: O_5  and  C_6
REMARK    4  A    between atoms: C_9  and  C_10
REMARK    5  A    between atoms: C_13  and  C_14
REMARK    6  A    between atoms: C_19  and  C_20
REMARK                            x       y       z     vdW  Elec       q    Type
REMARK                         _______ _______ _______ _____ _____    ______ ____
ROOT
ATOM      1  C   UNL     1       1.729   2.948  21.678  0.00  0.00    +0.000 C 
ATOM      2  C   UNL     1       2.016   4.074  20.728  0.00  0.00    +0.000 A 
ATOM      3  C   UNL     1       1.703   5.387  21.079  0.00  0.00    +0.000 A 
ATOM      4  C   UNL     1       1.956   6.416  20.173  0.00  0.00    +0.000 A 
ATOM      5  C   UNL     1       2.579   6.106  18.969  0.00  0.00    +0.000 A 
ATOM      6  C   UNL     1       2.873   4.778  18.698  0.00  0.00    +0.000 A 
ATOM      7  N   UNL     1       2.585   3.744  19.546  0.00  0.00    +0.000 NA
ENDROOT
BRANCH   6   8
ATOM      8  C   UNL     1       3.519   4.401  17.399  0.00  0.00    +0.000 C 
ATOM      9  O   UNL     1       3.006   3.537  16.701  0.00  0.00    +0.000 OA
ATOM     10  N   UNL     1       4.695   5.081  17.153  0.00  0.00    +0.000 N 
ATOM     11  C   UNL     1       5.442   4.863  16.032  0.00  0.00    +0.000 A 
ATOM     12  N   UNL     1       5.141   4.167  14.967  0.00  0.00    +0.000 NA
ATOM     13  C   UNL     1       6.204   4.179  14.068  0.00  0.00    +0.000 A 
ATOM     14  C   UNL     1       7.312   4.883  14.512  0.00  0.00    +0.000 A 
ATOM     15  S   UNL     1       6.980   5.602  16.037  0.00  0.00    +0.000 S 
ATOM     16  H   UNL     1       5.040   5.720  17.859  0.00  0.00    +0.000 HD
BRANCH  13  17
ATOM     17  C   UNL     1       6.077   3.464  12.763  0.00  0.00    +0.000 C 
ATOM     18  F   UNL     1       4.804   3.551  12.282  0.00  0.00    +0.000 F 
ATOM     19  F   UNL     1       6.871   4.031  11.813  0.00  0.00    +0.000 F 
ENDBRANCH  13  17
ENDBRANCH   6   8
BRANCH   4  20
ATOM     20  O   UNL     1       1.628   7.738  20.345  0.00  0.00    +0.000 OA
BRANCH  20  21
ATOM     21  C   UNL     1       0.963   8.103  21.565  0.00  0.00    +0.000 C 
ATOM     22  C   UNL     1       1.783   9.130  22.335  0.00  0.00    +0.000 C 
ATOM     23  O   UNL     1       1.303  10.434  21.994  0.00  0.00    +0.000 OA
ATOM     24  C   UNL     1      -0.006  10.315  21.430  0.00  0.00    +0.000 C 
ATOM     25  C   UNL     1      -1.004  11.037  22.326  0.00  0.00    +0.000 C 
ATOM     26  C   UNL     1      -0.336   8.835  21.290  0.00  0.00    +0.000 C 
ENDBRANCH  20  21
ENDBRANCH   4  20
TORSDOF 4
ENDMDL
MODEL 3
REMARK VINA RESULT:      -7.7      5.751      7.712
REMARK  Name = 
REMARK  6 active torsions:
REMARK  status: ('A' for Active; 'I' for Inactive)
REMARK    1  A    between atoms: C_1  and  C_2
REMARK    2  A    between atoms: C_4  and  O_5
REMARK    3  A    between atoms: O_5  and  C_6
REMARK    4  A    between atoms: C_9  and  C_10
REMARK    5  A    between atoms: C_13  and  C_14
REMARK    6  A    between atoms: C_19  and  C_20
REMARK                            x       y       z     vdW  Elec       q    Type
REMARK                         _______ _______ _______ _____ _____    ______ ____
ROOT
ATOM      1  C   UNL     1       7.226   4.719  14.378  0.00  0.00    +0.000 C 
ATOM      2  C   UNL     1       6.667   5.434  15.574  0.00  0.00    +0.000 A 
ATOM      3  C   UNL     1       5.387   5.132  16.039  0.00  0.00    +0.000 A 
ATOM      4  C   UNL     1       4.878   5.823  17.136  0.00  0.00    +0.000 A 
ATOM      5  C   UNL     1       5.693   6.749  17.778  0.00  0.00    +0.000 A 
ATOM      6  C   UNL     1       6.960   6.985  17.265  0.00  0.00    +0.000 A 
ATOM      7  N   UNL     1       7.461   6.361  16.157  0.00  0.00    +0.000 NA
ENDROOT
BRANCH   6   8
ATOM      8  C   UNL     1       7.857   7.996  17.912  0.00  0.00    +0.000 C 
ATOM      9  O   UNL     1       8.615   7.642  18.804  0.00  0.00    +0.000 OA
ATOM     10  N   UNL     1       7.682   9.276  17.426  0.00  0.00    +0.000 N 
ATOM     11  C   UNL     1       8.392  10.340  17.903  0.00  0.00    +0.000 A 
ATOM     12  N   UNL     1       9.418  10.346  18.713  0.00  0.00    +0.000 NA
ATOM     13  C   UNL     1       9.822  11.653  18.968  0.00  0.00    +0.000 A 
ATOM     14  C   UNL     1       9.046  12.617  18.344  0.00  0.00    +0.000 A 
ATOM     15  S   UNL     1       7.851  11.866  17.364  0.00  0.00    +0.000 S 
ATOM     16  H   UNL     1       6.961   9.435  16.732  0.00  0.00    +0.000 HD
BRANCH  13  17
ATOM     17  C   UNL     1      10.998  11.904  19.855  0.00  0.00    +0.000 C 
ATOM     18  F   UNL     1      10.725  11.539  21.140  0.00  0.00    +0.000 F 
ATOM     19  F   UNL     1      12.068  11.151  19.475  0.00  0.00    +0.000 F 
ENDBRANCH  13  17
ENDBRANCH   6   8
BRANCH   4  20
ATOM     20  O   UNL     1       3.612   5.693  17.652  0.00  0.00    +0.000 OA
BRANCH  20  21
ATOM     21  C   UNL     1       3.134   4.364  17.910  0.00  0.00    +0.000 C 
ATOM     22  C   UNL     1       3.823   3.775  19.134  0.00  0.00    +0.000 C 
ATOM     23  O   UNL     1       2.991   4.009  20.274  0.00  0.00    +0.000 OA
ATOM     24  C   UNL     1       1.662   4.296  19.828  0.00  0.00    +0.000 C 
ATOM     25  C   UNL     1       0.719   3.215  20.340  0.00  0.00    +0.000 C 
ATOM     26  C   UNL     1       1.671   4.368  18.307  0.00  0.00    +0.000 C 
ENDBRANCH  20  21
ENDBRANCH   4  20
TORSDOF 4
ENDMDL
MODEL 4
REMARK VINA RESULT:      -7.7      5.601      7.710
REMARK  Name = 
REMARK  6 active torsions:
REMARK  status: ('A' for Active; 'I' for Inactive)
REMARK    1  A    between atoms: C_1  and  C_2
REMARK    2  A    between atoms: C_4  and  O_5
REMARK    3  A    between atoms: O_5  and  C_6
REMARK    4  A    between atoms: C_9  and  C_10
REMARK    5  A    between atoms: C_13  and  C_14
REMARK    6  A    between atoms: C_19  and  C_20
REMARK                            x       y       z     vdW  Elec       q    Type
REMARK                         _______ _______ _______ _____ _____    ______ ____
ROOT
ATOM      1  C   UNL     1       7.058   4.718  14.312  0.00  0.00    +0.000 C 
ATOM      2  C   UNL     1       6.569   5.316  15.599  0.00  0.00    +0.000 A 
ATOM      3  C   UNL     1       5.343   4.923  16.136  0.00  0.00    +0.000 A 
ATOM      4  C   UNL     1       4.897   5.506  17.320  0.00  0.00    +0.000 A 
ATOM      5  C   UNL     1       5.724   6.416  17.968  0.00  0.00    +0.000 A 
ATOM      6  C   UNL     1       6.936   6.746  17.380  0.00  0.00    +0.000 A 
ATOM      7  N   UNL     1       7.372   6.230  16.191  0.00  0.00    +0.000 NA
ENDROOT
BRANCH   6   8
ATOM      8  C   UNL     1       7.843   7.744  18.035  0.00  0.00    +0.000 C 
ATOM      9  O   UNL     1       8.571   7.384  18.949  0.00  0.00    +0.000 OA
ATOM     10  N   UNL     1       7.711   9.021  17.527  0.00  0.00    +0.000 N 
ATOM     11  C   UNL     1       8.436  10.074  18.007  0.00  0.00    +0.000 A 
ATOM     12  N   UNL     1       9.443  10.066  18.840  0.00  0.00    +0.000 NA
ATOM     13  C   UNL     1       9.873  11.367  19.087  0.00  0.00    +0.000 A 
ATOM     14  C   UNL     1       9.136  12.340  18.432  0.00  0.00    +0.000 A 
ATOM     15  S   UNL     1       7.945  11.605  17.435  0.00  0.00    +0.000 S 
ATOM     16  H   UNL     1       7.011   9.188  16.815  0.00  0.00    +0.000 HD
BRANCH  13  17
ATOM     17  C   UNL     1      11.033  11.601  19.998  0.00  0.00    +0.000 C 
ATOM     18  F   UNL     1      11.653  12.779  19.702  0.00  0.00    +0.000 F 
ATOM     19  F   UNL     1      10.626  11.712  21.293  0.00  0.00    +0.000 F 
ENDBRANCH  13  17
ENDBRANCH   6   8
BRANCH   4  20
ATOM     20  O   UNL     1       3.681   5.282  17.918  0.00  0.00    +0.000 OA
BRANCH  20  21
ATOM     21  C   UNL     1       3.645   5.244  19.353  0.00  0.00    +0.000 C 
ATOM     22  C   UNL     1       2.363   5.881  19.873  0.00  0.00    +0.000 C 
ATOM     23  O   UNL     1       1.402   4.843  20.087  0.00  0.00    +0.000 OA
ATOM     24  C   UNL     1       2.083   3.588  20.169  0.00  0.00    +0.000 C 
ATOM     25  C   UNL     1       1.873   2.994  21.555  0.00  0.00    +0.000 C 
ATOM     26  C   UNL     1       3.558   3.822  19.869  0.00  0.00    +0.000 C 
ENDBRANCH  20  21
ENDBRANCH   4  20
TORSDOF 4
ENDMDL
MODEL 5
REMARK VINA RESULT:      -7.7      4.527      8.444
REMARK  Name = 
REMARK  6 active torsions:
REMARK  status: ('A' for Active; 'I' for Inactive)
REMARK    1  A    between atoms: C_1  and  C_2
REMARK    2  A    between atoms: C_4  and  O_5
REMARK    3  A    between atoms: O_5  and  C_6
REMARK    4  A    between atoms: C_9  and  C_10
REMARK    5  A    between atoms: C_13  and  C_14
REMARK    6  A    between atoms: C_19  and  C_20
REMARK                            x       y       z     vdW  Elec       q    Type
REMARK                         _______ _______ _______ _____ _____    ______ ____
ROOT
ATOM      1  C   UNL     1       0.189   9.654  22.645  0.00  0.00    +0.000 C 
ATOM      2  C   UNL     1       0.185   9.689  21.144  0.00  0.00    +0.000 A 
ATOM      3  C   UNL     1      -0.771  10.441  20.461  0.00  0.00    +0.000 A 
ATOM      4  C   UNL     1      -0.772  10.443  19.068  0.00  0.00    +0.000 A 
ATOM      5  C   UNL     1       0.229   9.745  18.400  0.00  0.00    +0.000 A 
ATOM      6  C   UNL     1       1.153   9.033  19.149  0.00  0.00    +0.000 A 
ATOM      7  N   UNL     1       1.142   8.970  20.514  0.00  0.00    +0.000 NA
ENDROOT
BRANCH   6   8
ATOM      8  C   UNL     1       2.229   8.246  18.464  0.00  0.00    +0.000 C 
ATOM      9  O   UNL     1       2.678   8.644  17.397  0.00  0.00    +0.000 OA
ATOM     10  N   UNL     1       2.574   7.089  19.132  0.00  0.00    +0.000 N 
ATOM     11  C   UNL     1       3.520   6.227  18.658  0.00  0.00    +0.000 A 
ATOM     12  N   UNL     1       4.351   6.388  17.662  0.00  0.00    +0.000 NA
ATOM     13  C   UNL     1       5.129   5.245  17.496  0.00  0.00    +0.000 A 
ATOM     14  C   UNL     1       4.830   4.223  18.382  0.00  0.00    +0.000 A 
ATOM     15  S   UNL     1       3.615   4.737  19.484  0.00  0.00    +0.000 S 
ATOM     16  H   UNL     1       2.064   6.847  19.974  0.00  0.00    +0.000 HD
BRANCH  13  17
ATOM     17  C   UNL     1       6.171   5.209  16.426  0.00  0.00    +0.000 C 
ATOM     18  F   UNL     1       5.829   6.022  15.386  0.00  0.00    +0.000 F 
ATOM     19  F   UNL     1       7.364   5.678  16.886  0.00  0.00    +0.000 F 
ENDBRANCH  13  17
ENDBRANCH   6   8
BRANCH   4  20
ATOM     20  O   UNL     1      -1.696  11.065  18.265  0.00  0.00    +0.000 OA
BRANCH  20  21
ATOM     21  C   UNL     1      -2.723  10.250  17.680  0.00  0.00    +0.000 C 
ATOM     22  C   UNL     1      -4.009  11.048  17.509  0.00  0.00    +0.000 C 
ATOM     23  O   UNL     1      -4.037  11.573  16.178  0.00  0.00    +0.000 OA
ATOM     24  C   UNL     1      -3.122  10.832  15.367  0.00  0.00    +0.000 C 
ATOM     25  C   UNL     1      -3.895  10.119  14.265  0.00  0.00    +0.000 C 
ATOM     26  C   UNL     1      -2.373   9.851  16.260  0.00  0.00    +0.000 C 
ENDBRANCH  20  21
ENDBRANCH   4  20
TORSDOF 4
ENDMDL
MODEL 6
REMARK VINA RESULT:      -7.7      1.466      1.704
REMARK  Name = 
REMARK  6 active torsions:
REMARK  status: ('A' for Active; 'I' for Inactive)
REMARK    1  A    between atoms: C_1  and  C_2
REMARK    2  A    between atoms: C_4  and  O_5
REMARK    3  A    between atoms: O_5  and  C_6
REMARK    4  A    between atoms: C_9  and  C_10
REMARK    5  A    between atoms: C_13  and  C_14
REMARK    6  A    between atoms: C_19  and  C_20
REMARK                            x       y       z     vdW  Elec       q    Type
REMARK                         _______ _______ _______ _____ _____    ______ ____
ROOT
ATOM      1  C   UNL     1       2.213   4.260  21.276  0.00  0.00    +0.000 C 
ATOM      2  C   UNL     1       2.643   4.988  20.035  0.00  0.00    +0.000 A 
ATOM      3  C   UNL     1       3.443   4.350  19.087  0.00  0.00    +0.000 A 
ATOM      4  C   UNL     1       3.850   5.050  17.954  0.00  0.00    +0.000 A 
ATOM      5  C   UNL     1       3.386   6.348  17.769  0.00  0.00    +0.000 A 
ATOM      6  C   UNL     1       2.582   6.910  18.749  0.00  0.00    +0.000 A 
ATOM      7  N   UNL     1       2.214   6.263  19.896  0.00  0.00    +0.000 NA
ENDROOT
BRANCH   6   8
ATOM      8  C   UNL     1       2.085   8.316  18.599  0.00  0.00    +0.000 C 
ATOM      9  O   UNL     1       2.319   8.928  17.566  0.00  0.00    +0.000 OA
ATOM     10  N   UNL     1       1.425   8.788  19.716  0.00  0.00    +0.000 N 
ATOM     11  C   UNL     1       0.917  10.053  19.782  0.00  0.00    +0.000 A 
ATOM     12  N   UNL     1       0.796  10.940  18.830  0.00  0.00    +0.000 NA
ATOM     13  C   UNL     1       0.252  12.117  19.336  0.00  0.00    +0.000 A 
ATOM     14  C   UNL     1      -0.000  12.084  20.698  0.00  0.00    +0.000 A 
ATOM     15  S   UNL     1       0.374  10.530  21.329  0.00  0.00    +0.000 S 
ATOM     16  H   UNL     1       1.370   8.190  20.532  0.00  0.00    +0.000 HD
BRANCH  13  17
ATOM     17  C   UNL     1       0.001  13.269  18.419  0.00  0.00    +0.000 C 
ATOM     18  F   UNL     1      -0.881  14.149  18.974  0.00  0.00    +0.000 F 
ATOM     19  F   UNL     1       1.143  13.978  18.197  0.00  0.00    +0.000 F 
ENDBRANCH  13  17
ENDBRANCH   6   8
BRANCH   4  20
ATOM     20  O   UNL     1       4.700   4.582  16.982  0.00  0.00    +0.000 OA
BRANCH  20  21
ATOM     21  C   UNL     1       5.411   5.554  16.199  0.00  0.00    +0.000 C 
ATOM     22  C   UNL     1       6.874   5.612  16.618  0.00  0.00    +0.000 C 
ATOM     23  O   UNL     1       7.624   4.756  15.751  0.00  0.00    +0.000 OA
ATOM     24  C   UNL     1       6.859   4.507  14.569  0.00  0.00    +0.000 C 
ATOM     25  C   UNL     1       7.600   5.072  13.365  0.00  0.00    +0.000 C 
ATOM     26  C   UNL     1       5.486   5.143  14.742  0.00  0.00    +0.000 C 
ENDBRANCH  20  21
ENDBRANCH   4  20
TORSDOF 4
ENDMDL
MODEL 7
REMARK VINA RESULT:      -7.5      5.629      7.565
REMARK  Name = 
REMARK  6 active torsions:
REMARK  status: ('A' for Active; 'I' for Inactive)
REMARK    1  A    between atoms: C_1  and  C_2
REMARK    2  A    between atoms: C_4  and  O_5
REMARK    3  A    between atoms: O_5  and  C_6
REMARK    4  A    between atoms: C_9  and  C_10
REMARK    5  A    between atoms: C_13  and  C_14
REMARK    6  A    between atoms: C_19  and  C_20
REMARK                            x       y       z     vdW  Elec       q    Type
REMARK                         _______ _______ _______ _____ _____    ______ ____
ROOT
ATOM      1  C   UNL     1       7.123   5.020  13.904  0.00  0.00    +0.000 C 
ATOM      2  C   UNL     1       6.821   5.136  15.370  0.00  0.00    +0.000 A 
ATOM      3  C   UNL     1       5.918   4.261  15.973  0.00  0.00    +0.000 A 
ATOM      4  C   UNL     1       5.634   4.400  17.330  0.00  0.00    +0.000 A 
ATOM      5  C   UNL     1       6.317   5.368  18.058  0.00  0.00    +0.000 A 
ATOM      6  C   UNL     1       7.212   6.191  17.391  0.00  0.00    +0.000 A 
ATOM      7  N   UNL     1       7.466   6.111  16.050  0.00  0.00    +0.000 NA
ENDROOT
BRANCH   6   8
ATOM      8  C   UNL     1       7.946   7.264  18.137  0.00  0.00    +0.000 C 
ATOM      9  O   UNL     1       8.519   6.985  19.181  0.00  0.00    +0.000 OA
ATOM     10  N   UNL     1       7.849   8.508  17.547  0.00  0.00    +0.000 N 
ATOM     11  C   UNL     1       8.432   9.618  18.086  0.00  0.00    +0.000 A 
ATOM     12  N   UNL     1       9.278   9.701  19.079  0.00  0.00    +0.000 NA
ATOM     13  C   UNL     1       9.600  11.032  19.326  0.00  0.00    +0.000 A 
ATOM     14  C   UNL     1       8.947  11.935  18.502  0.00  0.00    +0.000 A 
ATOM     15  S   UNL     1       7.981  11.093  17.356  0.00  0.00    +0.000 S 
ATOM     16  H   UNL     1       7.276   8.605  16.717  0.00  0.00    +0.000 HD
BRANCH  13  17
ATOM     17  C   UNL     1      10.573  11.369  20.408  0.00  0.00    +0.000 C 
ATOM     18  F   UNL     1      11.483  12.288  19.975  0.00  0.00    +0.000 F 
ATOM     19  F   UNL     1       9.945  11.942  21.472  0.00  0.00    +0.000 F 
ENDBRANCH  13  17
ENDBRANCH   6   8
BRANCH   4  20
ATOM     20  O   UNL     1       4.710   3.670  18.037  0.00  0.00    +0.000 OA
BRANCH  20  21
ATOM     21  C   UNL     1       3.752   4.395  18.823  0.00  0.00    +0.000 C 
ATOM     22  C   UNL     1       2.549   4.786  17.974  0.00  0.00    +0.000 C 
ATOM     23  O   UNL     1       1.537   3.789  18.145  0.00  0.00    +0.000 OA
ATOM     24  C   UNL     1       1.810   3.049  19.338  0.00  0.00    +0.000 C 
ATOM     25  C   UNL     1       0.671   3.256  20.328  0.00  0.00    +0.000 C 
ATOM     26  C   UNL     1       3.144   3.521  19.902  0.00  0.00    +0.000 C 
ENDBRANCH  20  21
ENDBRANCH   4  20
TORSDOF 4
ENDMDL
MODEL 8
REMARK VINA RESULT:      -7.5      1.079      1.353
REMARK  Name = 
REMARK  6 active torsions:
REMARK  status: ('A' for Active; 'I' for Inactive)
REMARK    1  A    between atoms: C_1  and  C_2
REMARK    2  A    between atoms: C_4  and  O_5
REMARK    3  A    between atoms: O_5  and  C_6
REMARK    4  A    between atoms: C_9  and  C_10
REMARK    5  A    between atoms: C_13  and  C_14
REMARK    6  A    between atoms: C_19  and  C_20
REMARK                            x       y       z     vdW  Elec       q    Type
REMARK                         _______ _______ _______ _____ _____    ______ ____
ROOT
ATOM      1  C   UNL     1       2.832   2.767  21.055  0.00  0.00    +0.000 C 
ATOM      2  C   UNL     1       3.193   3.717  19.950  0.00  0.00    +0.000 A 
ATOM      3  C   UNL     1       4.059   3.315  18.933  0.00  0.00    +0.000 A 
ATOM      4  C   UNL     1       4.400   4.219  17.929  0.00  0.00    +0.000 A 
ATOM      5  C   UNL     1       3.808   5.477  17.936  0.00  0.00    +0.000 A 
ATOM      6  C   UNL     1       2.945   5.798  18.973  0.00  0.00    +0.000 A 
ATOM      7  N   UNL     1       2.638   4.949  19.999  0.00  0.00    +0.000 NA
ENDROOT
BRANCH   6   8
ATOM      8  C   UNL     1       2.310   7.155  19.030  0.00  0.00    +0.000 C 
ATOM      9  O   UNL     1       2.233   7.825  18.009  0.00  0.00    +0.000 OA
ATOM     10  N   UNL     1       1.903   7.518  20.298  0.00  0.00    +0.000 N 
ATOM     11  C   UNL     1       1.321   8.725  20.559  0.00  0.00    +0.000 A 
ATOM     12  N   UNL     1       0.898   9.631  19.717  0.00  0.00    +0.000 NA
ATOM     13  C   UNL     1       0.395  10.731  20.408  0.00  0.00    +0.000 A 
ATOM     14  C   UNL     1       0.485  10.622  21.786  0.00  0.00    +0.000 A 
ATOM     15  S   UNL     1       1.132   9.089  22.215  0.00  0.00    +0.000 S 
ATOM     16  H   UNL     1       2.098   6.888  21.066  0.00  0.00    +0.000 HD
BRANCH  13  17
ATOM     17  C   UNL     1      -0.168  11.886  19.648  0.00  0.00    +0.000 C 
ATOM     18  F   UNL     1      -0.432  12.934  20.480  0.00  0.00    +0.000 F 
ATOM     19  F   UNL     1       0.727  12.356  18.734  0.00  0.00    +0.000 F 
ENDBRANCH  13  17
ENDBRANCH   6   8
BRANCH   4  20
ATOM     20  O   UNL     1       5.299   3.994  16.915  0.00  0.00    +0.000 OA
BRANCH  20  21
ATOM     21  C   UNL     1       5.375   4.972  15.867  0.00  0.00    +0.000 C 
ATOM     22  C   UNL     1       6.627   5.825  16.020  0.00  0.00    +0.000 C 
ATOM     23  O   UNL     1       7.658   5.259  15.205  0.00  0.00    +0.000 OA
ATOM     24  C   UNL     1       7.061   4.401  14.229  0.00  0.00    +0.000 C 
ATOM     25  C   UNL     1       7.345   4.952  12.838  0.00  0.00    +0.000 C 
ATOM     26  C   UNL     1       5.566   4.318  14.512  0.00  0.00    +0.000 C 
ENDBRANCH  20  21
ENDBRANCH   4  20
TORSDOF 4
ENDMDL
MODEL 9
REMARK VINA RESULT:      -7.4      1.551      2.127
REMARK  Name = 
REMARK  6 active torsions:
REMARK  status: ('A' for Active; 'I' for Inactive)
REMARK    1  A    between atoms: C_1  and  C_2
REMARK    2  A    between atoms: C_4  and  O_5
REMARK    3  A    between atoms: O_5  and  C_6
REMARK    4  A    between atoms: C_9  and  C_10
REMARK    5  A    between atoms: C_13  and  C_14
REMARK    6  A    between atoms: C_19  and  C_20
REMARK                            x       y       z     vdW  Elec       q    Type
REMARK                         _______ _______ _______ _____ _____    ______ ____
ROOT
ATOM      1  C   UNL     1       2.063   4.153  21.151  0.00  0.00    +0.000 C 
ATOM      2  C   UNL     1       2.564   4.938  19.973  0.00  0.00    +0.000 A 
ATOM      3  C   UNL     1       3.432   4.350  19.054  0.00  0.00    +0.000 A 
ATOM      4  C   UNL     1       3.903   5.102  17.980  0.00  0.00    +0.000 A 
ATOM      5  C   UNL     1       3.436   6.403  17.821  0.00  0.00    +0.000 A 
ATOM      6  C   UNL     1       2.562   6.913  18.769  0.00  0.00    +0.000 A 
ATOM      7  N   UNL     1       2.129   6.214  19.861  0.00  0.00    +0.000 NA
ENDROOT
BRANCH   6   8
ATOM      8  C   UNL     1       2.059   8.320  18.647  0.00  0.00    +0.000 C 
ATOM      9  O   UNL     1       2.301   8.959  17.632  0.00  0.00    +0.000 OA
ATOM     10  N   UNL     1       1.381   8.760  19.767  0.00  0.00    +0.000 N 
ATOM     11  C   UNL     1       0.864  10.020  19.858  0.00  0.00    +0.000 A 
ATOM     12  N   UNL     1       0.750  10.929  18.926  0.00  0.00    +0.000 NA
ATOM     13  C   UNL     1       0.192  12.091  19.453  0.00  0.00    +0.000 A 
ATOM     14  C   UNL     1      -0.078  12.023  20.810  0.00  0.00    +0.000 A 
ATOM     15  S   UNL     1       0.299  10.456  21.408  0.00  0.00    +0.000 S 
ATOM     16  H   UNL     1       1.319   8.142  20.567  0.00  0.00    +0.000 HD
BRANCH  13  17
ATOM     17  C   UNL     1      -0.056  13.263  18.561  0.00  0.00    +0.000 C 
ATOM     18  F   UNL     1       1.084  13.625  17.906  0.00  0.00    +0.000 F 
ATOM     19  F   UNL     1      -0.960  12.958  17.589  0.00  0.00    +0.000 F 
ENDBRANCH  13  17
ENDBRANCH   6   8
BRANCH   4  20
ATOM     20  O   UNL     1       4.821   4.686  17.047  0.00  0.00    +0.000 OA
BRANCH  20  21
ATOM     21  C   UNL     1       6.208   4.731  17.415  0.00  0.00    +0.000 C 
ATOM     22  C   UNL     1       7.066   5.130  16.221  0.00  0.00    +0.000 C 
ATOM     23  O   UNL     1       7.280   6.544  16.276  0.00  0.00    +0.000 OA
ATOM     24  C   UNL     1       7.013   7.004  17.603  0.00  0.00    +0.000 C 
ATOM     25  C   UNL     1       8.292   7.576  18.200  0.00  0.00    +0.000 C 
ATOM     26  C   UNL     1       6.480   5.834  18.419  0.00  0.00    +0.000 C 
ENDBRANCH  20  21
ENDBRANCH   4  20
TORSDOF 4
ENDMDL
