MODEL 1
REMARK VINA RESULT:      -7.9      0.000      0.000
REMARK  Name = 
REMARK  5 active torsions:
REMARK  status: ('A' for Active; 'I' for Inactive)
REMARK    1  A    between atoms: C_1  and  C_2
REMARK    2  A    between atoms: C_6  and  C_7
REMARK    3  A    between atoms: C_14  and  C_15
REMARK    4  A    between atoms: C_18  and  S_19
REMARK    5  A    between atoms: S_19  and  N_20
REMARK                            x       y       z     vdW  Elec       q    Type
REMARK                         _______ _______ _______ _____ _____    ______ ____
ROOT
ATOM      1  C   UNL     1       4.802   2.994  11.923  0.00  0.00    +0.000 C 
ATOM      2  C   UNL     1       5.482   3.716  13.041  0.00  0.00    +0.000 A 
ATOM      3  C   UNL     1       6.635   4.376  12.887  0.00  0.00    +0.000 A 
ATOM      4  C   UNL     1       7.237   5.061  14.045  0.00  0.00    +0.000 A 
ATOM      5  O   UNL     1       8.299   5.659  13.915  0.00  0.00    +0.000 OA
ATOM      6  C   UNL     1       6.500   4.996  15.337  0.00  0.00    +0.000 A 
ATOM      7  C   UNL     1       5.342   4.302  15.352  0.00  0.00    +0.000 A 
ATOM      8  O   UNL     1       4.816   3.648  14.250  0.00  0.00    +0.000 OA
ENDROOT
BRANCH   6   9
ATOM      9  C   UNL     1       7.030   5.689  16.523  0.00  0.00    +0.000 A 
ATOM     10  C   UNL     1       7.104   7.090  16.552  0.00  0.00    +0.000 A 
ATOM     11  C   UNL     1       7.683   7.738  17.645  0.00  0.00    +0.000 A 
ATOM     12  C   UNL     1       8.177   6.986  18.705  0.00  0.00    +0.000 A 
ATOM     13  F   UNL     1       8.752   7.608  19.743  0.00  0.00    +0.000 F 
ATOM     14  C   UNL     1       8.089   5.599  18.703  0.00  0.00    +0.000 A 
ATOM     15  C   UNL     1       7.511   4.948  17.612  0.00  0.00    +0.000 A 
ENDBRANCH   6   9
BRANCH   7  16
ATOM     16  C   UNL     1       4.488   4.178  16.544  0.00  0.00    +0.000 A 
ATOM     17  C   UNL     1       4.259   2.915  17.109  0.00  0.00    +0.000 A 
ATOM     18  C   UNL     1       3.438   2.783  18.228  0.00  0.00    +0.000 A 
ATOM     19  C   UNL     1       2.857   3.922  18.790  0.00  0.00    +0.000 A 
ATOM     20  C   UNL     1       3.072   5.186  18.237  0.00  0.00    +0.000 A 
ATOM     21  C   UNL     1       3.892   5.312  17.114  0.00  0.00    +0.000 A 
BRANCH  19  22
ATOM     22  S   UNL     1       1.846   3.752  20.230  0.00  0.00    +0.000 S 
ATOM     23  O   UNL     1       2.491   2.868  21.168  0.00  0.00    +0.000 OA
ATOM     24  O   UNL     1       1.328   5.047  20.605  0.00  0.00    +0.000 OA
BRANCH  22  25
ATOM     25  N   UNL     1       0.549   2.896  19.597  0.00  0.00    +0.000 NA
ATOM     26  H   UNL     1       0.067   3.455  18.894  0.00  0.00    +0.000 HD
ATOM     27  H   UNL     1       0.853   1.977  19.277  0.00  0.00    +0.000 HD
ENDBRANCH  22  25
ENDBRANCH  19  22
ENDBRANCH   7  16
TORSDOF 4
ENDMDL
MODEL 2
REMARK VINA RESULT:      -7.8      0.224      1.389
REMARK  Name = 
REMARK  5 active torsions:
REMARK  status: ('A' for Active; 'I' for Inactive)
REMARK    1  A    between atoms: C_1  and  C_2
REMARK    2  A    between atoms: C_6  and  C_7
REMARK    3  A    between atoms: C_14  and  C_15
REMARK    4  A    between atoms: C_18  and  S_19
REMARK    5  A    between atoms: S_19  and  N_20
REMARK                            x       y       z     vdW  Elec       q    Type
REMARK                         _______ _______ _______ _____ _____    ______ ____
ROOT
ATOM      1  C   UNL     1       4.549   3.150  11.880  0.00  0.00    +0.000 C 
ATOM      2  C   UNL     1       5.311   3.776  13.004  0.00  0.00    +0.000 A 
ATOM      3  C   UNL     1       6.510   4.346  12.842  0.00  0.00    +0.000 A 
ATOM      4  C   UNL     1       7.192   4.940  14.007  0.00  0.00    +0.000 A 
ATOM      5  O   UNL     1       8.295   5.456  13.869  0.00  0.00    +0.000 OA
ATOM      6  C   UNL     1       6.482   4.888  15.314  0.00  0.00    +0.000 A 
ATOM      7  C   UNL     1       5.272   4.288  15.336  0.00  0.00    +0.000 A 
ATOM      8  O   UNL     1       4.670   3.718  14.227  0.00  0.00    +0.000 OA
ENDROOT
BRANCH   6   9
ATOM      9  C   UNL     1       7.094   5.494  16.508  0.00  0.00    +0.000 A 
ATOM     10  C   UNL     1       7.571   4.683  17.550  0.00  0.00    +0.000 A 
ATOM     11  C   UNL     1       8.074   5.265  18.715  0.00  0.00    +0.000 A 
ATOM     12  C   UNL     1       8.107   6.650  18.832  0.00  0.00    +0.000 A 
ATOM     13  F   UNL     1       8.569   7.207  19.959  0.00  0.00    +0.000 F 
ATOM     14  C   UNL     1       7.661   7.467  17.799  0.00  0.00    +0.000 A 
ATOM     15  C   UNL     1       7.157   6.889  16.633  0.00  0.00    +0.000 A 
ENDBRANCH   6   9
BRANCH   7  16
ATOM     16  C   UNL     1       4.440   4.190  16.545  0.00  0.00    +0.000 A 
ATOM     17  C   UNL     1       3.921   5.355  17.130  0.00  0.00    +0.000 A 
ATOM     18  C   UNL     1       3.145   5.276  18.286  0.00  0.00    +0.000 A 
ATOM     19  C   UNL     1       2.877   4.026  18.848  0.00  0.00    +0.000 A 
ATOM     20  C   UNL     1       3.390   2.858  18.280  0.00  0.00    +0.000 A 
ATOM     21  C   UNL     1       4.169   2.942  17.125  0.00  0.00    +0.000 A 
BRANCH  19  22
ATOM     22  S   UNL     1       1.863   3.930  20.293  0.00  0.00    +0.000 S 
ATOM     23  O   UNL     1       2.538   3.152  21.302  0.00  0.00    +0.000 OA
ATOM     24  O   UNL     1       1.287   5.227  20.560  0.00  0.00    +0.000 OA
BRANCH  22  25
ATOM     25  N   UNL     1       0.609   2.970  19.725  0.00  0.00    +0.000 NA
ATOM     26  H   UNL     1       0.027   2.655  20.500  0.00  0.00    +0.000 HD
ATOM     27  H   UNL     1       0.104   3.449  18.980  0.00  0.00    +0.000 HD
ENDBRANCH  22  25
ENDBRANCH  19  22
ENDBRANCH   7  16
TORSDOF 4
ENDMDL
MODEL 3
REMARK VINA RESULT:      -7.8      0.727      1.321
REMARK  Name = 
REMARK  5 active torsions:
REMARK  status: ('A' for Active; 'I' for Inactive)
REMARK    1  A    between atoms: C_1  and  C_2
REMARK    2  A    between atoms: C_6  and  C_7
REMARK    3  A    between atoms: C_14  and  C_15
REMARK    4  A    between atoms: C_18  and  S_19
REMARK    5  A    between atoms: S_19  and  N_20
REMARK                            x       y       z     vdW  Elec       q    Type
REMARK                         _______ _______ _______ _____ _____    ______ ____
ROOT
ATOM      1  C   UNL     1       4.673   3.102  11.827  0.00  0.00    +0.000 C 
ATOM      2  C   UNL     1       5.373   3.763  12.971  0.00  0.00    +0.000 A 
ATOM      3  C   UNL     1       6.557   4.371  12.847  0.00  0.00    +0.000 A 
ATOM      4  C   UNL     1       7.177   4.998  14.029  0.00  0.00    +0.000 A 
ATOM      5  O   UNL     1       8.267   5.548  13.926  0.00  0.00    +0.000 OA
ATOM      6  C   UNL     1       6.423   4.933  15.311  0.00  0.00    +0.000 A 
ATOM      7  C   UNL     1       5.233   4.294  15.296  0.00  0.00    +0.000 A 
ATOM      8  O   UNL     1       4.690   3.694  14.171  0.00  0.00    +0.000 OA
ENDROOT
BRANCH   6   9
ATOM      9  C   UNL     1       6.970   5.569  16.520  0.00  0.00    +0.000 A 
ATOM     10  C   UNL     1       7.061   6.967  16.607  0.00  0.00    +0.000 A 
ATOM     11  C   UNL     1       7.657   7.562  17.721  0.00  0.00    +0.000 A 
ATOM     12  C   UNL     1       8.151   6.761  18.745  0.00  0.00    +0.000 A 
ATOM     13  F   UNL     1       8.741   7.332  19.803  0.00  0.00    +0.000 F 
ATOM     14  C   UNL     1       8.045   5.376  18.685  0.00  0.00    +0.000 A 
ATOM     15  C   UNL     1       7.451   4.778  17.573  0.00  0.00    +0.000 A 
ENDBRANCH   6   9
BRANCH   7  16
ATOM     16  C   UNL     1       4.361   4.179  16.474  0.00  0.00    +0.000 A 
ATOM     17  C   UNL     1       3.821   5.335  17.058  0.00  0.00    +0.000 A 
ATOM     18  C   UNL     1       3.008   5.241  18.186  0.00  0.00    +0.000 A 
ATOM     19  C   UNL     1       2.723   3.983  18.722  0.00  0.00    +0.000 A 
ATOM     20  C   UNL     1       3.255   2.823  18.156  0.00  0.00    +0.000 A 
ATOM     21  C   UNL     1       4.073   2.923  17.029  0.00  0.00    +0.000 A 
BRANCH  19  22
ATOM     22  S   UNL     1       1.661   3.867  20.131  0.00  0.00    +0.000 S 
ATOM     23  O   UNL     1       1.439   5.184  20.674  0.00  0.00    +0.000 OA
ATOM     24  O   UNL     1       0.587   2.946  19.845  0.00  0.00    +0.000 OA
BRANCH  22  25
ATOM     25  N   UNL     1       2.674   3.080  21.215  0.00  0.00    +0.000 NA
ATOM     26  H   UNL     1       3.024   3.737  21.910  0.00  0.00    +0.000 HD
ATOM     27  H   UNL     1       2.211   2.258  21.600  0.00  0.00    +0.000 HD
ENDBRANCH  22  25
ENDBRANCH  19  22
ENDBRANCH   7  16
TORSDOF 4
ENDMDL
MODEL 4
REMARK VINA RESULT:      -7.4      3.952      5.961
REMARK  Name = 
REMARK  5 active torsions:
REMARK  status: ('A' for Active; 'I' for Inactive)
REMARK    1  A    between atoms: C_1  and  C_2
REMARK    2  A    between atoms: C_6  and  C_7
REMARK    3  A    between atoms: C_14  and  C_15
REMARK    4  A    between atoms: C_18  and  S_19
REMARK    5  A    between atoms: S_19  and  N_20
REMARK                            x       y       z     vdW  Elec       q    Type
REMARK                         _______ _______ _______ _____ _____    ______ ____
ROOT
ATOM      1  C   UNL     1       5.905   5.868  14.841  0.00  0.00    +0.000 C 
ATOM      2  C   UNL     1       5.117   5.241  15.946  0.00  0.00    +0.000 A 
ATOM      3  C   UNL     1       5.159   3.933  16.219  0.00  0.00    +0.000 A 
ATOM      4  C   UNL     1       4.348   3.398  17.328  0.00  0.00    +0.000 A 
ATOM      5  O   UNL     1       4.373   2.198  17.577  0.00  0.00    +0.000 OA
ATOM      6  C   UNL     1       3.533   4.369  18.108  0.00  0.00    +0.000 A 
ATOM      7  C   UNL     1       3.587   5.664  17.731  0.00  0.00    +0.000 A 
ATOM      8  O   UNL     1       4.342   6.131  16.667  0.00  0.00    +0.000 OA
ENDROOT
BRANCH   6   9
ATOM      9  C   UNL     1       2.728   3.904  19.250  0.00  0.00    +0.000 A 
ATOM     10  C   UNL     1       3.327   3.698  20.502  0.00  0.00    +0.000 A 
ATOM     11  C   UNL     1       2.577   3.180  21.560  0.00  0.00    +0.000 A 
ATOM     12  C   UNL     1       1.234   2.877  21.365  0.00  0.00    +0.000 A 
ATOM     13  F   UNL     1       0.522   2.358  22.374  0.00  0.00    +0.000 F 
ATOM     14  C   UNL     1       0.620   3.099  20.138  0.00  0.00    +0.000 A 
ATOM     15  C   UNL     1       1.366   3.617  19.079  0.00  0.00    +0.000 A 
ENDBRANCH   6   9
BRANCH   7  16
ATOM     16  C   UNL     1       2.864   6.740  18.426  0.00  0.00    +0.000 A 
ATOM     17  C   UNL     1       2.464   7.883  17.717  0.00  0.00    +0.000 A 
ATOM     18  C   UNL     1       1.794   8.917  18.368  0.00  0.00    +0.000 A 
ATOM     19  C   UNL     1       1.511   8.800  19.731  0.00  0.00    +0.000 A 
ATOM     20  C   UNL     1       1.906   7.670  20.452  0.00  0.00    +0.000 A 
ATOM     21  C   UNL     1       2.581   6.639  19.796  0.00  0.00    +0.000 A 
BRANCH  19  22
ATOM     22  S   UNL     1       0.629  10.098  20.544  0.00  0.00    +0.000 S 
ATOM     23  O   UNL     1       1.142  11.373  20.107  0.00  0.00    +0.000 OA
ATOM     24  O   UNL     1      -0.780   9.784  20.556  0.00  0.00    +0.000 OA
BRANCH  22  25
ATOM     25  N   UNL     1       1.166   9.894  22.121  0.00  0.00    +0.000 NA
ATOM     26  H   UNL     1       0.899   8.974  22.468  0.00  0.00    +0.000 HD
ATOM     27  H   UNL     1       2.162  10.102  22.186  0.00  0.00    +0.000 HD
ENDBRANCH  22  25
ENDBRANCH  19  22
ENDBRANCH   7  16
TORSDOF 4
ENDMDL
MODEL 5
REMARK VINA RESULT:      -7.4      4.023      5.916
REMARK  Name = 
REMARK  5 active torsions:
REMARK  status: ('A' for Active; 'I' for Inactive)
REMARK    1  A    between atoms: C_1  and  C_2
REMARK    2  A    between atoms: C_6  and  C_7
REMARK    3  A    between atoms: C_14  and  C_15
REMARK    4  A    between atoms: C_18  and  S_19
REMARK    5  A    between atoms: S_19  and  N_20
REMARK                            x       y       z     vdW  Elec       q    Type
REMARK                         _______ _______ _______ _____ _____    ______ ____
ROOT
ATOM      1  C   UNL     1       5.967   5.814  14.829  0.00  0.00    +0.000 C 
ATOM      2  C   UNL     1       5.166   5.199  15.931  0.00  0.00    +0.000 A 
ATOM      3  C   UNL     1       5.200   3.892  16.214  0.00  0.00    +0.000 A 
ATOM      4  C   UNL     1       4.377   3.370  17.320  0.00  0.00    +0.000 A 
ATOM      5  O   UNL     1       4.395   2.172  17.579  0.00  0.00    +0.000 OA
ATOM      6  C   UNL     1       3.558   4.350  18.084  0.00  0.00    +0.000 A 
ATOM      7  C   UNL     1       3.622   5.642  17.698  0.00  0.00    +0.000 A 
ATOM      8  O   UNL     1       4.388   6.097  16.638  0.00  0.00    +0.000 OA
ENDROOT
BRANCH   6   9
ATOM      9  C   UNL     1       2.741   3.897  19.222  0.00  0.00    +0.000 A 
ATOM     10  C   UNL     1       3.323   3.713  20.485  0.00  0.00    +0.000 A 
ATOM     11  C   UNL     1       2.562   3.205  21.540  0.00  0.00    +0.000 A 
ATOM     12  C   UNL     1       1.224   2.892  21.332  0.00  0.00    +0.000 A 
ATOM     13  F   UNL     1       0.501   2.385  22.339  0.00  0.00    +0.000 F 
ATOM     14  C   UNL     1       0.625   3.093  20.093  0.00  0.00    +0.000 A 
ATOM     15  C   UNL     1       1.383   3.600  19.037  0.00  0.00    +0.000 A 
ENDBRANCH   6   9
BRANCH   7  16
ATOM     16  C   UNL     1       2.897   6.726  18.377  0.00  0.00    +0.000 A 
ATOM     17  C   UNL     1       2.630   6.633  19.751  0.00  0.00    +0.000 A 
ATOM     18  C   UNL     1       1.928   7.646  20.403  0.00  0.00    +0.000 A 
ATOM     19  C   UNL     1       1.505   8.763  19.678  0.00  0.00    +0.000 A 
ATOM     20  C   UNL     1       1.759   8.869  18.309  0.00  0.00    +0.000 A 
ATOM     21  C   UNL     1       2.458   7.850  17.660  0.00  0.00    +0.000 A 
BRANCH  19  22
ATOM     22  S   UNL     1       0.647  10.061  20.517  0.00  0.00    +0.000 S 
ATOM     23  O   UNL     1      -0.765   9.953  20.250  0.00  0.00    +0.000 OA
ATOM     24  O   UNL     1       1.183  10.205  21.850  0.00  0.00    +0.000 OA
BRANCH  22  25
ATOM     25  N   UNL     1       1.185  11.394  19.651  0.00  0.00    +0.000 NA
ATOM     26  H   UNL     1       1.994  11.144  19.085  0.00  0.00    +0.000 HD
ATOM     27  H   UNL     1       0.415  11.814  19.132  0.00  0.00    +0.000 HD
ENDBRANCH  22  25
ENDBRANCH  19  22
ENDBRANCH   7  16
TORSDOF 4
ENDMDL
MODEL 6
REMARK VINA RESULT:      -7.3      3.607      6.062
REMARK  Name = 
REMARK  5 active torsions:
REMARK  status: ('A' for Active; 'I' for Inactive)
REMARK    1  A    between atoms: C_1  and  C_2
REMARK    2  A    between atoms: C_6  and  C_7
REMARK    3  A    between atoms: C_14  and  C_15
REMARK    4  A    between atoms: C_18  and  S_19
REMARK    5  A    between atoms: S_19  and  N_20
REMARK                            x       y       z     vdW  Elec       q    Type
REMARK                         _______ _______ _______ _____ _____    ______ ____
ROOT
ATOM      1  C   UNL     1       1.025   2.414  22.290  0.00  0.00    +0.000 C 
ATOM      2  C   UNL     1       2.089   2.922  21.370  0.00  0.00    +0.000 A 
ATOM      3  C   UNL     1       3.130   2.178  20.979  0.00  0.00    +0.000 A 
ATOM      4  C   UNL     1       4.133   2.760  20.070  0.00  0.00    +0.000 A 
ATOM      5  O   UNL     1       5.095   2.089  19.715  0.00  0.00    +0.000 OA
ATOM      6  C   UNL     1       3.913   4.160  19.614  0.00  0.00    +0.000 A 
ATOM      7  C   UNL     1       2.816   4.795  20.080  0.00  0.00    +0.000 A 
ATOM      8  O   UNL     1       1.904   4.227  20.954  0.00  0.00    +0.000 OA
ENDROOT
BRANCH   6   9
ATOM      9  C   UNL     1       4.860   4.787  18.678  0.00  0.00    +0.000 A 
ATOM     10  C   UNL     1       4.700   4.625  17.293  0.00  0.00    +0.000 A 
ATOM     11  C   UNL     1       5.647   5.153  16.413  0.00  0.00    +0.000 A 
ATOM     12  C   UNL     1       6.743   5.846  16.917  0.00  0.00    +0.000 A 
ATOM     13  F   UNL     1       7.661   6.332  16.073  0.00  0.00    +0.000 F 
ATOM     14  C   UNL     1       6.901   6.036  18.285  0.00  0.00    +0.000 A 
ATOM     15  C   UNL     1       5.957   5.510  19.168  0.00  0.00    +0.000 A 
ENDBRANCH   6   9
BRANCH   7  16
ATOM     16  C   UNL     1       2.449   6.166  19.692  0.00  0.00    +0.000 A 
ATOM     17  C   UNL     1       1.970   7.060  20.661  0.00  0.00    +0.000 A 
ATOM     18  C   UNL     1       1.602   8.356  20.302  0.00  0.00    +0.000 A 
ATOM     19  C   UNL     1       1.729   8.761  18.972  0.00  0.00    +0.000 A 
ATOM     20  C   UNL     1       2.201   7.882  17.994  0.00  0.00    +0.000 A 
ATOM     21  C   UNL     1       2.564   6.584  18.358  0.00  0.00    +0.000 A 
BRANCH  19  22
ATOM     22  S   UNL     1       1.295  10.417  18.530  0.00  0.00    +0.000 S 
ATOM     23  O   UNL     1       0.929  11.150  19.716  0.00  0.00    +0.000 OA
ATOM     24  O   UNL     1       2.243  10.917  17.562  0.00  0.00    +0.000 OA
BRANCH  22  25
ATOM     25  N   UNL     1      -0.132  10.147  17.689  0.00  0.00    +0.000 NA
ATOM     26  H   UNL     1      -0.022   9.360  17.051  0.00  0.00    +0.000 HD
ATOM     27  H   UNL     1      -0.915  10.065  18.336  0.00  0.00    +0.000 HD
ENDBRANCH  22  25
ENDBRANCH  19  22
ENDBRANCH   7  16
TORSDOF 4
ENDMDL
MODEL 7
REMARK VINA RESULT:      -7.3      3.901      5.847
REMARK  Name = 
REMARK  5 active torsions:
REMARK  status: ('A' for Active; 'I' for Inactive)
REMARK    1  A    between atoms: C_1  and  C_2
REMARK    2  A    between atoms: C_6  and  C_7
REMARK    3  A    between atoms: C_14  and  C_15
REMARK    4  A    between atoms: C_18  and  S_19
REMARK    5  A    between atoms: S_19  and  N_20
REMARK                            x       y       z     vdW  Elec       q    Type
REMARK                         _______ _______ _______ _____ _____    ______ ____
ROOT
ATOM      1  C   UNL     1       5.794   6.563  14.929  0.00  0.00    +0.000 C 
ATOM      2  C   UNL     1       5.050   5.776  15.958  0.00  0.00    +0.000 A 
ATOM      3  C   UNL     1       5.165   4.449  16.085  0.00  0.00    +0.000 A 
ATOM      4  C   UNL     1       4.393   3.752  17.129  0.00  0.00    +0.000 A 
ATOM      5  O   UNL     1       4.485   2.535  17.244  0.00  0.00    +0.000 OA
ATOM      6  C   UNL     1       3.531   4.584  18.012  0.00  0.00    +0.000 A 
ATOM      7  C   UNL     1       3.512   5.914  17.781  0.00  0.00    +0.000 A 
ATOM      8  O   UNL     1       4.233   6.536  16.774  0.00  0.00    +0.000 OA
ENDROOT
BRANCH   6   9
ATOM      9  C   UNL     1       2.762   3.953  19.097  0.00  0.00    +0.000 A 
ATOM     10  C   UNL     1       1.369   3.814  18.991  0.00  0.00    +0.000 A 
ATOM     11  C   UNL     1       0.635   3.289  20.057  0.00  0.00    +0.000 A 
ATOM     12  C   UNL     1       1.293   2.899  21.218  0.00  0.00    +0.000 A 
ATOM     13  F   UNL     1       0.585   2.417  22.247  0.00  0.00    +0.000 F 
ATOM     14  C   UNL     1       2.675   3.007  21.328  0.00  0.00    +0.000 A 
ATOM     15  C   UNL     1       3.412   3.530  20.265  0.00  0.00    +0.000 A 
ENDBRANCH   6   9
BRANCH   7  16
ATOM     16  C   UNL     1       2.737   6.866  18.591  0.00  0.00    +0.000 A 
ATOM     17  C   UNL     1       2.196   8.013  17.992  0.00  0.00    +0.000 A 
ATOM     18  C   UNL     1       1.474   8.931  18.754  0.00  0.00    +0.000 A 
ATOM     19  C   UNL     1       1.281   8.691  20.116  0.00  0.00    +0.000 A 
ATOM     20  C   UNL     1       1.816   7.555  20.728  0.00  0.00    +0.000 A 
ATOM     21  C   UNL     1       2.542   6.641  19.962  0.00  0.00    +0.000 A 
BRANCH  19  22
ATOM     22  S   UNL     1       0.334   9.840  21.069  0.00  0.00    +0.000 S 
ATOM     23  O   UNL     1       1.219  10.618  21.900  0.00  0.00    +0.000 OA
ATOM     24  O   UNL     1      -0.678  10.436  20.230  0.00  0.00    +0.000 OA
BRANCH  22  25
ATOM     25  N   UNL     1      -0.473   8.791  22.101  0.00  0.00    +0.000 NA
ATOM     26  H   UNL     1      -0.420   9.130  23.061  0.00  0.00    +0.000 HD
ATOM     27  H   UNL     1      -1.418   8.616  21.762  0.00  0.00    +0.000 HD
ENDBRANCH  22  25
ENDBRANCH  19  22
ENDBRANCH   7  16
TORSDOF 4
ENDMDL
MODEL 8
REMARK VINA RESULT:      -7.2      3.908      5.785
REMARK  Name = 
REMARK  5 active torsions:
REMARK  status: ('A' for Active; 'I' for Inactive)
REMARK    1  A    between atoms: C_1  and  C_2
REMARK    2  A    between atoms: C_6  and  C_7
REMARK    3  A    between atoms: C_14  and  C_15
REMARK    4  A    between atoms: C_18  and  S_19
REMARK    5  A    between atoms: S_19  and  N_20
REMARK                            x       y       z     vdW  Elec       q    Type
REMARK                         _______ _______ _______ _____ _____    ______ ____
ROOT
ATOM      1  C   UNL     1       5.932   5.945  14.861  0.00  0.00    +0.000 C 
ATOM      2  C   UNL     1       5.152   5.248  15.929  0.00  0.00    +0.000 A 
ATOM      3  C   UNL     1       5.195   3.925  16.115  0.00  0.00    +0.000 A 
ATOM      4  C   UNL     1       4.393   3.319  17.193  0.00  0.00    +0.000 A 
ATOM      5  O   UNL     1       4.419   2.106  17.364  0.00  0.00    +0.000 OA
ATOM      6  C   UNL     1       3.584   4.237  18.041  0.00  0.00    +0.000 A 
ATOM      7  C   UNL     1       3.637   5.555  17.748  0.00  0.00    +0.000 A 
ATOM      8  O   UNL     1       4.383   6.089  16.711  0.00  0.00    +0.000 OA
ENDROOT
BRANCH   6   9
ATOM      9  C   UNL     1       2.787   3.700  19.156  0.00  0.00    +0.000 A 
ATOM     10  C   UNL     1       1.392   3.595  19.047  0.00  0.00    +0.000 A 
ATOM     11  C   UNL     1       0.635   3.162  20.137  0.00  0.00    +0.000 A 
ATOM     12  C   UNL     1       1.272   2.828  21.326  0.00  0.00    +0.000 A 
ATOM     13  F   UNL     1       0.543   2.434  22.378  0.00  0.00    +0.000 F 
ATOM     14  C   UNL     1       2.656   2.902  21.442  0.00  0.00    +0.000 A 
ATOM     15  C   UNL     1       3.416   3.334  20.355  0.00  0.00    +0.000 A 
ENDBRANCH   6   9
BRANCH   7  16
ATOM     16  C   UNL     1       2.920   6.583  18.517  0.00  0.00    +0.000 A 
ATOM     17  C   UNL     1       2.685   6.393  19.887  0.00  0.00    +0.000 A 
ATOM     18  C   UNL     1       1.991   7.353  20.622  0.00  0.00    +0.000 A 
ATOM     19  C   UNL     1       1.544   8.513  19.986  0.00  0.00    +0.000 A 
ATOM     20  C   UNL     1       1.766   8.716  18.622  0.00  0.00    +0.000 A 
ATOM     21  C   UNL     1       2.458   7.750  17.889  0.00  0.00    +0.000 A 
BRANCH  19  22
ATOM     22  S   UNL     1       0.697   9.744  20.931  0.00  0.00    +0.000 S 
ATOM     23  O   UNL     1       0.989  11.048  20.392  0.00  0.00    +0.000 OA
ATOM     24  O   UNL     1      -0.647   9.293  21.207  0.00  0.00    +0.000 OA
BRANCH  22  25
ATOM     25  N   UNL     1       1.530   9.642  22.385  0.00  0.00    +0.000 NA
ATOM     26  H   UNL     1       2.314  10.293  22.388  0.00  0.00    +0.000 HD
ATOM     27  H   UNL     1       0.888   9.745  23.170  0.00  0.00    +0.000 HD
ENDBRANCH  22  25
ENDBRANCH  19  22
ENDBRANCH   7  16
TORSDOF 4
ENDMDL
MODEL 9
REMARK VINA RESULT:      -7.2      3.660      6.073
REMARK  Name = 
REMARK  5 active torsions:
REMARK  status: ('A' for Active; 'I' for Inactive)
REMARK    1  A    between atoms: C_1  and  C_2
REMARK    2  A    between atoms: C_6  and  C_7
REMARK    3  A    between atoms: C_14  and  C_15
REMARK    4  A    between atoms: C_18  and  S_19
REMARK    5  A    between atoms: S_19  and  N_20
REMARK                            x       y       z     vdW  Elec       q    Type
REMARK                         _______ _______ _______ _____ _____    ______ ____
ROOT
ATOM      1  C   UNL     1       1.081   2.303  22.294  0.00  0.00    +0.000 C 
ATOM      2  C   UNL     1       2.124   2.874  21.388  0.00  0.00    +0.000 A 
ATOM      3  C   UNL     1       3.194   2.182  20.982  0.00  0.00    +0.000 A 
ATOM      4  C   UNL     1       4.175   2.825  20.088  0.00  0.00    +0.000 A 
ATOM      5  O   UNL     1       5.164   2.201  19.720  0.00  0.00    +0.000 OA
ATOM      6  C   UNL     1       3.898   4.225  19.664  0.00  0.00    +0.000 A 
ATOM      7  C   UNL     1       2.776   4.804  20.142  0.00  0.00    +0.000 A 
ATOM      8  O   UNL     1       1.887   4.180  21.001  0.00  0.00    +0.000 OA
ENDROOT
BRANCH   6   9
ATOM      9  C   UNL     1       4.820   4.911  18.743  0.00  0.00    +0.000 A 
ATOM     10  C   UNL     1       4.624   4.836  17.356  0.00  0.00    +0.000 A 
ATOM     11  C   UNL     1       5.547   5.419  16.486  0.00  0.00    +0.000 A 
ATOM     12  C   UNL     1       6.655   6.080  17.003  0.00  0.00    +0.000 A 
ATOM     13  F   UNL     1       7.551   6.620  16.167  0.00  0.00    +0.000 F 
ATOM     14  C   UNL     1       6.850   6.185  18.376  0.00  0.00    +0.000 A 
ATOM     15  C   UNL     1       5.930   5.603  19.249  0.00  0.00    +0.000 A 
ENDBRANCH   6   9
BRANCH   7  16
ATOM     16  C   UNL     1       2.354   6.167  19.784  0.00  0.00    +0.000 A 
ATOM     17  C   UNL     1       2.425   6.591  18.449  0.00  0.00    +0.000 A 
ATOM     18  C   UNL     1       2.044   7.886  18.101  0.00  0.00    +0.000 A 
ATOM     19  C   UNL     1       1.578   8.754  19.091  0.00  0.00    +0.000 A 
ATOM     20  C   UNL     1       1.505   8.348  20.425  0.00  0.00    +0.000 A 
ATOM     21  C   UNL     1       1.891   7.052  20.770  0.00  0.00    +0.000 A 
BRANCH  19  22
ATOM     22  S   UNL     1       1.063  10.383  18.638  0.00  0.00    +0.000 S 
ATOM     23  O   UNL     1      -0.203  10.312  17.952  0.00  0.00    +0.000 OA
ATOM     24  O   UNL     1       1.308  11.285  19.738  0.00  0.00    +0.000 OA
BRANCH  22  25
ATOM     25  N   UNL     1       2.208  10.753  17.467  0.00  0.00    +0.000 NA
ATOM     26  H   UNL     1       2.931  10.036  17.443  0.00  0.00    +0.000 HD
ATOM     27  H   UNL     1       1.755  10.933  16.572  0.00  0.00    +0.000 HD
ENDBRANCH  22  25
ENDBRANCH  19  22
ENDBRANCH   7  16
TORSDOF 4
ENDMDL
