MODEL 1
REMARK VINA RESULT:      -8.2      0.000      0.000
REMARK  Name = 
REMARK  8 active torsions:
REMARK  status: ('A' for Active; 'I' for Inactive)
REMARK    1  A    between atoms: C_1  and  C_2
REMARK    2  A    between atoms: C_4  and  C_5
REMARK    3  A    between atoms: N_12  and  C_13
REMARK    4  A    between atoms: C_13  and  C_14
REMARK    5  A    between atoms: C_14  and  N_15
REMARK    6  A    between atoms: C_16  and  C_18
REMARK    7  A    between atoms: C_19  and  C_20
REMARK    8  A    between atoms: N_28  and  C_29
REMARK                            x       y       z     vdW  Elec       q    Type
REMARK                         _______ _______ _______ _____ _____    ______ ____
ROOT
ATOM      1  N   UNL     1       2.299   6.958  20.069  0.00  0.00    +0.000 N 
ATOM      2  C   UNL     1       2.644   6.145  19.013  0.00  0.00    +0.000 C 
ATOM      3  O   UNL     1       2.630   6.578  17.862  0.00  0.00    +0.000 OA
ATOM      4  H   UNL     1       1.965   6.495  20.912  0.00  0.00    +0.000 HD
ENDROOT
BRANCH   2   5
ATOM      5  C   UNL     1       3.120   4.818  19.331  0.00  0.00    +0.000 A 
ATOM      6  C   UNL     1       4.356   4.181  19.223  0.00  0.00    +0.000 A 
ATOM      7  C   UNL     1       4.118   2.877  19.721  0.00  0.00    +0.000 A 
ATOM      8  N   UNL     1       2.858   2.678  20.090  0.00  0.00    +0.000 NA
ATOM      9  N   UNL     1       2.283   3.874  19.894  0.00  0.00    +0.000 N 
ATOM     10  C   UNL     1       0.890   4.032  20.253  0.00  0.00    +0.000 C 
BRANCH   6  11
ATOM     11  C   UNL     1       5.635   4.738  18.788  0.00  0.00    +0.000 C 
ATOM     12  O   UNL     1       6.321   5.448  19.524  0.00  0.00    +0.000 OA
ATOM     13  N   UNL     1       6.028   4.366  17.518  0.00  0.00    +0.000 N 
ATOM     14  C   UNL     1       7.309   4.672  16.883  0.00  0.00    +0.000 C 
ATOM     15  C   UNL     1       6.524   5.222  15.696  0.00  0.00    +0.000 C 
ATOM     16  C   UNL     1       5.262   4.616  16.295  0.00  0.00    +0.000 C 
ENDBRANCH   6  11
ENDBRANCH   2   5
BRANCH   1  17
ATOM     17  C   UNL     1       1.869   8.333  19.840  0.00  0.00    +0.000 C 
BRANCH  17  18
ATOM     18  C   UNL     1       0.932   8.869  20.933  0.00  0.00    +0.000 C 
BRANCH  18  24
ATOM     19  C   UNL     1      -0.255  11.452  22.303  0.00  0.00    +0.000 C 
ATOM     20  C   UNL     1      -0.604  10.906  20.970  0.00  0.00    +0.000 A 
ATOM     21  N   UNL     1      -1.498  11.397  20.135  0.00  0.00    +0.000 NA
ATOM     22  C   UNL     1      -1.503  10.512  19.085  0.00  0.00    +0.000 A 
ATOM     23  N   UNL     1      -0.639   9.498  19.233  0.00  0.00    +0.000 NA
ATOM     24  N   UNL     1      -0.065   9.778  20.412  0.00  0.00    +0.000 N 
BRANCH  22  25
ATOM     25  C   UNL     1      -2.374  10.650  17.923  0.00  0.00    +0.000 A 
ATOM     26  C   UNL     1      -1.936  10.283  16.645  0.00  0.00    +0.000 A 
ATOM     27  C   UNL     1      -2.784  10.422  15.541  0.00  0.00    +0.000 A 
ATOM     28  C   UNL     1      -4.072  10.930  15.707  0.00  0.00    +0.000 A 
ATOM     29  C   UNL     1      -4.516  11.301  16.973  0.00  0.00    +0.000 A 
ATOM     30  C   UNL     1      -3.673  11.161  18.073  0.00  0.00    +0.000 A 
ENDBRANCH  22  25
ENDBRANCH  18  24
ENDBRANCH  17  18
ENDBRANCH   1  17
TORSDOF 6
ENDMDL
MODEL 2
REMARK VINA RESULT:      -8.2      1.006      1.473
REMARK  Name = 
REMARK  8 active torsions:
REMARK  status: ('A' for Active; 'I' for Inactive)
REMARK    1  A    between atoms: C_1  and  C_2
REMARK    2  A    between atoms: C_4  and  C_5
REMARK    3  A    between atoms: N_12  and  C_13
REMARK    4  A    between atoms: C_13  and  C_14
REMARK    5  A    between atoms: C_14  and  N_15
REMARK    6  A    between atoms: C_16  and  C_18
REMARK    7  A    between atoms: C_19  and  C_20
REMARK    8  A    between atoms: N_28  and  C_29
REMARK                            x       y       z     vdW  Elec       q    Type
REMARK                         _______ _______ _______ _____ _____    ______ ____
ROOT
ATOM      1  N   UNL     1       2.815   6.486  18.600  0.00  0.00    +0.000 N 
ATOM      2  C   UNL     1       2.403   5.196  18.353  0.00  0.00    +0.000 C 
ATOM      3  O   UNL     1       1.539   4.968  17.509  0.00  0.00    +0.000 OA
ATOM      4  H   UNL     1       3.221   6.670  19.515  0.00  0.00    +0.000 HD
ENDROOT
BRANCH   2   5
ATOM      5  C   UNL     1       3.103   4.137  19.046  0.00  0.00    +0.000 A 
ATOM      6  C   UNL     1       4.444   3.768  19.147  0.00  0.00    +0.000 A 
ATOM      7  C   UNL     1       4.427   2.632  19.992  0.00  0.00    +0.000 A 
ATOM      8  N   UNL     1       3.206   2.284  20.379  0.00  0.00    +0.000 NA
ATOM      9  N   UNL     1       2.425   3.233  19.839  0.00  0.00    +0.000 N 
ATOM     10  C   UNL     1       1.005   3.188  20.112  0.00  0.00    +0.000 C 
BRANCH   6  11
ATOM     11  C   UNL     1       5.619   4.438  18.595  0.00  0.00    +0.000 C 
ATOM     12  O   UNL     1       6.315   5.197  19.272  0.00  0.00    +0.000 OA
ATOM     13  N   UNL     1       5.909   4.116  17.284  0.00  0.00    +0.000 N 
ATOM     14  C   UNL     1       7.088   4.538  16.529  0.00  0.00    +0.000 C 
ATOM     15  C   UNL     1       6.140   5.031  15.439  0.00  0.00    +0.000 C 
ATOM     16  C   UNL     1       5.002   4.312  16.151  0.00  0.00    +0.000 C 
ENDBRANCH   6  11
ENDBRANCH   2   5
BRANCH   1  17
ATOM     17  C   UNL     1       2.205   7.609  17.896  0.00  0.00    +0.000 C 
BRANCH  17  18
ATOM     18  C   UNL     1       2.283   8.931  18.673  0.00  0.00    +0.000 C 
BRANCH  18  24
ATOM     19  C   UNL     1       0.991   9.678  21.454  0.00  0.00    +0.000 C 
ATOM     20  C   UNL     1       0.384   9.843  20.112  0.00  0.00    +0.000 A 
ATOM     21  N   UNL     1      -0.822  10.309  19.853  0.00  0.00    +0.000 NA
ATOM     22  C   UNL     1      -0.941  10.203  18.489  0.00  0.00    +0.000 A 
ATOM     23  N   UNL     1       0.149   9.698  17.893  0.00  0.00    +0.000 NA
ATOM     24  N   UNL     1       0.979   9.504  18.928  0.00  0.00    +0.000 N 
BRANCH  22  25
ATOM     25  C   UNL     1      -2.142  10.587  17.756  0.00  0.00    +0.000 A 
ATOM     26  C   UNL     1      -3.158  11.327  18.373  0.00  0.00    +0.000 A 
ATOM     27  C   UNL     1      -4.304  11.688  17.656  0.00  0.00    +0.000 A 
ATOM     28  C   UNL     1      -4.442  11.311  16.321  0.00  0.00    +0.000 A 
ATOM     29  C   UNL     1      -3.438  10.572  15.698  0.00  0.00    +0.000 A 
ATOM     30  C   UNL     1      -2.296  10.214  16.412  0.00  0.00    +0.000 A 
ENDBRANCH  22  25
ENDBRANCH  18  24
ENDBRANCH  17  18
ENDBRANCH   1  17
TORSDOF 6
ENDMDL
MODEL 3
REMARK VINA RESULT:      -8.1      2.885      3.323
REMARK  Name = 
REMARK  8 active torsions:
REMARK  status: ('A' for Active; 'I' for Inactive)
REMARK    1  A    between atoms: C_1  and  C_2
REMARK    2  A    between atoms: C_4  and  C_5
REMARK    3  A    between atoms: N_12  and  C_13
REMARK    4  A    between atoms: C_13  and  C_14
REMARK    5  A    between atoms: C_14  and  N_15
REMARK    6  A    between atoms: C_16  and  C_18
REMARK    7  A    between atoms: C_19  and  C_20
REMARK    8  A    between atoms: N_28  and  C_29
REMARK                            x       y       z     vdW  Elec       q    Type
REMARK                         _______ _______ _______ _____ _____    ______ ____
ROOT
ATOM      1  N   UNL     1       2.425   6.651  20.235  0.00  0.00    +0.000 N 
ATOM      2  C   UNL     1       2.524   5.751  19.199  0.00  0.00    +0.000 C 
ATOM      3  O   UNL     1       2.190   6.072  18.059  0.00  0.00    +0.000 OA
ATOM      4  H   UNL     1       2.344   6.263  21.172  0.00  0.00    +0.000 HD
ENDROOT
BRANCH   2   5
ATOM      5  C   UNL     1       3.129   4.471  19.493  0.00  0.00    +0.000 A 
ATOM      6  C   UNL     1       4.421   3.960  19.367  0.00  0.00    +0.000 A 
ATOM      7  C   UNL     1       4.314   2.632  19.846  0.00  0.00    +0.000 A 
ATOM      8  N   UNL     1       3.084   2.305  20.221  0.00  0.00    +0.000 NA
ATOM      9  N   UNL     1       2.393   3.442  20.047  0.00  0.00    +0.000 N 
ATOM     10  C   UNL     1       0.995   3.458  20.418  0.00  0.00    +0.000 C 
BRANCH   6  11
ATOM     11  C   UNL     1       5.635   4.645  18.932  0.00  0.00    +0.000 C 
ATOM     12  O   UNL     1       6.211   5.468  19.646  0.00  0.00    +0.000 OA
ATOM     13  N   UNL     1       6.105   4.263  17.691  0.00  0.00    +0.000 N 
ATOM     14  C   UNL     1       7.357   4.690  17.070  0.00  0.00    +0.000 C 
ATOM     15  C   UNL     1       6.545   5.084  15.839  0.00  0.00    +0.000 C 
ATOM     16  C   UNL     1       5.348   4.359  16.440  0.00  0.00    +0.000 C 
ENDBRANCH   6  11
ENDBRANCH   2   5
BRANCH   1  17
ATOM     17  C   UNL     1       1.885   7.988  20.010  0.00  0.00    +0.000 C 
BRANCH  17  18
ATOM     18  C   UNL     1       0.860   8.418  21.070  0.00  0.00    +0.000 C 
BRANCH  18  24
ATOM     19  C   UNL     1      -0.794  10.086  23.178  0.00  0.00    +0.000 C 
ATOM     20  C   UNL     1       0.037  10.616  22.070  0.00  0.00    +0.000 A 
ATOM     21  N   UNL     1       0.204  11.886  21.759  0.00  0.00    +0.000 NA
ATOM     22  C   UNL     1       0.992  11.858  20.635  0.00  0.00    +0.000 A 
ATOM     23  N   UNL     1       1.327  10.620  20.244  0.00  0.00    +0.000 NA
ATOM     24  N   UNL     1       0.739   9.855  21.175  0.00  0.00    +0.000 N 
BRANCH  22  25
ATOM     25  C   UNL     1       1.415  13.058  19.921  0.00  0.00    +0.000 A 
ATOM     26  C   UNL     1       0.984  14.328  20.326  0.00  0.00    +0.000 A 
ATOM     27  C   UNL     1       1.398  15.469  19.631  0.00  0.00    +0.000 A 
ATOM     28  C   UNL     1       2.244  15.349  18.528  0.00  0.00    +0.000 A 
ATOM     29  C   UNL     1       2.677  14.091  18.116  0.00  0.00    +0.000 A 
ATOM     30  C   UNL     1       2.265  12.954  18.809  0.00  0.00    +0.000 A 
ENDBRANCH  22  25
ENDBRANCH  18  24
ENDBRANCH  17  18
ENDBRANCH   1  17
TORSDOF 6
ENDMDL
MODEL 4
REMARK VINA RESULT:      -8.1      1.256      1.359
REMARK  Name = 
REMARK  8 active torsions:
REMARK  status: ('A' for Active; 'I' for Inactive)
REMARK    1  A    between atoms: C_1  and  C_2
REMARK    2  A    between atoms: C_4  and  C_5
REMARK    3  A    between atoms: N_12  and  C_13
REMARK    4  A    between atoms: C_13  and  C_14
REMARK    5  A    between atoms: C_14  and  N_15
REMARK    6  A    between atoms: C_16  and  C_18
REMARK    7  A    between atoms: C_19  and  C_20
REMARK    8  A    between atoms: N_28  and  C_29
REMARK                            x       y       z     vdW  Elec       q    Type
REMARK                         _______ _______ _______ _____ _____    ______ ____
ROOT
ATOM      1  N   UNL     1       2.506   6.284  19.167  0.00  0.00    +0.000 N 
ATOM      2  C   UNL     1       2.496   5.087  19.845  0.00  0.00    +0.000 C 
ATOM      3  O   UNL     1       2.096   5.031  21.007  0.00  0.00    +0.000 OA
ATOM      4  H   UNL     1       3.164   6.367  18.394  0.00  0.00    +0.000 HD
ENDROOT
BRANCH   2   5
ATOM      5  C   UNL     1       2.870   3.905  19.101  0.00  0.00    +0.000 A 
ATOM      6  C   UNL     1       4.050   3.478  18.492  0.00  0.00    +0.000 A 
ATOM      7  C   UNL     1       3.716   2.216  17.940  0.00  0.00    +0.000 A 
ATOM      8  N   UNL     1       2.451   1.871  18.146  0.00  0.00    +0.000 NA
ATOM      9  N   UNL     1       1.970   2.879  18.890  0.00  0.00    +0.000 N 
ATOM     10  C   UNL     1       0.600   2.798  19.348  0.00  0.00    +0.000 C 
BRANCH   6  11
ATOM     11  C   UNL     1       5.362   4.120  18.492  0.00  0.00    +0.000 C 
ATOM     12  O   UNL     1       5.919   4.465  19.535  0.00  0.00    +0.000 OA
ATOM     13  N   UNL     1       5.938   4.263  17.245  0.00  0.00    +0.000 N 
ATOM     14  C   UNL     1       7.287   4.753  16.965  0.00  0.00    +0.000 C 
ATOM     15  C   UNL     1       6.661   5.747  15.991  0.00  0.00    +0.000 C 
ATOM     16  C   UNL     1       5.344   4.994  16.124  0.00  0.00    +0.000 C 
ENDBRANCH   6  11
ENDBRANCH   2   5
BRANCH   1  17
ATOM     17  C   UNL     1       2.083   7.516  19.825  0.00  0.00    +0.000 C 
BRANCH  17  18
ATOM     18  C   UNL     1       2.029   8.725  18.879  0.00  0.00    +0.000 C 
BRANCH  18  24
ATOM     19  C   UNL     1       0.922  10.193  21.445  0.00  0.00    +0.000 C 
ATOM     20  C   UNL     1       0.291  10.134  20.105  0.00  0.00    +0.000 A 
ATOM     21  N   UNL     1      -0.866  10.667  19.764  0.00  0.00    +0.000 NA
ATOM     22  C   UNL     1      -1.042  10.285  18.457  0.00  0.00    +0.000 A 
ATOM     23  N   UNL     1      -0.035   9.544  17.973  0.00  0.00    +0.000 NA
ATOM     24  N   UNL     1       0.805   9.483  19.017  0.00  0.00    +0.000 N 
BRANCH  22  25
ATOM     25  C   UNL     1      -2.219  10.637  17.670  0.00  0.00    +0.000 A 
ATOM     26  C   UNL     1      -2.310  10.295  16.315  0.00  0.00    +0.000 A 
ATOM     27  C   UNL     1      -3.445  10.640  15.575  0.00  0.00    +0.000 A 
ATOM     28  C   UNL     1      -4.494  11.330  16.181  0.00  0.00    +0.000 A 
ATOM     29  C   UNL     1      -4.413  11.678  17.527  0.00  0.00    +0.000 A 
ATOM     30  C   UNL     1      -3.282  11.333  18.266  0.00  0.00    +0.000 A 
ENDBRANCH  22  25
ENDBRANCH  18  24
ENDBRANCH  17  18
ENDBRANCH   1  17
TORSDOF 6
ENDMDL
MODEL 5
REMARK VINA RESULT:      -8.0      3.590      8.035
REMARK  Name = 
REMARK  8 active torsions:
REMARK  status: ('A' for Active; 'I' for Inactive)
REMARK    1  A    between atoms: C_1  and  C_2
REMARK    2  A    between atoms: C_4  and  C_5
REMARK    3  A    between atoms: N_12  and  C_13
REMARK    4  A    between atoms: C_13  and  C_14
REMARK    5  A    between atoms: C_14  and  N_15
REMARK    6  A    between atoms: C_16  and  C_18
REMARK    7  A    between atoms: C_19  and  C_20
REMARK    8  A    between atoms: N_28  and  C_29
REMARK                            x       y       z     vdW  Elec       q    Type
REMARK                         _______ _______ _______ _____ _____    ______ ____
ROOT
ATOM      1  N   UNL     1       5.646   5.079  19.221  0.00  0.00    +0.000 N 
ATOM      2  C   UNL     1       4.867   3.945  19.226  0.00  0.00    +0.000 C 
ATOM      3  O   UNL     1       5.221   2.948  19.853  0.00  0.00    +0.000 OA
ATOM      4  H   UNL     1       5.529   5.711  18.430  0.00  0.00    +0.000 HD
ENDROOT
BRANCH   2   5
ATOM      5  C   UNL     1       3.585   4.023  18.562  0.00  0.00    +0.000 A 
ATOM      6  C   UNL     1       2.725   5.072  18.238  0.00  0.00    +0.000 A 
ATOM      7  C   UNL     1       1.638   4.439  17.586  0.00  0.00    +0.000 A 
ATOM      8  N   UNL     1       1.764   3.120  17.517  0.00  0.00    +0.000 NA
ATOM      9  N   UNL     1       2.967   2.892  18.066  0.00  0.00    +0.000 N 
ATOM     10  C   UNL     1       3.455   1.530  18.105  0.00  0.00    +0.000 C 
BRANCH   6  11
ATOM     11  C   UNL     1       2.923   6.507  18.430  0.00  0.00    +0.000 C 
ATOM     12  O   UNL     1       3.887   7.103  17.948  0.00  0.00    +0.000 OA
ATOM     13  N   UNL     1       1.926   7.139  19.146  0.00  0.00    +0.000 N 
ATOM     14  C   UNL     1       1.805   8.577  19.378  0.00  0.00    +0.000 C 
ATOM     15  C   UNL     1       1.681   8.269  20.867  0.00  0.00    +0.000 C 
ATOM     16  C   UNL     1       1.527   6.795  20.513  0.00  0.00    +0.000 C 
ENDBRANCH   6  11
ENDBRANCH   2   5
BRANCH   1  17
ATOM     17  C   UNL     1       6.925   5.106  19.921  0.00  0.00    +0.000 C 
BRANCH  17  18
ATOM     18  C   UNL     1       8.058   5.737  19.097  0.00  0.00    +0.000 C 
BRANCH  18  24
ATOM     19  C   UNL     1       7.565   8.544  17.742  0.00  0.00    +0.000 C 
ATOM     20  C   UNL     1       7.444   7.210  17.107  0.00  0.00    +0.000 A 
ATOM     21  N   UNL     1       7.079   6.969  15.863  0.00  0.00    +0.000 NA
ATOM     22  C   UNL     1       7.054   5.598  15.778  0.00  0.00    +0.000 A 
ATOM     23  N   UNL     1       7.399   4.983  16.918  0.00  0.00    +0.000 NA
ATOM     24  N   UNL     1       7.665   6.014  17.733  0.00  0.00    +0.000 N 
BRANCH  22  25
ATOM     25  C   UNL     1       6.674   4.877  14.569  0.00  0.00    +0.000 A 
ATOM     26  C   UNL     1       5.474   4.156  14.504  0.00  0.00    +0.000 A 
ATOM     27  C   UNL     1       5.125   3.470  13.337  0.00  0.00    +0.000 A 
ATOM     28  C   UNL     1       5.971   3.496  12.229  0.00  0.00    +0.000 A 
ATOM     29  C   UNL     1       7.168   4.207  12.283  0.00  0.00    +0.000 A 
ATOM     30  C   UNL     1       7.515   4.892  13.446  0.00  0.00    +0.000 A 
ENDBRANCH  22  25
ENDBRANCH  18  24
ENDBRANCH  17  18
ENDBRANCH   1  17
TORSDOF 6
ENDMDL
MODEL 6
REMARK VINA RESULT:      -7.9      1.558      2.833
REMARK  Name = 
REMARK  8 active torsions:
REMARK  status: ('A' for Active; 'I' for Inactive)
REMARK    1  A    between atoms: C_1  and  C_2
REMARK    2  A    between atoms: C_4  and  C_5
REMARK    3  A    between atoms: N_12  and  C_13
REMARK    4  A    between atoms: C_13  and  C_14
REMARK    5  A    between atoms: C_14  and  N_15
REMARK    6  A    between atoms: C_16  and  C_18
REMARK    7  A    between atoms: C_19  and  C_20
REMARK    8  A    between atoms: N_28  and  C_29
REMARK                            x       y       z     vdW  Elec       q    Type
REMARK                         _______ _______ _______ _____ _____    ______ ____
ROOT
ATOM      1  N   UNL     1       1.858   8.035  20.448  0.00  0.00    +0.000 N 
ATOM      2  C   UNL     1       2.182   6.779  19.989  0.00  0.00    +0.000 C 
ATOM      3  O   UNL     1       1.633   5.783  20.456  0.00  0.00    +0.000 OA
ATOM      4  H   UNL     1       2.562   8.761  20.329  0.00  0.00    +0.000 HD
ENDROOT
BRANCH   2   5
ATOM      5  C   UNL     1       3.103   6.700  18.877  0.00  0.00    +0.000 A 
ATOM      6  C   UNL     1       4.138   5.828  18.537  0.00  0.00    +0.000 A 
ATOM      7  C   UNL     1       4.625   6.335  17.307  0.00  0.00    +0.000 A 
ATOM      8  N   UNL     1       3.994   7.430  16.903  0.00  0.00    +0.000 NA
ATOM      9  N   UNL     1       3.048   7.607  17.837  0.00  0.00    +0.000 N 
ATOM     10  C   UNL     1       2.123   8.709  17.675  0.00  0.00    +0.000 C 
BRANCH   6  11
ATOM     11  C   UNL     1       4.572   4.615  19.224  0.00  0.00    +0.000 C 
ATOM     12  O   UNL     1       5.647   4.554  19.823  0.00  0.00    +0.000 OA
ATOM     13  N   UNL     1       3.667   3.572  19.189  0.00  0.00    +0.000 N 
ATOM     14  C   UNL     1       3.788   2.297  19.893  0.00  0.00    +0.000 C 
ATOM     15  C   UNL     1       3.542   1.601  18.557  0.00  0.00    +0.000 C 
ATOM     16  C   UNL     1       3.151   2.950  17.967  0.00  0.00    +0.000 C 
ENDBRANCH   6  11
ENDBRANCH   2   5
BRANCH   1  17
ATOM     17  C   UNL     1       0.889   8.206  21.524  0.00  0.00    +0.000 C 
BRANCH  17  18
ATOM     18  C   UNL     1       0.739   9.664  21.984  0.00  0.00    +0.000 C 
BRANCH  18  24
ATOM     19  C   UNL     1      -0.812  12.303  22.754  0.00  0.00    +0.000 C 
ATOM     20  C   UNL     1      -0.910  11.546  21.483  0.00  0.00    +0.000 A 
ATOM     21  N   UNL     1      -1.690  11.835  20.460  0.00  0.00    +0.000 NA
ATOM     22  C   UNL     1      -1.473  10.814  19.569  0.00  0.00    +0.000 A 
ATOM     23  N   UNL     1      -0.580   9.909  19.996  0.00  0.00    +0.000 NA
ATOM     24  N   UNL     1      -0.219  10.402  21.189  0.00  0.00    +0.000 N 
BRANCH  22  25
ATOM     25  C   UNL     1      -2.156  10.711  18.284  0.00  0.00    +0.000 A 
ATOM     26  C   UNL     1      -3.356  11.394  18.048  0.00  0.00    +0.000 A 
ATOM     27  C   UNL     1      -3.998  11.284  16.811  0.00  0.00    +0.000 A 
ATOM     28  C   UNL     1      -3.449  10.493  15.803  0.00  0.00    +0.000 A 
ATOM     29  C   UNL     1      -2.257   9.808  16.028  0.00  0.00    +0.000 A 
ATOM     30  C   UNL     1      -1.616   9.917  17.260  0.00  0.00    +0.000 A 
ENDBRANCH  22  25
ENDBRANCH  18  24
ENDBRANCH  17  18
ENDBRANCH   1  17
TORSDOF 6
ENDMDL
MODEL 7
REMARK VINA RESULT:      -7.7      1.000      1.529
REMARK  Name = 
REMARK  8 active torsions:
REMARK  status: ('A' for Active; 'I' for Inactive)
REMARK    1  A    between atoms: C_1  and  C_2
REMARK    2  A    between atoms: C_4  and  C_5
REMARK    3  A    between atoms: N_12  and  C_13
REMARK    4  A    between atoms: C_13  and  C_14
REMARK    5  A    between atoms: C_14  and  N_15
REMARK    6  A    between atoms: C_16  and  C_18
REMARK    7  A    between atoms: C_19  and  C_20
REMARK    8  A    between atoms: N_28  and  C_29
REMARK                            x       y       z     vdW  Elec       q    Type
REMARK                         _______ _______ _______ _____ _____    ______ ____
ROOT
ATOM      1  N   UNL     1       2.348   6.939  19.937  0.00  0.00    +0.000 N 
ATOM      2  C   UNL     1       2.458   6.198  18.783  0.00  0.00    +0.000 C 
ATOM      3  O   UNL     1       2.276   6.723  17.685  0.00  0.00    +0.000 OA
ATOM      4  H   UNL     1       2.133   6.427  20.791  0.00  0.00    +0.000 HD
ENDROOT
BRANCH   2   5
ATOM      5  C   UNL     1       2.897   4.827  18.918  0.00  0.00    +0.000 A 
ATOM      6  C   UNL     1       3.968   4.098  18.402  0.00  0.00    +0.000 A 
ATOM      7  C   UNL     1       3.797   2.802  18.946  0.00  0.00    +0.000 A 
ATOM      8  N   UNL     1       2.719   2.691  19.712  0.00  0.00    +0.000 NA
ATOM      9  N   UNL     1       2.216   3.935  19.724  0.00  0.00    +0.000 N 
ATOM     10  C   UNL     1       1.040   4.191  20.527  0.00  0.00    +0.000 C 
BRANCH   6  11
ATOM     11  C   UNL     1       5.073   4.566  17.569  0.00  0.00    +0.000 C 
ATOM     12  O   UNL     1       5.277   4.113  16.442  0.00  0.00    +0.000 OA
ATOM     13  N   UNL     1       5.830   5.579  18.124  0.00  0.00    +0.000 N 
ATOM     14  C   UNL     1       6.909   6.313  17.466  0.00  0.00    +0.000 C 
ATOM     15  C   UNL     1       7.791   5.980  18.666  0.00  0.00    +0.000 C 
ATOM     16  C   UNL     1       6.548   5.489  19.397  0.00  0.00    +0.000 C 
ENDBRANCH   6  11
ENDBRANCH   2   5
BRANCH   1  17
ATOM     17  C   UNL     1       1.973   8.348  19.885  0.00  0.00    +0.000 C 
BRANCH  17  18
ATOM     18  C   UNL     1       0.905   8.734  20.919  0.00  0.00    +0.000 C 
BRANCH  18  24
ATOM     19  C   UNL     1      -0.278  11.314  22.300  0.00  0.00    +0.000 C 
ATOM     20  C   UNL     1      -0.606  10.789  20.953  0.00  0.00    +0.000 A 
ATOM     21  N   UNL     1      -1.478  11.302  20.107  0.00  0.00    +0.000 NA
ATOM     22  C   UNL     1      -1.472  10.431  19.045  0.00  0.00    +0.000 A 
ATOM     23  N   UNL     1      -0.624   9.404  19.197  0.00  0.00    +0.000 NA
ATOM     24  N   UNL     1      -0.070   9.662  20.391  0.00  0.00    +0.000 N 
BRANCH  22  25
ATOM     25  C   UNL     1      -2.318  10.595  17.868  0.00  0.00    +0.000 A 
ATOM     26  C   UNL     1      -3.470  11.391  17.912  0.00  0.00    +0.000 A 
ATOM     27  C   UNL     1      -4.270  11.538  16.775  0.00  0.00    +0.000 A 
ATOM     28  C   UNL     1      -3.927  10.891  15.588  0.00  0.00    +0.000 A 
ATOM     29  C   UNL     1      -2.785  10.095  15.535  0.00  0.00    +0.000 A 
ATOM     30  C   UNL     1      -1.987   9.949  16.667  0.00  0.00    +0.000 A 
ENDBRANCH  22  25
ENDBRANCH  18  24
ENDBRANCH  17  18
ENDBRANCH   1  17
TORSDOF 6
ENDMDL
MODEL 8
REMARK VINA RESULT:      -7.7      1.147      1.580
REMARK  Name = 
REMARK  8 active torsions:
REMARK  status: ('A' for Active; 'I' for Inactive)
REMARK    1  A    between atoms: C_1  and  C_2
REMARK    2  A    between atoms: C_4  and  C_5
REMARK    3  A    between atoms: N_12  and  C_13
REMARK    4  A    between atoms: C_13  and  C_14
REMARK    5  A    between atoms: C_14  and  N_15
REMARK    6  A    between atoms: C_16  and  C_18
REMARK    7  A    between atoms: C_19  and  C_20
REMARK    8  A    between atoms: N_28  and  C_29
REMARK                            x       y       z     vdW  Elec       q    Type
REMARK                         _______ _______ _______ _____ _____    ______ ____
ROOT
ATOM      1  N   UNL     1       2.186   6.523  20.785  0.00  0.00    +0.000 N 
ATOM      2  C   UNL     1       1.812   5.258  20.392  0.00  0.00    +0.000 C 
ATOM      3  O   UNL     1       0.624   4.975  20.247  0.00  0.00    +0.000 OA
ATOM      4  H   UNL     1       3.091   6.610  21.244  0.00  0.00    +0.000 HD
ENDROOT
BRANCH   2   5
ATOM      5  C   UNL     1       2.871   4.331  20.059  0.00  0.00    +0.000 A 
ATOM      6  C   UNL     1       3.926   4.354  19.147  0.00  0.00    +0.000 A 
ATOM      7  C   UNL     1       4.584   3.116  19.350  0.00  0.00    +0.000 A 
ATOM      8  N   UNL     1       4.007   2.360  20.275  0.00  0.00    +0.000 NA
ATOM      9  N   UNL     1       3.004   3.129  20.726  0.00  0.00    +0.000 N 
ATOM     10  C   UNL     1       2.183   2.622  21.804  0.00  0.00    +0.000 C 
BRANCH   6  11
ATOM     11  C   UNL     1       4.333   5.431  18.249  0.00  0.00    +0.000 C 
ATOM     12  O   UNL     1       3.909   6.581  18.375  0.00  0.00    +0.000 OA
ATOM     13  N   UNL     1       5.259   5.069  17.290  0.00  0.00    +0.000 N 
ATOM     14  C   UNL     1       5.927   5.967  16.350  0.00  0.00    +0.000 C 
ATOM     15  C   UNL     1       5.477   5.034  15.229  0.00  0.00    +0.000 C 
ATOM     16  C   UNL     1       5.062   4.021  16.287  0.00  0.00    +0.000 C 
ENDBRANCH   6  11
ENDBRANCH   2   5
BRANCH   1  17
ATOM     17  C   UNL     1       1.181   7.539  21.078  0.00  0.00    +0.000 C 
BRANCH  17  18
ATOM     18  C   UNL     1       1.508   8.912  20.474  0.00  0.00    +0.000 C 
BRANCH  18  24
ATOM     19  C   UNL     1      -0.183  10.798  22.357  0.00  0.00    +0.000 C 
ATOM     20  C   UNL     1      -0.438  10.499  20.927  0.00  0.00    +0.000 A 
ATOM     21  N   UNL     1      -1.441  10.953  20.202  0.00  0.00    +0.000 NA
ATOM     22  C   UNL     1      -1.279  10.345  18.981  0.00  0.00    +0.000 A 
ATOM     23  N   UNL     1      -0.209   9.540  18.920  0.00  0.00    +0.000 NA
ATOM     24  N   UNL     1       0.321   9.671  20.145  0.00  0.00    +0.000 N 
BRANCH  22  25
ATOM     25  C   UNL     1      -2.190  10.542  17.860  0.00  0.00    +0.000 A 
ATOM     26  C   UNL     1      -3.309  11.376  17.976  0.00  0.00    +0.000 A 
ATOM     27  C   UNL     1      -4.173  11.554  16.891  0.00  0.00    +0.000 A 
ATOM     28  C   UNL     1      -3.926  10.900  15.684  0.00  0.00    +0.000 A 
ATOM     29  C   UNL     1      -2.818  10.066  15.559  0.00  0.00    +0.000 A 
ATOM     30  C   UNL     1      -1.956   9.889  16.639  0.00  0.00    +0.000 A 
ENDBRANCH  22  25
ENDBRANCH  18  24
ENDBRANCH  17  18
ENDBRANCH   1  17
TORSDOF 6
ENDMDL
MODEL 9
REMARK VINA RESULT:      -7.7      2.130      3.545
REMARK  Name = 
REMARK  8 active torsions:
REMARK  status: ('A' for Active; 'I' for Inactive)
REMARK    1  A    between atoms: C_1  and  C_2
REMARK    2  A    between atoms: C_4  and  C_5
REMARK    3  A    between atoms: N_12  and  C_13
REMARK    4  A    between atoms: C_13  and  C_14
REMARK    5  A    between atoms: C_14  and  N_15
REMARK    6  A    between atoms: C_16  and  C_18
REMARK    7  A    between atoms: C_19  and  C_20
REMARK    8  A    between atoms: N_28  and  C_29
REMARK                            x       y       z     vdW  Elec       q    Type
REMARK                         _______ _______ _______ _____ _____    ______ ____
ROOT
ATOM      1  N   UNL     1       2.170   6.404  20.833  0.00  0.00    +0.000 N 
ATOM      2  C   UNL     1       2.619   5.948  19.615  0.00  0.00    +0.000 C 
ATOM      3  O   UNL     1       2.716   6.715  18.659  0.00  0.00    +0.000 OA
ATOM      4  H   UNL     1       1.756   5.713  21.456  0.00  0.00    +0.000 HD
ENDROOT
BRANCH   2   5
ATOM      5  C   UNL     1       3.065   4.574  19.549  0.00  0.00    +0.000 A 
ATOM      6  C   UNL     1       4.281   3.966  19.237  0.00  0.00    +0.000 A 
ATOM      7  C   UNL     1       4.018   2.581  19.372  0.00  0.00    +0.000 A 
ATOM      8  N   UNL     1       2.762   2.315  19.710  0.00  0.00    +0.000 NA
ATOM      9  N   UNL     1       2.216   3.531  19.861  0.00  0.00    +0.000 N 
ATOM     10  C   UNL     1       0.836   3.614  20.290  0.00  0.00    +0.000 C 
BRANCH   6  11
ATOM     11  C   UNL     1       5.564   4.593  18.931  0.00  0.00    +0.000 C 
ATOM     12  O   UNL     1       6.174   5.268  19.762  0.00  0.00    +0.000 OA
ATOM     13  N   UNL     1       6.053   4.330  17.667  0.00  0.00    +0.000 N 
ATOM     14  C   UNL     1       7.360   4.723  17.145  0.00  0.00    +0.000 C 
ATOM     15  C   UNL     1       6.635   5.335  15.950  0.00  0.00    +0.000 C 
ATOM     16  C   UNL     1       5.359   4.646  16.416  0.00  0.00    +0.000 C 
ENDBRANCH   6  11
ENDBRANCH   2   5
BRANCH   1  17
ATOM     17  C   UNL     1       1.761   7.794  21.003  0.00  0.00    +0.000 C 
BRANCH  17  18
ATOM     18  C   UNL     1       0.237   7.986  21.001  0.00  0.00    +0.000 C 
BRANCH  18  24
ATOM     19  C   UNL     1       0.520   9.974  18.566  0.00  0.00    +0.000 C 
ATOM     20  C   UNL     1      -0.045  10.272  19.904  0.00  0.00    +0.000 A 
ATOM     21  N   UNL     1      -0.503  11.438  20.315  0.00  0.00    +0.000 NA
ATOM     22  C   UNL     1      -0.846  11.223  21.627  0.00  0.00    +0.000 A 
ATOM     23  N   UNL     1      -0.627   9.967  22.041  0.00  0.00    +0.000 NA
ATOM     24  N   UNL     1      -0.148   9.379  20.936  0.00  0.00    +0.000 N 
BRANCH  22  25
ATOM     25  C   UNL     1      -1.385  12.263  22.496  0.00  0.00    +0.000 A 
ATOM     26  C   UNL     1      -0.679  13.452  22.722  0.00  0.00    +0.000 A 
ATOM     27  C   UNL     1      -1.210  14.440  23.558  0.00  0.00    +0.000 A 
ATOM     28  C   UNL     1      -2.445  14.246  24.175  0.00  0.00    +0.000 A 
ATOM     29  C   UNL     1      -3.153  13.067  23.960  0.00  0.00    +0.000 A 
ATOM     30  C   UNL     1      -2.626  12.083  23.126  0.00  0.00    +0.000 A 
ENDBRANCH  22  25
ENDBRANCH  18  24
ENDBRANCH  17  18
ENDBRANCH   1  17
TORSDOF 6
ENDMDL
