MODEL 1
REMARK VINA RESULT:      -8.7      0.000      0.000
REMARK  Name = 
REMARK  13 active torsions:
REMARK  status: ('A' for Active; 'I' for Inactive)
REMARK    1  A    between atoms: C_1  and  O_2
REMARK    2  A    between atoms: O_2  and  C_3
REMARK    3  A    between atoms: C_8  and  N_9
REMARK    4  A    between atoms: N_9  and  C_10
REMARK    5  A    between atoms: C_10  and  C_11
REMARK    6  A    between atoms: C_21  and  C_22
REMARK    7  A    between atoms: C_22  and  O_24
REMARK    8  A    between atoms: N_26  and  C_27
REMARK    9  A    between atoms: C_27  and  C_28
REMARK   10  A    between atoms: C_27  and  C_30
REMARK   11  A    between atoms: C_28  and  O_29
REMARK   12  A    between atoms: C_30  and  C_31
REMARK   13  A    between atoms: C_30  and  C_32
REMARK                            x       y       z     vdW  Elec       q    Type
REMARK                         _______ _______ _______ _____ _____    ______ ____
ROOT
ATOM      1  C   UNL     1       1.954   7.262  19.658  0.00  0.00    +0.000 A 
ATOM      2  N   UNL     1       2.511   6.022  19.756  0.00  0.00    +0.000 NA
ATOM      3  C   UNL     1       3.455   5.644  18.870  0.00  0.00    +0.000 A 
ATOM      4  C   UNL     1       3.849   6.522  17.865  0.00  0.00    +0.000 A 
ATOM      5  C   UNL     1       3.270   7.785  17.761  0.00  0.00    +0.000 A 
ATOM      6  C   UNL     1       2.329   8.222  18.693  0.00  0.00    +0.000 A 
ATOM      7  C   UNL     1       4.886   6.135  16.898  0.00  0.00    +0.000 A 
ATOM      8  O   UNL     1       5.268   6.914  16.025  0.00  0.00    +0.000 OA
ATOM      9  C   UNL     1       5.466   4.788  16.994  0.00  0.00    +0.000 A 
ATOM     10  C   UNL     1       5.008   4.007  17.983  0.00  0.00    +0.000 A 
ATOM     11  N   UNL     1       4.038   4.352  18.920  0.00  0.00    +0.000 N 
ENDROOT
BRANCH   1  13
ATOM     12  C   UNL     1       1.429   8.473  21.637  0.00  0.00    +0.000 C 
ATOM     13  O   UNL     1       0.992   7.600  20.590  0.00  0.00    +0.000 OA
ENDBRANCH   1  13
BRANCH   6  14
ATOM     14  N   UNL     1       1.757   9.521  18.595  0.00  0.00    +0.000 N 
ATOM     15  H   UNL     1       1.594   9.882  19.537  0.00  0.00    +0.000 HD
BRANCH  14  16
ATOM     16  C   UNL     1       0.526   9.598  17.783  0.00  0.00    +0.000 C 
BRANCH  16  17
ATOM     17  C   UNL     1      -0.627  10.322  18.427  0.00  0.00    +0.000 A 
ATOM     18  C   UNL     1      -0.499  11.040  19.619  0.00  0.00    +0.000 A 
ATOM     19  C   UNL     1      -1.519  11.899  20.041  0.00  0.00    +0.000 A 
ATOM     20  C   UNL     1      -2.684  12.042  19.284  0.00  0.00    +0.000 A 
ATOM     21  C   UNL     1      -2.837  11.310  18.110  0.00  0.00    +0.000 A 
ATOM     22 CL   UNL     1      -4.264  11.511  17.166  0.00  0.00    +0.000 Cl
ATOM     23  C   UNL     1      -1.814  10.461  17.687  0.00  0.00    +0.000 A 
ATOM     24  F   UNL     1      -1.932   9.808  16.518  0.00  0.00    +0.000 F 
ENDBRANCH  16  17
ENDBRANCH  14  16
ENDBRANCH   6  14
BRANCH   9  25
ATOM     25  C   UNL     1       6.496   4.281  16.063  0.00  0.00    +0.000 C 
ATOM     26  O   UNL     1       7.690   4.424  16.251  0.00  0.00    +0.000 OA
BRANCH  25  27
ATOM     27  O   UNL     1       6.004   3.632  14.982  0.00  0.00    +0.000 OA
ATOM     28  H   UNL     1       5.913   2.655  15.103  0.00  0.00    +0.000 HD
ENDBRANCH  25  27
ENDBRANCH   9  25
BRANCH  11  29
ATOM     29  C   UNL     1       3.561   3.442  20.003  0.00  0.00    +0.000 C 
BRANCH  29  30
ATOM     30  C   UNL     1       2.022   3.216  19.895  0.00  0.00    +0.000 C 
ATOM     31  C   UNL     1       1.661   2.148  18.853  0.00  0.00    +0.000 C 
ATOM     32  C   UNL     1       1.406   2.797  21.238  0.00  0.00    +0.000 C 
ENDBRANCH  29  30
BRANCH  29  33
ATOM     33  C   UNL     1       4.364   2.113  19.961  0.00  0.00    +0.000 C 
BRANCH  33  34
ATOM     34  O   UNL     1       5.138   1.900  21.142  0.00  0.00    +0.000 OA
ATOM     35  H   UNL     1       5.774   1.187  20.956  0.00  0.00    +0.000 HD
ENDBRANCH  33  34
ENDBRANCH  29  33
ENDBRANCH  11  29
TORSDOF 10
ENDMDL
MODEL 2
REMARK VINA RESULT:      -7.8      1.253      1.608
REMARK  Name = 
REMARK  13 active torsions:
REMARK  status: ('A' for Active; 'I' for Inactive)
REMARK    1  A    between atoms: C_1  and  O_2
REMARK    2  A    between atoms: O_2  and  C_3
REMARK    3  A    between atoms: C_8  and  N_9
REMARK    4  A    between atoms: N_9  and  C_10
REMARK    5  A    between atoms: C_10  and  C_11
REMARK    6  A    between atoms: C_21  and  C_22
REMARK    7  A    between atoms: C_22  and  O_24
REMARK    8  A    between atoms: N_26  and  C_27
REMARK    9  A    between atoms: C_27  and  C_28
REMARK   10  A    between atoms: C_27  and  C_30
REMARK   11  A    between atoms: C_28  and  O_29
REMARK   12  A    between atoms: C_30  and  C_31
REMARK   13  A    between atoms: C_30  and  C_32
REMARK                            x       y       z     vdW  Elec       q    Type
REMARK                         _______ _______ _______ _____ _____    ______ ____
ROOT
ATOM      1  C   UNL     1       1.577   7.526  20.241  0.00  0.00    +0.000 A 
ATOM      2  N   UNL     1       2.171   6.301  20.160  0.00  0.00    +0.000 NA
ATOM      3  C   UNL     1       2.974   6.019  19.113  0.00  0.00    +0.000 A 
ATOM      4  C   UNL     1       3.187   6.979  18.129  0.00  0.00    +0.000 A 
ATOM      5  C   UNL     1       2.569   8.226  18.210  0.00  0.00    +0.000 A 
ATOM      6  C   UNL     1       1.776   8.563  19.305  0.00  0.00    +0.000 A 
ATOM      7  C   UNL     1       4.070   6.697  16.988  0.00  0.00    +0.000 A 
ATOM      8  O   UNL     1       4.293   7.548  16.127  0.00  0.00    +0.000 OA
ATOM      9  C   UNL     1       4.688   5.367  16.893  0.00  0.00    +0.000 A 
ATOM     10  C   UNL     1       4.407   4.503  17.879  0.00  0.00    +0.000 A 
ATOM     11  N   UNL     1       3.587   4.748  18.977  0.00  0.00    +0.000 N 
ENDROOT
BRANCH   1  13
ATOM     12  C   UNL     1       1.194   8.816  22.202  0.00  0.00    +0.000 C 
ATOM     13  O   UNL     1       0.764   7.764  21.333  0.00  0.00    +0.000 OA
ENDBRANCH   1  13
BRANCH   6  14
ATOM     14  N   UNL     1       1.166   9.846  19.394  0.00  0.00    +0.000 N 
ATOM     15  H   UNL     1       0.386   9.796  20.051  0.00  0.00    +0.000 HD
BRANCH  14  16
ATOM     16  C   UNL     1       0.729  10.417  18.103  0.00  0.00    +0.000 C 
BRANCH  16  17
ATOM     17  C   UNL     1      -0.755  10.632  17.963  0.00  0.00    +0.000 A 
ATOM     18  C   UNL     1      -1.575   9.792  17.204  0.00  0.00    +0.000 A 
ATOM     19  C   UNL     1      -2.967   9.877  17.309  0.00  0.00    +0.000 A 
ATOM     20  C   UNL     1      -3.557  10.810  18.163  0.00  0.00    +0.000 A 
ATOM     21  C   UNL     1      -2.754  11.674  18.903  0.00  0.00    +0.000 A 
ATOM     22 CL   UNL     1      -3.487  12.804  19.976  0.00  0.00    +0.000 Cl
ATOM     23  C   UNL     1      -1.366  11.580  18.803  0.00  0.00    +0.000 A 
ATOM     24  F   UNL     1      -0.589  12.365  19.568  0.00  0.00    +0.000 F 
ENDBRANCH  16  17
ENDBRANCH  14  16
ENDBRANCH   6  14
BRANCH   9  25
ATOM     25  C   UNL     1       5.572   4.962  15.779  0.00  0.00    +0.000 C 
ATOM     26  O   UNL     1       5.445   3.911  15.179  0.00  0.00    +0.000 OA
BRANCH  25  27
ATOM     27  O   UNL     1       6.534   5.862  15.471  0.00  0.00    +0.000 OA
ATOM     28  H   UNL     1       6.190   6.754  15.221  0.00  0.00    +0.000 HD
ENDBRANCH  25  27
ENDBRANCH   9  25
BRANCH  11  29
ATOM     29  C   UNL     1       3.305   3.748  20.049  0.00  0.00    +0.000 C 
BRANCH  29  30
ATOM     30  C   UNL     1       1.780   3.433  20.121  0.00  0.00    +0.000 C 
ATOM     31  C   UNL     1       1.311   2.546  18.959  0.00  0.00    +0.000 C 
ATOM     32  C   UNL     1       1.397   2.737  21.436  0.00  0.00    +0.000 C 
ENDBRANCH  29  30
BRANCH  29  33
ATOM     33  C   UNL     1       4.167   2.476  19.818  0.00  0.00    +0.000 C 
BRANCH  33  34
ATOM     34  O   UNL     1       4.881   2.076  20.988  0.00  0.00    +0.000 OA
ATOM     35  H   UNL     1       5.094   2.878  21.496  0.00  0.00    +0.000 HD
ENDBRANCH  33  34
ENDBRANCH  29  33
ENDBRANCH  11  29
TORSDOF 10
ENDMDL
MODEL 3
REMARK VINA RESULT:      -7.8      1.431      1.750
REMARK  Name = 
REMARK  13 active torsions:
REMARK  status: ('A' for Active; 'I' for Inactive)
REMARK    1  A    between atoms: C_1  and  O_2
REMARK    2  A    between atoms: O_2  and  C_3
REMARK    3  A    between atoms: C_8  and  N_9
REMARK    4  A    between atoms: N_9  and  C_10
REMARK    5  A    between atoms: C_10  and  C_11
REMARK    6  A    between atoms: C_21  and  C_22
REMARK    7  A    between atoms: C_22  and  O_24
REMARK    8  A    between atoms: N_26  and  C_27
REMARK    9  A    between atoms: C_27  and  C_28
REMARK   10  A    between atoms: C_27  and  C_30
REMARK   11  A    between atoms: C_28  and  O_29
REMARK   12  A    between atoms: C_30  and  C_31
REMARK   13  A    between atoms: C_30  and  C_32
REMARK                            x       y       z     vdW  Elec       q    Type
REMARK                         _______ _______ _______ _____ _____    ______ ____
ROOT
ATOM      1  C   UNL     1       2.000   7.307  19.541  0.00  0.00    +0.000 A 
ATOM      2  N   UNL     1       2.557   6.070  19.671  0.00  0.00    +0.000 NA
ATOM      3  C   UNL     1       3.480   5.658  18.778  0.00  0.00    +0.000 A 
ATOM      4  C   UNL     1       3.854   6.500  17.735  0.00  0.00    +0.000 A 
ATOM      5  C   UNL     1       3.276   7.760  17.599  0.00  0.00    +0.000 A 
ATOM      6  C   UNL     1       2.357   8.232  18.536  0.00  0.00    +0.000 A 
ATOM      7  C   UNL     1       4.870   6.076  16.760  0.00  0.00    +0.000 A 
ATOM      8  O   UNL     1       5.234   6.824  15.852  0.00  0.00    +0.000 OA
ATOM      9  C   UNL     1       5.449   4.731  16.891  0.00  0.00    +0.000 A 
ATOM     10  C   UNL     1       5.010   3.987  17.916  0.00  0.00    +0.000 A 
ATOM     11  N   UNL     1       4.061   4.368  18.861  0.00  0.00    +0.000 N 
ENDROOT
BRANCH   1  13
ATOM     12  C   UNL     1       1.576   8.339  21.642  0.00  0.00    +0.000 C 
ATOM     13  O   UNL     1       1.059   7.680  20.482  0.00  0.00    +0.000 OA
ENDBRANCH   1  13
BRANCH   6  14
ATOM     14  N   UNL     1       1.786   9.528  18.405  0.00  0.00    +0.000 N 
ATOM     15  H   UNL     1       1.848  10.009  19.304  0.00  0.00    +0.000 HD
BRANCH  14  16
ATOM     16  C   UNL     1       0.400   9.548  17.894  0.00  0.00    +0.000 C 
BRANCH  16  17
ATOM     17  C   UNL     1      -0.484  10.624  18.470  0.00  0.00    +0.000 A 
ATOM     18  C   UNL     1      -1.789  10.851  18.025  0.00  0.00    +0.000 A 
ATOM     19  C   UNL     1      -2.651  11.677  18.752  0.00  0.00    +0.000 A 
ATOM     20  C   UNL     1      -2.217  12.297  19.926  0.00  0.00    +0.000 A 
ATOM     21  C   UNL     1      -0.910  12.104  20.365  0.00  0.00    +0.000 A 
ATOM     22 CL   UNL     1      -0.388  12.849  21.828  0.00  0.00    +0.000 Cl
ATOM     23  C   UNL     1      -0.055  11.272  19.642  0.00  0.00    +0.000 A 
ATOM     24  F   UNL     1       1.184  11.029  20.102  0.00  0.00    +0.000 F 
ENDBRANCH  16  17
ENDBRANCH  14  16
ENDBRANCH   6  14
BRANCH   9  25
ATOM     25  C   UNL     1       6.457   4.189  15.956  0.00  0.00    +0.000 C 
ATOM     26  O   UNL     1       6.199   3.878  14.808  0.00  0.00    +0.000 OA
BRANCH  25  27
ATOM     27  O   UNL     1       7.700   4.073  16.477  0.00  0.00    +0.000 OA
ATOM     28  H   UNL     1       8.414   3.963  15.803  0.00  0.00    +0.000 HD
ENDBRANCH  25  27
ENDBRANCH   9  25
BRANCH  11  29
ATOM     29  C   UNL     1       3.605   3.497  19.984  0.00  0.00    +0.000 C 
BRANCH  29  30
ATOM     30  C   UNL     1       2.065   3.270  19.916  0.00  0.00    +0.000 C 
ATOM     31  C   UNL     1       1.682   2.158  18.930  0.00  0.00    +0.000 C 
ATOM     32  C   UNL     1       1.474   2.913  21.289  0.00  0.00    +0.000 C 
ENDBRANCH  29  30
BRANCH  29  33
ATOM     33  C   UNL     1       4.406   2.166  19.973  0.00  0.00    +0.000 C 
BRANCH  33  34
ATOM     34  O   UNL     1       4.942   1.835  21.254  0.00  0.00    +0.000 OA
ATOM     35  H   UNL     1       5.322   0.940  21.197  0.00  0.00    +0.000 HD
ENDBRANCH  33  34
ENDBRANCH  29  33
ENDBRANCH  11  29
TORSDOF 10
ENDMDL
MODEL 4
REMARK VINA RESULT:      -7.8      2.503      4.526
REMARK  Name = 
REMARK  13 active torsions:
REMARK  status: ('A' for Active; 'I' for Inactive)
REMARK    1  A    between atoms: C_1  and  O_2
REMARK    2  A    between atoms: O_2  and  C_3
REMARK    3  A    between atoms: C_8  and  N_9
REMARK    4  A    between atoms: N_9  and  C_10
REMARK    5  A    between atoms: C_10  and  C_11
REMARK    6  A    between atoms: C_21  and  C_22
REMARK    7  A    between atoms: C_22  and  O_24
REMARK    8  A    between atoms: N_26  and  C_27
REMARK    9  A    between atoms: C_27  and  C_28
REMARK   10  A    between atoms: C_27  and  C_30
REMARK   11  A    between atoms: C_28  and  O_29
REMARK   12  A    between atoms: C_30  and  C_31
REMARK   13  A    between atoms: C_30  and  C_32
REMARK                            x       y       z     vdW  Elec       q    Type
REMARK                         _______ _______ _______ _____ _____    ______ ____
ROOT
ATOM      1  C   UNL     1       2.463   7.882  19.064  0.00  0.00    +0.000 A 
ATOM      2  N   UNL     1       3.429   7.194  18.392  0.00  0.00    +0.000 NA
ATOM      3  C   UNL     1       3.688   5.913  18.725  0.00  0.00    +0.000 A 
ATOM      4  C   UNL     1       2.967   5.308  19.749  0.00  0.00    +0.000 A 
ATOM      5  C   UNL     1       1.988   6.017  20.441  0.00  0.00    +0.000 A 
ATOM      6  C   UNL     1       1.664   7.325  20.086  0.00  0.00    +0.000 A 
ATOM      7  C   UNL     1       3.223   3.907  20.117  0.00  0.00    +0.000 A 
ATOM      8  O   UNL     1       2.570   3.349  20.999  0.00  0.00    +0.000 OA
ATOM      9  C   UNL     1       4.283   3.178  19.405  0.00  0.00    +0.000 A 
ATOM     10  C   UNL     1       4.935   3.853  18.448  0.00  0.00    +0.000 A 
ATOM     11  N   UNL     1       4.704   5.173  18.069  0.00  0.00    +0.000 N 
ENDROOT
BRANCH   1  13
ATOM     12  C   UNL     1       1.158   9.389  17.766  0.00  0.00    +0.000 C 
ATOM     13  O   UNL     1       2.237   9.191  18.684  0.00  0.00    +0.000 OA
ENDBRANCH   1  13
BRANCH   6  14
ATOM     14  N   UNL     1       0.647   8.037  20.781  0.00  0.00    +0.000 N 
ATOM     15  H   UNL     1       0.076   8.545  20.103  0.00  0.00    +0.000 HD
BRANCH  14  16
ATOM     16  C   UNL     1       1.136   8.945  21.838  0.00  0.00    +0.000 C 
BRANCH  16  17
ATOM     17  C   UNL     1       0.510  10.315  21.853  0.00  0.00    +0.000 A 
ATOM     18  C   UNL     1       0.853  11.315  20.938  0.00  0.00    +0.000 A 
ATOM     19  C   UNL     1       0.074  12.470  20.827  0.00  0.00    +0.000 A 
ATOM     20  C   UNL     1      -1.051  12.647  21.635  0.00  0.00    +0.000 A 
ATOM     21  C   UNL     1      -1.388  11.673  22.571  0.00  0.00    +0.000 A 
ATOM     22 CL   UNL     1      -2.793  11.884  23.546  0.00  0.00    +0.000 Cl
ATOM     23  C   UNL     1      -0.613  10.518  22.673  0.00  0.00    +0.000 A 
ATOM     24  F   UNL     1      -0.978   9.546  23.527  0.00  0.00    +0.000 F 
ENDBRANCH  16  17
ENDBRANCH  14  16
ENDBRANCH   6  14
BRANCH   9  25
ATOM     25  C   UNL     1       4.645   1.777  19.707  0.00  0.00    +0.000 C 
ATOM     26  O   UNL     1       5.229   1.447  20.722  0.00  0.00    +0.000 OA
BRANCH  25  27
ATOM     27  O   UNL     1       4.266   0.885  18.763  0.00  0.00    +0.000 OA
ATOM     28  H   UNL     1       4.513   1.139  17.841  0.00  0.00    +0.000 HD
ENDBRANCH  25  27
ENDBRANCH   9  25
BRANCH  11  29
ATOM     29  C   UNL     1       5.463   5.879  16.995  0.00  0.00    +0.000 C 
BRANCH  29  30
ATOM     30  C   UNL     1       6.928   6.160  17.448  0.00  0.00    +0.000 C 
ATOM     31  C   UNL     1       7.302   7.644  17.325  0.00  0.00    +0.000 C 
ATOM     32  C   UNL     1       7.176   5.725  18.900  0.00  0.00    +0.000 C 
ENDBRANCH  29  30
BRANCH  29  33
ATOM     33  C   UNL     1       5.393   5.058  15.678  0.00  0.00    +0.000 C 
BRANCH  33  34
ATOM     34  O   UNL     1       6.376   5.462  14.725  0.00  0.00    +0.000 OA
ATOM     35  H   UNL     1       5.980   5.387  13.839  0.00  0.00    +0.000 HD
ENDBRANCH  33  34
ENDBRANCH  29  33
ENDBRANCH  11  29
TORSDOF 10
ENDMDL
MODEL 5
REMARK VINA RESULT:      -7.7      3.721      9.055
REMARK  Name = 
REMARK  13 active torsions:
REMARK  status: ('A' for Active; 'I' for Inactive)
REMARK    1  A    between atoms: C_1  and  O_2
REMARK    2  A    between atoms: O_2  and  C_3
REMARK    3  A    between atoms: C_8  and  N_9
REMARK    4  A    between atoms: N_9  and  C_10
REMARK    5  A    between atoms: C_10  and  C_11
REMARK    6  A    between atoms: C_21  and  C_22
REMARK    7  A    between atoms: C_22  and  O_24
REMARK    8  A    between atoms: N_26  and  C_27
REMARK    9  A    between atoms: C_27  and  C_28
REMARK   10  A    between atoms: C_27  and  C_30
REMARK   11  A    between atoms: C_28  and  O_29
REMARK   12  A    between atoms: C_30  and  C_31
REMARK   13  A    between atoms: C_30  and  C_32
REMARK                            x       y       z     vdW  Elec       q    Type
REMARK                         _______ _______ _______ _____ _____    ______ ____
ROOT
ATOM      1  C   UNL     1       1.480   8.080  19.111  0.00  0.00    +0.000 A 
ATOM      2  N   UNL     1       0.687   9.161  18.862  0.00  0.00    +0.000 NA
ATOM      3  C   UNL     1       0.163   9.853  19.894  0.00  0.00    +0.000 A 
ATOM      4  C   UNL     1       0.435   9.458  21.200  0.00  0.00    +0.000 A 
ATOM      5  C   UNL     1       1.237   8.346  21.450  0.00  0.00    +0.000 A 
ATOM      6  C   UNL     1       1.834   7.642  20.406  0.00  0.00    +0.000 A 
ATOM      7  C   UNL     1      -0.114  10.208  22.339  0.00  0.00    +0.000 A 
ATOM      8  O   UNL     1       0.146   9.889  23.499  0.00  0.00    +0.000 OA
ATOM      9  C   UNL     1      -0.987  11.358  22.064  0.00  0.00    +0.000 A 
ATOM     10  C   UNL     1      -1.207  11.649  20.774  0.00  0.00    +0.000 A 
ATOM     11  N   UNL     1      -0.689  10.966  19.677  0.00  0.00    +0.000 N 
ENDROOT
BRANCH   1  13
ATOM     12  C   UNL     1       3.307   7.796  17.615  0.00  0.00    +0.000 C 
ATOM     13  O   UNL     1       1.992   7.405  18.019  0.00  0.00    +0.000 OA
ENDBRANCH   1  13
BRANCH   6  14
ATOM     14  N   UNL     1       2.670   6.521  20.668  0.00  0.00    +0.000 N 
ATOM     15  H   UNL     1       3.290   6.377  19.869  0.00  0.00    +0.000 HD
BRANCH  14  16
ATOM     16  C   UNL     1       1.951   5.275  21.006  0.00  0.00    +0.000 C 
BRANCH  16  17
ATOM     17  C   UNL     1       2.080   4.163  19.999  0.00  0.00    +0.000 A 
ATOM     18  C   UNL     1       1.048   3.258  19.733  0.00  0.00    +0.000 A 
ATOM     19  C   UNL     1       1.117   2.412  18.622  0.00  0.00    +0.000 A 
ATOM     20  C   UNL     1       2.222   2.452  17.769  0.00  0.00    +0.000 A 
ATOM     21  C   UNL     1       3.270   3.327  18.037  0.00  0.00    +0.000 A 
ATOM     22 CL   UNL     1       4.618   3.391  16.966  0.00  0.00    +0.000 Cl
ATOM     23  C   UNL     1       3.194   4.176  19.142  0.00  0.00    +0.000 A 
ATOM     24  F   UNL     1       4.173   5.070  19.362  0.00  0.00    +0.000 F 
ENDBRANCH  16  17
ENDBRANCH  14  16
ENDBRANCH   6  14
BRANCH   9  25
ATOM     25  C   UNL     1      -1.616  12.170  23.128  0.00  0.00    +0.000 C 
ATOM     26  O   UNL     1      -2.719  11.929  23.582  0.00  0.00    +0.000 OA
BRANCH  25  27
ATOM     27  O   UNL     1      -0.860  13.203  23.565  0.00  0.00    +0.000 OA
ATOM     28  H   UNL     1      -1.205  13.641  24.381  0.00  0.00    +0.000 HD
ENDBRANCH  25  27
ENDBRANCH   9  25
BRANCH  11  29
ATOM     29  C   UNL     1      -0.968  11.331  18.257  0.00  0.00    +0.000 C 
BRANCH  29  30
ATOM     30  C   UNL     1      -2.346  10.764  17.802  0.00  0.00    +0.000 C 
ATOM     31  C   UNL     1      -3.510  11.700  18.160  0.00  0.00    +0.000 C 
ATOM     32  C   UNL     1      -2.392  10.506  16.288  0.00  0.00    +0.000 C 
ENDBRANCH  29  30
BRANCH  29  33
ATOM     33  C   UNL     1      -0.870  12.872  18.084  0.00  0.00    +0.000 C 
BRANCH  33  34
ATOM     34  O   UNL     1       0.480  13.334  18.018  0.00  0.00    +0.000 OA
ATOM     35  H   UNL     1       0.529  14.011  17.321  0.00  0.00    +0.000 HD
ENDBRANCH  33  34
ENDBRANCH  29  33
ENDBRANCH  11  29
TORSDOF 10
ENDMDL
MODEL 6
REMARK VINA RESULT:      -7.7      2.475      4.608
REMARK  Name = 
REMARK  13 active torsions:
REMARK  status: ('A' for Active; 'I' for Inactive)
REMARK    1  A    between atoms: C_1  and  O_2
REMARK    2  A    between atoms: O_2  and  C_3
REMARK    3  A    between atoms: C_8  and  N_9
REMARK    4  A    between atoms: N_9  and  C_10
REMARK    5  A    between atoms: C_10  and  C_11
REMARK    6  A    between atoms: C_21  and  C_22
REMARK    7  A    between atoms: C_22  and  O_24
REMARK    8  A    between atoms: N_26  and  C_27
REMARK    9  A    between atoms: C_27  and  C_28
REMARK   10  A    between atoms: C_27  and  C_30
REMARK   11  A    between atoms: C_28  and  O_29
REMARK   12  A    between atoms: C_30  and  C_31
REMARK   13  A    between atoms: C_30  and  C_32
REMARK                            x       y       z     vdW  Elec       q    Type
REMARK                         _______ _______ _______ _____ _____    ______ ____
ROOT
ATOM      1  C   UNL     1       2.210   7.963  19.404  0.00  0.00    +0.000 A 
ATOM      2  N   UNL     1       3.222   7.306  18.770  0.00  0.00    +0.000 NA
ATOM      3  C   UNL     1       3.502   6.030  19.107  0.00  0.00    +0.000 A 
ATOM      4  C   UNL     1       2.757   5.399  20.097  0.00  0.00    +0.000 A 
ATOM      5  C   UNL     1       1.731   6.076  20.751  0.00  0.00    +0.000 A 
ATOM      6  C   UNL     1       1.385   7.378  20.390  0.00  0.00    +0.000 A 
ATOM      7  C   UNL     1       3.036   4.004  20.468  0.00  0.00    +0.000 A 
ATOM      8  O   UNL     1       2.364   3.422  21.320  0.00  0.00    +0.000 OA
ATOM      9  C   UNL     1       4.145   3.309  19.798  0.00  0.00    +0.000 A 
ATOM     10  C   UNL     1       4.817   4.007  18.871  0.00  0.00    +0.000 A 
ATOM     11  N   UNL     1       4.565   5.322  18.490  0.00  0.00    +0.000 N 
ENDROOT
BRANCH   1  13
ATOM     12  C   UNL     1       1.113   9.425  17.884  0.00  0.00    +0.000 C 
ATOM     13  O   UNL     1       1.964   9.267  19.023  0.00  0.00    +0.000 OA
ENDBRANCH   1  13
BRANCH   6  14
ATOM     14  N   UNL     1       0.321   8.057  21.045  0.00  0.00    +0.000 N 
ATOM     15  H   UNL     1      -0.267   8.508  20.342  0.00  0.00    +0.000 HD
BRANCH  14  16
ATOM     16  C   UNL     1       0.745   9.027  22.076  0.00  0.00    +0.000 C 
BRANCH  16  17
ATOM     17  C   UNL     1      -0.112  10.260  22.191  0.00  0.00    +0.000 A 
ATOM     18  C   UNL     1      -1.179  10.360  23.089  0.00  0.00    +0.000 A 
ATOM     19  C   UNL     1      -1.778  11.598  23.341  0.00  0.00    +0.000 A 
ATOM     20  C   UNL     1      -1.327  12.749  22.691  0.00  0.00    +0.000 A 
ATOM     21  C   UNL     1      -0.285  12.660  21.773  0.00  0.00    +0.000 A 
ATOM     22 CL   UNL     1       0.285  14.088  20.996  0.00  0.00    +0.000 Cl
ATOM     23  C   UNL     1       0.316  11.425  21.530  0.00  0.00    +0.000 A 
ATOM     24  F   UNL     1       1.368  11.349  20.697  0.00  0.00    +0.000 F 
ENDBRANCH  16  17
ENDBRANCH  14  16
ENDBRANCH   6  14
BRANCH   9  25
ATOM     25  C   UNL     1       4.533   1.917  20.107  0.00  0.00    +0.000 C 
ATOM     26  O   UNL     1       5.053   1.590  21.157  0.00  0.00    +0.000 OA
BRANCH  25  27
ATOM     27  O   UNL     1       4.255   1.026  19.127  0.00  0.00    +0.000 OA
ATOM     28  H   UNL     1       5.041   0.526  18.798  0.00  0.00    +0.000 HD
ENDBRANCH  25  27
ENDBRANCH   9  25
BRANCH  11  29
ATOM     29  C   UNL     1       5.348   6.056  17.452  0.00  0.00    +0.000 C 
BRANCH  29  30
ATOM     30  C   UNL     1       6.870   6.030  17.788  0.00  0.00    +0.000 C 
ATOM     31  C   UNL     1       7.609   4.900  17.058  0.00  0.00    +0.000 C 
ATOM     32  C   UNL     1       7.560   7.356  17.435  0.00  0.00    +0.000 C 
ENDBRANCH  29  30
BRANCH  29  33
ATOM     33  C   UNL     1       5.036   5.467  16.049  0.00  0.00    +0.000 C 
BRANCH  33  34
ATOM     34  O   UNL     1       5.225   6.417  14.999  0.00  0.00    +0.000 OA
ATOM     35  H   UNL     1       5.717   7.172  15.365  0.00  0.00    +0.000 HD
ENDBRANCH  33  34
ENDBRANCH  29  33
ENDBRANCH  11  29
TORSDOF 10
ENDMDL
MODEL 7
REMARK VINA RESULT:      -7.7      4.066      9.260
REMARK  Name = 
REMARK  13 active torsions:
REMARK  status: ('A' for Active; 'I' for Inactive)
REMARK    1  A    between atoms: C_1  and  O_2
REMARK    2  A    between atoms: O_2  and  C_3
REMARK    3  A    between atoms: C_8  and  N_9
REMARK    4  A    between atoms: N_9  and  C_10
REMARK    5  A    between atoms: C_10  and  C_11
REMARK    6  A    between atoms: C_21  and  C_22
REMARK    7  A    between atoms: C_22  and  O_24
REMARK    8  A    between atoms: N_26  and  C_27
REMARK    9  A    between atoms: C_27  and  C_28
REMARK   10  A    between atoms: C_27  and  C_30
REMARK   11  A    between atoms: C_28  and  O_29
REMARK   12  A    between atoms: C_30  and  C_31
REMARK   13  A    between atoms: C_30  and  C_32
REMARK                            x       y       z     vdW  Elec       q    Type
REMARK                         _______ _______ _______ _____ _____    ______ ____
ROOT
ATOM      1  C   UNL     1       1.450   8.422  19.092  0.00  0.00    +0.000 A 
ATOM      2  N   UNL     1       0.792   9.596  18.871  0.00  0.00    +0.000 NA
ATOM      3  C   UNL     1       0.245  10.258  19.910  0.00  0.00    +0.000 A 
ATOM      4  C   UNL     1       0.355   9.737  21.196  0.00  0.00    +0.000 A 
ATOM      5  C   UNL     1       1.018   8.532  21.417  0.00  0.00    +0.000 A 
ATOM      6  C   UNL     1       1.638   7.851  20.370  0.00  0.00    +0.000 A 
ATOM      7  C   UNL     1      -0.222  10.451  22.344  0.00  0.00    +0.000 A 
ATOM      8  O   UNL     1      -0.104  10.018  23.491  0.00  0.00    +0.000 OA
ATOM      9  C   UNL     1      -0.951  11.704  22.096  0.00  0.00    +0.000 A 
ATOM     10  C   UNL     1      -1.020  12.114  20.822  0.00  0.00    +0.000 A 
ATOM     11  N   UNL     1      -0.471  11.467  19.718  0.00  0.00    +0.000 N 
ENDROOT
BRANCH   1  13
ATOM     12  C   UNL     1       3.353   8.115  17.699  0.00  0.00    +0.000 C 
ATOM     13  O   UNL     1       1.993   7.783  17.994  0.00  0.00    +0.000 OA
ENDBRANCH   1  13
BRANCH   6  14
ATOM     14  N   UNL     1       2.333   6.632  20.605  0.00  0.00    +0.000 N 
ATOM     15  H   UNL     1       3.123   6.572  19.960  0.00  0.00    +0.000 HD
BRANCH  14  16
ATOM     16  C   UNL     1       1.498   5.416  20.526  0.00  0.00    +0.000 C 
BRANCH  16  17
ATOM     17  C   UNL     1       1.999   4.349  19.589  0.00  0.00    +0.000 A 
ATOM     18  C   UNL     1       1.812   4.408  18.205  0.00  0.00    +0.000 A 
ATOM     19  C   UNL     1       2.508   3.539  17.359  0.00  0.00    +0.000 A 
ATOM     20  C   UNL     1       3.391   2.593  17.885  0.00  0.00    +0.000 A 
ATOM     21  C   UNL     1       3.565   2.504  19.263  0.00  0.00    +0.000 A 
ATOM     22 CL   UNL     1       4.676   1.354  19.904  0.00  0.00    +0.000 Cl
ATOM     23  C   UNL     1       2.876   3.378  20.103  0.00  0.00    +0.000 A 
ATOM     24  F   UNL     1       3.096   3.339  21.429  0.00  0.00    +0.000 F 
ENDBRANCH  16  17
ENDBRANCH  14  16
ENDBRANCH   6  14
BRANCH   9  25
ATOM     25  C   UNL     1      -1.593  12.493  23.168  0.00  0.00    +0.000 C 
ATOM     26  O   UNL     1      -1.169  13.569  23.545  0.00  0.00    +0.000 OA
BRANCH  25  27
ATOM     27  O   UNL     1      -2.703  11.924  23.695  0.00  0.00    +0.000 OA
ATOM     28  H   UNL     1      -3.521  12.059  23.157  0.00  0.00    +0.000 HD
ENDBRANCH  25  27
ENDBRANCH   9  25
BRANCH  11  29
ATOM     29  C   UNL     1      -0.580  11.967  18.317  0.00  0.00    +0.000 C 
BRANCH  29  30
ATOM     30  C   UNL     1      -1.972  11.613  17.710  0.00  0.00    +0.000 C 
ATOM     31  C   UNL     1      -2.007  10.196  17.119  0.00  0.00    +0.000 C 
ATOM     32  C   UNL     1      -3.098  11.723  18.749  0.00  0.00    +0.000 C 
ENDBRANCH  29  30
BRANCH  29  33
ATOM     33  C   UNL     1      -0.285  13.492  18.281  0.00  0.00    +0.000 C 
BRANCH  33  34
ATOM     34  O   UNL     1       1.096  13.791  18.486  0.00  0.00    +0.000 OA
ATOM     35  H   UNL     1       1.618  13.055  18.119  0.00  0.00    +0.000 HD
ENDBRANCH  33  34
ENDBRANCH  29  33
ENDBRANCH  11  29
TORSDOF 10
ENDMDL
MODEL 8
REMARK VINA RESULT:      -7.7      4.898     10.204
REMARK  Name = 
REMARK  13 active torsions:
REMARK  status: ('A' for Active; 'I' for Inactive)
REMARK    1  A    between atoms: C_1  and  O_2
REMARK    2  A    between atoms: O_2  and  C_3
REMARK    3  A    between atoms: C_8  and  N_9
REMARK    4  A    between atoms: N_9  and  C_10
REMARK    5  A    between atoms: C_10  and  C_11
REMARK    6  A    between atoms: C_21  and  C_22
REMARK    7  A    between atoms: C_22  and  O_24
REMARK    8  A    between atoms: N_26  and  C_27
REMARK    9  A    between atoms: C_27  and  C_28
REMARK   10  A    between atoms: C_27  and  C_30
REMARK   11  A    between atoms: C_28  and  O_29
REMARK   12  A    between atoms: C_30  and  C_31
REMARK   13  A    between atoms: C_30  and  C_32
REMARK                            x       y       z     vdW  Elec       q    Type
REMARK                         _______ _______ _______ _____ _____    ______ ____
ROOT
ATOM      1  C   UNL     1      -1.817  10.739  17.824  0.00  0.00    +0.000 A 
ATOM      2  N   UNL     1      -2.865  11.405  18.387  0.00  0.00    +0.000 NA
ATOM      3  C   UNL     1      -2.739  11.918  19.627  0.00  0.00    +0.000 A 
ATOM      4  C   UNL     1      -1.542  11.763  20.320  0.00  0.00    +0.000 A 
ATOM      5  C   UNL     1      -0.477  11.073  19.746  0.00  0.00    +0.000 A 
ATOM      6  C   UNL     1      -0.560  10.575  18.446  0.00  0.00    +0.000 A 
ATOM      7  C   UNL     1      -1.379  12.328  21.667  0.00  0.00    +0.000 A 
ATOM      8  O   UNL     1      -0.315  12.226  22.278  0.00  0.00    +0.000 OA
ATOM      9  C   UNL     1      -2.521  13.024  22.278  0.00  0.00    +0.000 A 
ATOM     10  C   UNL     1      -3.638  13.105  21.540  0.00  0.00    +0.000 A 
ATOM     11  N   UNL     1      -3.815  12.593  20.258  0.00  0.00    +0.000 N 
ENDROOT
BRANCH   1  13
ATOM     12  C   UNL     1      -2.982  10.902  15.756  0.00  0.00    +0.000 C 
ATOM     13  O   UNL     1      -1.998  10.233  16.551  0.00  0.00    +0.000 OA
ENDBRANCH   1  13
BRANCH   6  14
ATOM     14  N   UNL     1       0.539   9.891  17.857  0.00  0.00    +0.000 N 
ATOM     15  H   UNL     1       0.192   9.056  17.382  0.00  0.00    +0.000 HD
BRANCH  14  16
ATOM     16  C   UNL     1       1.630   9.548  18.792  0.00  0.00    +0.000 C 
BRANCH  16  17
ATOM     17  C   UNL     1       2.190   8.157  18.646  0.00  0.00    +0.000 A 
ATOM     18  C   UNL     1       3.100   7.808  17.644  0.00  0.00    +0.000 A 
ATOM     19  C   UNL     1       3.781   6.588  17.700  0.00  0.00    +0.000 A 
ATOM     20  C   UNL     1       3.555   5.698  18.752  0.00  0.00    +0.000 A 
ATOM     21  C   UNL     1       2.630   6.019  19.742  0.00  0.00    +0.000 A 
ATOM     22 CL   UNL     1       2.375   4.929  21.051  0.00  0.00    +0.000 Cl
ATOM     23  C   UNL     1       1.958   7.240  19.687  0.00  0.00    +0.000 A 
ATOM     24  F   UNL     1       1.117   7.583  20.678  0.00  0.00    +0.000 F 
ENDBRANCH  16  17
ENDBRANCH  14  16
ENDBRANCH   6  14
BRANCH   9  25
ATOM     25  C   UNL     1      -2.482  13.609  23.635  0.00  0.00    +0.000 C 
ATOM     26  O   UNL     1      -3.395  13.501  24.431  0.00  0.00    +0.000 OA
BRANCH  25  27
ATOM     27  O   UNL     1      -1.338  14.271  23.927  0.00  0.00    +0.000 OA
ATOM     28  H   UNL     1      -0.593  13.687  24.210  0.00  0.00    +0.000 HD
ENDBRANCH  25  27
ENDBRANCH   9  25
BRANCH  11  29
ATOM     29  C   UNL     1      -5.083  12.709  19.480  0.00  0.00    +0.000 C 
BRANCH  29  30
ATOM     30  C   UNL     1      -6.023  11.500  19.771  0.00  0.00    +0.000 C 
ATOM     31  C   UNL     1      -7.123  11.846  20.785  0.00  0.00    +0.000 C 
ATOM     32  C   UNL     1      -6.699  10.975  18.496  0.00  0.00    +0.000 C 
ENDBRANCH  29  30
BRANCH  29  33
ATOM     33  C   UNL     1      -5.759  14.075  19.781  0.00  0.00    +0.000 C 
BRANCH  33  34
ATOM     34  O   UNL     1      -6.098  14.795  18.595  0.00  0.00    +0.000 OA
ATOM     35  H   UNL     1      -6.824  14.319  18.155  0.00  0.00    +0.000 HD
ENDBRANCH  33  34
ENDBRANCH  29  33
ENDBRANCH  11  29
TORSDOF 10
ENDMDL
MODEL 9
REMARK VINA RESULT:      -7.6      2.356      2.561
REMARK  Name = 
REMARK  13 active torsions:
REMARK  status: ('A' for Active; 'I' for Inactive)
REMARK    1  A    between atoms: C_1  and  O_2
REMARK    2  A    between atoms: O_2  and  C_3
REMARK    3  A    between atoms: C_8  and  N_9
REMARK    4  A    between atoms: N_9  and  C_10
REMARK    5  A    between atoms: C_10  and  C_11
REMARK    6  A    between atoms: C_21  and  C_22
REMARK    7  A    between atoms: C_22  and  O_24
REMARK    8  A    between atoms: N_26  and  C_27
REMARK    9  A    between atoms: C_27  and  C_28
REMARK   10  A    between atoms: C_27  and  C_30
REMARK   11  A    between atoms: C_28  and  O_29
REMARK   12  A    between atoms: C_30  and  C_31
REMARK   13  A    between atoms: C_30  and  C_32
REMARK                            x       y       z     vdW  Elec       q    Type
REMARK                         _______ _______ _______ _____ _____    ______ ____
ROOT
ATOM      1  C   UNL     1       1.868   7.393  19.357  0.00  0.00    +0.000 A 
ATOM      2  N   UNL     1       2.494   6.196  19.540  0.00  0.00    +0.000 NA
ATOM      3  C   UNL     1       3.456   5.809  18.678  0.00  0.00    +0.000 A 
ATOM      4  C   UNL     1       3.799   6.634  17.612  0.00  0.00    +0.000 A 
ATOM      5  C   UNL     1       3.150   7.852  17.421  0.00  0.00    +0.000 A 
ATOM      6  C   UNL     1       2.187   8.301  18.325  0.00  0.00    +0.000 A 
ATOM      7  C   UNL     1       4.856   6.238  16.670  0.00  0.00    +0.000 A 
ATOM      8  O   UNL     1       5.192   6.974  15.741  0.00  0.00    +0.000 OA
ATOM      9  C   UNL     1       5.510   4.936  16.858  0.00  0.00    +0.000 A 
ATOM     10  C   UNL     1       5.097   4.203  17.902  0.00  0.00    +0.000 A 
ATOM     11  N   UNL     1       4.111   4.559  18.817  0.00  0.00    +0.000 N 
ENDROOT
BRANCH   1  13
ATOM     12  C   UNL     1       1.347   8.457  21.420  0.00  0.00    +0.000 C 
ATOM     13  O   UNL     1       0.889   7.742  20.268  0.00  0.00    +0.000 OA
ENDBRANCH   1  13
BRANCH   6  14
ATOM     14  N   UNL     1       1.544   9.556  18.138  0.00  0.00    +0.000 N 
ATOM     15  H   UNL     1       1.171   9.599  17.188  0.00  0.00    +0.000 HD
BRANCH  14  16
ATOM     16  C   UNL     1       2.386  10.735  18.425  0.00  0.00    +0.000 C 
BRANCH  16  17
ATOM     17  C   UNL     1       1.640  12.029  18.620  0.00  0.00    +0.000 A 
ATOM     18  C   UNL     1       0.351  12.086  19.158  0.00  0.00    +0.000 A 
ATOM     19  C   UNL     1      -0.197  13.310  19.554  0.00  0.00    +0.000 A 
ATOM     20  C   UNL     1       0.530  14.493  19.407  0.00  0.00    +0.000 A 
ATOM     21  C   UNL     1       1.803  14.455  18.845  0.00  0.00    +0.000 A 
ATOM     22 CL   UNL     1       2.707  15.913  18.692  0.00  0.00    +0.000 Cl
ATOM     23  C   UNL     1       2.350  13.231  18.459  0.00  0.00    +0.000 A 
ATOM     24  F   UNL     1       3.606  13.184  17.982  0.00  0.00    +0.000 F 
ENDBRANCH  16  17
ENDBRANCH  14  16
ENDBRANCH   6  14
BRANCH   9  25
ATOM     25  C   UNL     1       6.566   4.422  15.960  0.00  0.00    +0.000 C 
ATOM     26  O   UNL     1       7.743   4.393  16.268  0.00  0.00    +0.000 OA
BRANCH  25  27
ATOM     27  O   UNL     1       6.117   3.974  14.765  0.00  0.00    +0.000 OA
ATOM     28  H   UNL     1       6.678   3.269  14.359  0.00  0.00    +0.000 HD
ENDBRANCH  25  27
ENDBRANCH   9  25
BRANCH  11  29
ATOM     29  C   UNL     1       3.686   3.703  19.964  0.00  0.00    +0.000 C 
BRANCH  29  30
ATOM     30  C   UNL     1       2.139   3.516  19.970  0.00  0.00    +0.000 C 
ATOM     31  C   UNL     1       1.675   2.451  18.966  0.00  0.00    +0.000 C 
ATOM     32  C   UNL     1       1.611   3.123  21.358  0.00  0.00    +0.000 C 
ENDBRANCH  29  30
BRANCH  29  33
ATOM     33  C   UNL     1       4.450   2.351  19.918  0.00  0.00    +0.000 C 
BRANCH  33  34
ATOM     34  O   UNL     1       4.932   1.947  21.201  0.00  0.00    +0.000 OA
ATOM     35  H   UNL     1       4.162   1.831  21.785  0.00  0.00    +0.000 HD
ENDBRANCH  33  34
ENDBRANCH  29  33
ENDBRANCH  11  29
TORSDOF 10
ENDMDL
