MODEL 1
REMARK VINA RESULT:      -8.5      0.000      0.000
REMARK  Name = 
REMARK  4 active torsions:
REMARK  status: ('A' for Active; 'I' for Inactive)
REMARK    1  A    between atoms: C_1  and  C_2
REMARK    2  A    between atoms: C_2  and  C_3
REMARK    3  A    between atoms: C_11  and  S_12
REMARK    4  A    between atoms: S_12  and  N_15
REMARK                            x       y       z     vdW  Elec       q    Type
REMARK                         _______ _______ _______ _____ _____    ______ ____
ROOT
ATOM      1  S   UNL     1       3.188   4.872  18.770  0.00  0.00    +0.000 S 
ATOM      2  O   UNL     1       3.137   4.001  19.923  0.00  0.00    +0.000 OA
ATOM      3  O   UNL     1       2.515   4.495  17.538  0.00  0.00    +0.000 OA
ENDROOT
BRANCH   1  12
ATOM      4  C   UNL     1       0.483  10.368  21.839  0.00  0.00    +0.000 C 
ATOM      5  O   UNL     1       0.951   9.674  22.745  0.00  0.00    +0.000 OA
ATOM      6  N   UNL     1       0.610  10.068  20.473  0.00  0.00    +0.000 N 
ATOM      7  C   UNL     1       0.240  10.996  19.398  0.00  0.00    +0.000 C 
ATOM      8  C   UNL     1       1.399  11.215  18.444  0.00  0.00    +0.000 C 
ATOM      9  C   UNL     1       1.806   9.893  17.800  0.00  0.00    +0.000 C 
ATOM     10  C   UNL     1       1.833   8.742  18.779  0.00  0.00    +0.000 A 
ATOM     11  C   UNL     1       2.470   7.536  18.395  0.00  0.00    +0.000 A 
ATOM     12  C   UNL     1       2.494   6.438  19.268  0.00  0.00    +0.000 A 
ATOM     13  C   UNL     1       1.806   6.502  20.475  0.00  0.00    +0.000 A 
ATOM     14  C   UNL     1       1.181   7.691  20.855  0.00  0.00    +0.000 A 
ATOM     15  C   UNL     1       1.213   8.835  20.042  0.00  0.00    +0.000 A 
BRANCH   4  17
ATOM     16  C   UNL     1      -1.473  11.380  23.060  0.00  0.00    +0.000 C 
ATOM     17  C   UNL     1      -0.238  11.658  22.209  0.00  0.00    +0.000 C 
ENDBRANCH   4  17
ENDBRANCH   1  12
BRANCH   1  18
ATOM     18  N   UNL     1       4.802   5.142  18.402  0.00  0.00    +0.000 NA
ATOM     19  C   UNL     1       5.719   3.999  18.158  0.00  0.00    +0.000 C 
ATOM     20  C   UNL     1       5.847   3.679  16.659  0.00  0.00    +0.000 C 
ATOM     21  N   UNL     1       6.232   4.891  15.914  0.00  0.00    +0.000 N 
ATOM     22  C   UNL     1       6.517   4.663  14.557  0.00  0.00    +0.000 A 
ATOM     23  C   UNL     1       7.301   5.605  13.883  0.00  0.00    +0.000 A 
ATOM     24  C   UNL     1       7.686   5.382  12.567  0.00  0.00    +0.000 A 
ATOM     25  C   UNL     1       7.264   4.227  11.929  0.00  0.00    +0.000 A 
ATOM     26  C   UNL     1       6.475   3.347  12.649  0.00  0.00    +0.000 A 
ATOM     27  N   UNL     1       6.115   3.531  13.943  0.00  0.00    +0.000 NA
ATOM     28  C   UNL     1       5.365   6.068  16.138  0.00  0.00    +0.000 C 
ATOM     29  C   UNL     1       5.215   6.352  17.641  0.00  0.00    +0.000 C 
ENDBRANCH   1  18
TORSDOF 3
ENDMDL
MODEL 2
REMARK VINA RESULT:      -8.5      2.678      9.984
REMARK  Name = 
REMARK  4 active torsions:
REMARK  status: ('A' for Active; 'I' for Inactive)
REMARK    1  A    between atoms: C_1  and  C_2
REMARK    2  A    between atoms: C_2  and  C_3
REMARK    3  A    between atoms: C_11  and  S_12
REMARK    4  A    between atoms: S_12  and  N_15
REMARK                            x       y       z     vdW  Elec       q    Type
REMARK                         _______ _______ _______ _____ _____    ______ ____
ROOT
ATOM      1  S   UNL     1       0.890   8.958  21.228  0.00  0.00    +0.000 S 
ATOM      2  O   UNL     1      -0.452   8.474  21.462  0.00  0.00    +0.000 OA
ATOM      3  O   UNL     1       1.762   9.267  22.349  0.00  0.00    +0.000 OA
ENDROOT
BRANCH   1  12
ATOM      4  C   UNL     1       4.553   5.176  16.844  0.00  0.00    +0.000 C 
ATOM      5  O   UNL     1       4.994   6.324  16.746  0.00  0.00    +0.000 OA
ATOM      6  N   UNL     1       3.567   4.789  17.765  0.00  0.00    +0.000 N 
ATOM      7  C   UNL     1       3.199   3.391  18.023  0.00  0.00    +0.000 C 
ATOM      8  C   UNL     1       3.302   3.064  19.501  0.00  0.00    +0.000 C 
ATOM      9  C   UNL     1       2.356   3.952  20.302  0.00  0.00    +0.000 C 
ATOM     10  C   UNL     1       2.360   5.390  19.839  0.00  0.00    +0.000 A 
ATOM     11  C   UNL     1       1.766   6.375  20.668  0.00  0.00    +0.000 A 
ATOM     12  C   UNL     1       1.730   7.716  20.260  0.00  0.00    +0.000 A 
ATOM     13  C   UNL     1       2.192   8.066  18.995  0.00  0.00    +0.000 A 
ATOM     14  C   UNL     1       2.779   7.097  18.180  0.00  0.00    +0.000 A 
ATOM     15  C   UNL     1       2.909   5.762  18.595  0.00  0.00    +0.000 A 
BRANCH   4  17
ATOM     16  C   UNL     1       5.991   4.694  14.834  0.00  0.00    +0.000 C 
ATOM     17  C   UNL     1       5.142   4.093  15.949  0.00  0.00    +0.000 C 
ENDBRANCH   4  17
ENDBRANCH   1  12
BRANCH   1  18
ATOM     18  N   UNL     1       0.780  10.335  20.277  0.00  0.00    +0.000 NA
ATOM     19  C   UNL     1      -0.256  10.436  19.217  0.00  0.00    +0.000 C 
ATOM     20  C   UNL     1      -1.513  11.169  19.716  0.00  0.00    +0.000 C 
ATOM     21  N   UNL     1      -1.144  12.479  20.284  0.00  0.00    +0.000 N 
ATOM     22  C   UNL     1      -2.243  13.282  20.631  0.00  0.00    +0.000 A 
ATOM     23  C   UNL     1      -2.038  14.661  20.746  0.00  0.00    +0.000 A 
ATOM     24  C   UNL     1      -3.109  15.509  20.998  0.00  0.00    +0.000 A 
ATOM     25  C   UNL     1      -4.374  14.967  21.156  0.00  0.00    +0.000 A 
ATOM     26  C   UNL     1      -4.503  13.594  21.048  0.00  0.00    +0.000 A 
ATOM     27  N   UNL     1      -3.476  12.752  20.771  0.00  0.00    +0.000 NA
ATOM     28  C   UNL     1      -0.098  12.437  21.329  0.00  0.00    +0.000 C 
ATOM     29  C   UNL     1       1.136  11.669  20.830  0.00  0.00    +0.000 C 
ENDBRANCH   1  18
TORSDOF 3
ENDMDL
MODEL 3
REMARK VINA RESULT:      -8.3      3.679      9.800
REMARK  Name = 
REMARK  4 active torsions:
REMARK  status: ('A' for Active; 'I' for Inactive)
REMARK    1  A    between atoms: C_1  and  C_2
REMARK    2  A    between atoms: C_2  and  C_3
REMARK    3  A    between atoms: C_11  and  S_12
REMARK    4  A    between atoms: S_12  and  N_15
REMARK                            x       y       z     vdW  Elec       q    Type
REMARK                         _______ _______ _______ _____ _____    ______ ____
ROOT
ATOM      1  S   UNL     1       0.427  10.269  19.949  0.00  0.00    +0.000 S 
ATOM      2  O   UNL     1      -0.593   9.719  20.815  0.00  0.00    +0.000 OA
ATOM      3  O   UNL     1       1.352  11.270  20.453  0.00  0.00    +0.000 OA
ENDROOT
BRANCH   1  12
ATOM      4  C   UNL     1       4.645   5.827  16.879  0.00  0.00    +0.000 C 
ATOM      5  O   UNL     1       4.999   6.946  16.498  0.00  0.00    +0.000 OA
ATOM      6  N   UNL     1       3.635   5.605  17.828  0.00  0.00    +0.000 N 
ATOM      7  C   UNL     1       3.361   4.295  18.433  0.00  0.00    +0.000 C 
ATOM      8  C   UNL     1       3.396   4.377  19.948  0.00  0.00    +0.000 C 
ATOM      9  C   UNL     1       2.334   5.352  20.446  0.00  0.00    +0.000 C 
ATOM     10  C   UNL     1       2.256   6.614  19.618  0.00  0.00    +0.000 A 
ATOM     11  C   UNL     1       1.535   7.722  20.130  0.00  0.00    +0.000 A 
ATOM     12  C   UNL     1       1.420   8.900  19.380  0.00  0.00    +0.000 A 
ATOM     13  C   UNL     1       1.933   8.949  18.088  0.00  0.00    +0.000 A 
ATOM     14  C   UNL     1       2.644   7.859  17.584  0.00  0.00    +0.000 A 
ATOM     15  C   UNL     1       2.852   6.696  18.343  0.00  0.00    +0.000 A 
BRANCH   4  17
ATOM     16  C   UNL     1       5.707   4.780  14.850  0.00  0.00    +0.000 C 
ATOM     17  C   UNL     1       5.371   4.607  16.328  0.00  0.00    +0.000 C 
ENDBRANCH   4  17
ENDBRANCH   1  12
BRANCH   1  18
ATOM     18  N   UNL     1      -0.338  10.917  18.603  0.00  0.00    +0.000 NA
ATOM     19  C   UNL     1      -1.083  10.038  17.666  0.00  0.00    +0.000 C 
ATOM     20  C   UNL     1      -2.584   9.993  17.997  0.00  0.00    +0.000 C 
ATOM     21  N   UNL     1      -3.131  11.361  18.058  0.00  0.00    +0.000 N 
ATOM     22  C   UNL     1      -4.527  11.413  18.209  0.00  0.00    +0.000 A 
ATOM     23  C   UNL     1      -5.184  12.590  17.835  0.00  0.00    +0.000 A 
ATOM     24  C   UNL     1      -6.570  12.662  17.880  0.00  0.00    +0.000 A 
ATOM     25  C   UNL     1      -7.288  11.561  18.320  0.00  0.00    +0.000 A 
ATOM     26  C   UNL     1      -6.573  10.436  18.691  0.00  0.00    +0.000 A 
ATOM     27  N   UNL     1      -5.223  10.335  18.626  0.00  0.00    +0.000 NA
ATOM     28  C   UNL     1      -2.411  12.285  18.960  0.00  0.00    +0.000 C 
ATOM     29  C   UNL     1      -0.907  12.290  18.643  0.00  0.00    +0.000 C 
ENDBRANCH   1  18
TORSDOF 3
ENDMDL
MODEL 4
REMARK VINA RESULT:      -8.2      2.803      9.896
REMARK  Name = 
REMARK  4 active torsions:
REMARK  status: ('A' for Active; 'I' for Inactive)
REMARK    1  A    between atoms: C_1  and  C_2
REMARK    2  A    between atoms: C_2  and  C_3
REMARK    3  A    between atoms: C_11  and  S_12
REMARK    4  A    between atoms: S_12  and  N_15
REMARK                            x       y       z     vdW  Elec       q    Type
REMARK                         _______ _______ _______ _____ _____    ______ ____
ROOT
ATOM      1  S   UNL     1       1.307  10.151  18.593  0.00  0.00    +0.000 S 
ATOM      2  O   UNL     1       2.169  11.012  17.814  0.00  0.00    +0.000 OA
ATOM      3  O   UNL     1      -0.079   9.955  18.199  0.00  0.00    +0.000 OA
ENDROOT
BRANCH   1  12
ATOM      4  C   UNL     1       3.342   3.679  19.548  0.00  0.00    +0.000 C 
ATOM      5  O   UNL     1       2.207   3.749  20.026  0.00  0.00    +0.000 OA
ATOM      6  N   UNL     1       3.976   4.735  18.874  0.00  0.00    +0.000 N 
ATOM      7  C   UNL     1       5.231   4.586  18.127  0.00  0.00    +0.000 C 
ATOM      8  C   UNL     1       5.077   5.079  16.700  0.00  0.00    +0.000 C 
ATOM      9  C   UNL     1       4.703   6.557  16.692  0.00  0.00    +0.000 C 
ATOM     10  C   UNL     1       3.666   6.909  17.734  0.00  0.00    +0.000 A 
ATOM     11  C   UNL     1       3.012   8.164  17.648  0.00  0.00    +0.000 A 
ATOM     12  C   UNL     1       2.063   8.535  18.611  0.00  0.00    +0.000 A 
ATOM     13  C   UNL     1       1.833   7.711  19.707  0.00  0.00    +0.000 A 
ATOM     14  C   UNL     1       2.475   6.475  19.791  0.00  0.00    +0.000 A 
ATOM     15  C   UNL     1       3.366   6.035  18.799  0.00  0.00    +0.000 A 
BRANCH   4  17
ATOM     16  C   UNL     1       3.651   1.383  18.562  0.00  0.00    +0.000 C 
ATOM     17  C   UNL     1       4.093   2.358  19.648  0.00  0.00    +0.000 C 
ENDBRANCH   4  17
ENDBRANCH   1  12
BRANCH   1  18
ATOM     18  N   UNL     1       1.309  10.716  20.173  0.00  0.00    +0.000 NA
ATOM     19  C   UNL     1       1.272  12.175  20.449  0.00  0.00    +0.000 C 
ATOM     20  C   UNL     1      -0.162  12.672  20.699  0.00  0.00    +0.000 C 
ATOM     21  N   UNL     1      -0.798  11.871  21.761  0.00  0.00    +0.000 N 
ATOM     22  C   UNL     1      -2.058  12.347  22.161  0.00  0.00    +0.000 A 
ATOM     23  C   UNL     1      -2.537  11.963  23.418  0.00  0.00    +0.000 A 
ATOM     24  C   UNL     1      -3.734  12.477  23.898  0.00  0.00    +0.000 A 
ATOM     25  C   UNL     1      -4.456  13.355  23.105  0.00  0.00    +0.000 A 
ATOM     26  C   UNL     1      -3.933  13.679  21.865  0.00  0.00    +0.000 A 
ATOM     27  N   UNL     1      -2.751  13.212  21.391  0.00  0.00    +0.000 NA
ATOM     28  C   UNL     1      -0.768  10.407  21.546  0.00  0.00    +0.000 C 
ATOM     29  C   UNL     1       0.664   9.931  21.259  0.00  0.00    +0.000 C 
ENDBRANCH   1  18
TORSDOF 3
ENDMDL
MODEL 5
REMARK VINA RESULT:      -8.1      3.349      9.941
REMARK  Name = 
REMARK  4 active torsions:
REMARK  status: ('A' for Active; 'I' for Inactive)
REMARK    1  A    between atoms: C_1  and  C_2
REMARK    2  A    between atoms: C_2  and  C_3
REMARK    3  A    between atoms: C_11  and  S_12
REMARK    4  A    between atoms: S_12  and  N_15
REMARK                            x       y       z     vdW  Elec       q    Type
REMARK                         _______ _______ _______ _____ _____    ______ ____
ROOT
ATOM      1  S   UNL     1       0.628  10.150  20.278  0.00  0.00    +0.000 S 
ATOM      2  O   UNL     1      -0.711   9.717  20.608  0.00  0.00    +0.000 OA
ATOM      3  O   UNL     1       1.474  10.750  21.296  0.00  0.00    +0.000 OA
ENDROOT
BRANCH   1  12
ATOM      4  C   UNL     1       4.417   5.450  17.039  0.00  0.00    +0.000 C 
ATOM      5  O   UNL     1       4.834   6.544  16.650  0.00  0.00    +0.000 OA
ATOM      6  N   UNL     1       3.428   5.291  18.024  0.00  0.00    +0.000 N 
ATOM      7  C   UNL     1       3.087   4.000  18.633  0.00  0.00    +0.000 C 
ATOM      8  C   UNL     1       3.181   4.068  20.145  0.00  0.00    +0.000 C 
ATOM      9  C   UNL     1       2.208   5.111  20.685  0.00  0.00    +0.000 C 
ATOM     10  C   UNL     1       2.187   6.380  19.866  0.00  0.00    +0.000 A 
ATOM     11  C   UNL     1       1.563   7.532  20.409  0.00  0.00    +0.000 A 
ATOM     12  C   UNL     1       1.504   8.721  19.668  0.00  0.00    +0.000 A 
ATOM     13  C   UNL     1       1.972   8.742  18.359  0.00  0.00    +0.000 A 
ATOM     14  C   UNL     1       2.588   7.609  17.825  0.00  0.00    +0.000 A 
ATOM     15  C   UNL     1       2.742   6.430  18.571  0.00  0.00    +0.000 A 
BRANCH   4  17
ATOM     16  C   UNL     1       5.513   4.408  15.026  0.00  0.00    +0.000 C 
ATOM     17  C   UNL     1       5.037   4.186  16.458  0.00  0.00    +0.000 C 
ENDBRANCH   4  17
ENDBRANCH   1  12
BRANCH   1  18
ATOM     18  N   UNL     1       0.515  11.240  19.007  0.00  0.00    +0.000 NA
ATOM     19  C   UNL     1      -0.813  11.697  18.525  0.00  0.00    +0.000 C 
ATOM     20  C   UNL     1      -1.230  13.028  19.174  0.00  0.00    +0.000 C 
ATOM     21  N   UNL     1      -0.172  14.038  18.983  0.00  0.00    +0.000 N 
ATOM     22  C   UNL     1      -0.526  15.327  19.414  0.00  0.00    +0.000 A 
ATOM     23  C   UNL     1       0.183  16.413  18.891  0.00  0.00    +0.000 A 
ATOM     24  C   UNL     1      -0.186  17.712  19.215  0.00  0.00    +0.000 A 
ATOM     25  C   UNL     1      -1.250  17.914  20.079  0.00  0.00    +0.000 A 
ATOM     26  C   UNL     1      -1.897  16.795  20.574  0.00  0.00    +0.000 A 
ATOM     27  N   UNL     1      -1.572  15.520  20.245  0.00  0.00    +0.000 NA
ATOM     28  C   UNL     1       1.177  13.624  19.426  0.00  0.00    +0.000 C 
ATOM     29  C   UNL     1       1.563  12.275  18.800  0.00  0.00    +0.000 C 
ENDBRANCH   1  18
TORSDOF 3
ENDMDL
MODEL 6
REMARK VINA RESULT:      -8.1      3.721      9.495
REMARK  Name = 
REMARK  4 active torsions:
REMARK  status: ('A' for Active; 'I' for Inactive)
REMARK    1  A    between atoms: C_1  and  C_2
REMARK    2  A    between atoms: C_2  and  C_3
REMARK    3  A    between atoms: C_11  and  S_12
REMARK    4  A    between atoms: S_12  and  N_15
REMARK                            x       y       z     vdW  Elec       q    Type
REMARK                         _______ _______ _______ _____ _____    ______ ____
ROOT
ATOM      1  S   UNL     1       0.387  10.264  19.924  0.00  0.00    +0.000 S 
ATOM      2  O   UNL     1      -0.668   9.974  20.869  0.00  0.00    +0.000 OA
ATOM      3  O   UNL     1       1.388  11.272  20.232  0.00  0.00    +0.000 OA
ENDROOT
BRANCH   1  12
ATOM      4  C   UNL     1       3.041   3.949  19.773  0.00  0.00    +0.000 C 
ATOM      5  O   UNL     1       1.962   3.846  20.362  0.00  0.00    +0.000 OA
ATOM      6  N   UNL     1       3.510   5.140  19.195  0.00  0.00    +0.000 N 
ATOM      7  C   UNL     1       4.685   5.211  18.318  0.00  0.00    +0.000 C 
ATOM      8  C   UNL     1       4.339   5.868  16.994  0.00  0.00    +0.000 C 
ATOM      9  C   UNL     1       3.845   7.291  17.228  0.00  0.00    +0.000 C 
ATOM     10  C   UNL     1       2.901   7.404  18.403  0.00  0.00    +0.000 A 
ATOM     11  C   UNL     1       2.139   8.590  18.554  0.00  0.00    +0.000 A 
ATOM     12  C   UNL     1       1.271   8.740  19.645  0.00  0.00    +0.000 A 
ATOM     13  C   UNL     1       1.230   7.762  20.633  0.00  0.00    +0.000 A 
ATOM     14  C   UNL     1       1.977   6.593  20.483  0.00  0.00    +0.000 A 
ATOM     15  C   UNL     1       2.790   6.374  19.359  0.00  0.00    +0.000 A 
BRANCH   4  17
ATOM     16  C   UNL     1       3.287   1.718  18.633  0.00  0.00    +0.000 C 
ATOM     17  C   UNL     1       3.906   2.706  19.616  0.00  0.00    +0.000 C 
ENDBRANCH   4  17
ENDBRANCH   1  12
BRANCH   1  18
ATOM     18  N   UNL     1      -0.331  10.692  18.469  0.00  0.00    +0.000 NA
ATOM     19  C   UNL     1      -1.133   9.700  17.707  0.00  0.00    +0.000 C 
ATOM     20  C   UNL     1      -2.634   9.819  18.020  0.00  0.00    +0.000 C 
ATOM     21  N   UNL     1      -3.088  11.206  17.810  0.00  0.00    +0.000 N 
ATOM     22  C   UNL     1      -4.476  11.379  17.929  0.00  0.00    +0.000 A 
ATOM     23  C   UNL     1      -5.052  12.504  17.328  0.00  0.00    +0.000 A 
ATOM     24  C   UNL     1      -6.430  12.674  17.339  0.00  0.00    +0.000 A 
ATOM     25  C   UNL     1      -7.221  11.728  17.972  0.00  0.00    +0.000 A 
ATOM     26  C   UNL     1      -6.585  10.650  18.562  0.00  0.00    +0.000 A 
ATOM     27  N   UNL     1      -5.244  10.449  18.535  0.00  0.00    +0.000 NA
ATOM     28  C   UNL     1      -2.307  12.237  18.528  0.00  0.00    +0.000 C 
ATOM     29  C   UNL     1      -0.806  12.082  18.237  0.00  0.00    +0.000 C 
ENDBRANCH   1  18
TORSDOF 3
ENDMDL
MODEL 7
REMARK VINA RESULT:      -8.0      3.084     10.859
REMARK  Name = 
REMARK  4 active torsions:
REMARK  status: ('A' for Active; 'I' for Inactive)
REMARK    1  A    between atoms: C_1  and  C_2
REMARK    2  A    between atoms: C_2  and  C_3
REMARK    3  A    between atoms: C_11  and  S_12
REMARK    4  A    between atoms: S_12  and  N_15
REMARK                            x       y       z     vdW  Elec       q    Type
REMARK                         _______ _______ _______ _____ _____    ______ ____
ROOT
ATOM      1  S   UNL     1       0.802  11.321  19.917  0.00  0.00    +0.000 S 
ATOM      2  O   UNL     1       1.645  11.871  20.955  0.00  0.00    +0.000 OA
ATOM      3  O   UNL     1       0.610  12.045  18.671  0.00  0.00    +0.000 OA
ENDROOT
BRANCH   1  12
ATOM      4  C   UNL     1       3.973   5.844  17.290  0.00  0.00    +0.000 C 
ATOM      5  O   UNL     1       4.550   6.826  16.816  0.00  0.00    +0.000 OA
ATOM      6  N   UNL     1       2.947   5.922  18.246  0.00  0.00    +0.000 N 
ATOM      7  C   UNL     1       2.411   4.757  18.961  0.00  0.00    +0.000 C 
ATOM      8  C   UNL     1       2.475   4.962  20.463  0.00  0.00    +0.000 C 
ATOM      9  C   UNL     1       1.645   6.177  20.863  0.00  0.00    +0.000 C 
ATOM     10  C   UNL     1       1.825   7.350  19.926  0.00  0.00    +0.000 A 
ATOM     11  C   UNL     1       1.356   8.625  20.332  0.00  0.00    +0.000 A 
ATOM     12  C   UNL     1       1.483   9.731  19.480  0.00  0.00    +0.000 A 
ATOM     13  C   UNL     1       1.984   9.557  18.194  0.00  0.00    +0.000 A 
ATOM     14  C   UNL     1       2.447   8.303  17.795  0.00  0.00    +0.000 A 
ATOM     15  C   UNL     1       2.414   7.193  18.655  0.00  0.00    +0.000 A 
BRANCH   4  17
ATOM     16  C   UNL     1       5.429   4.530  15.712  0.00  0.00    +0.000 C 
ATOM     17  C   UNL     1       4.424   4.456  16.856  0.00  0.00    +0.000 C 
ENDBRANCH   4  17
ENDBRANCH   1  12
BRANCH   1  18
ATOM     18  N   UNL     1      -0.714  11.044  20.579  0.00  0.00    +0.000 NA
ATOM     19  C   UNL     1      -0.854  10.699  22.017  0.00  0.00    +0.000 C 
ATOM     20  C   UNL     1      -1.150  11.940  22.876  0.00  0.00    +0.000 C 
ATOM     21  N   UNL     1      -2.321  12.659  22.342  0.00  0.00    +0.000 N 
ATOM     22  C   UNL     1      -2.756  13.724  23.147  0.00  0.00    +0.000 A 
ATOM     23  C   UNL     1      -4.072  14.171  22.991  0.00  0.00    +0.000 A 
ATOM     24  C   UNL     1      -4.579  15.161  23.824  0.00  0.00    +0.000 A 
ATOM     25  C   UNL     1      -3.756  15.711  24.793  0.00  0.00    +0.000 A 
ATOM     26  C   UNL     1      -2.459  15.235  24.881  0.00  0.00    +0.000 A 
ATOM     27  N   UNL     1      -1.956  14.249  24.099  0.00  0.00    +0.000 NA
ATOM     28  C   UNL     1      -2.244  13.006  20.906  0.00  0.00    +0.000 C 
ATOM     29  C   UNL     1      -1.909  11.764  20.065  0.00  0.00    +0.000 C 
ENDBRANCH   1  18
TORSDOF 3
ENDMDL
MODEL 8
REMARK VINA RESULT:      -8.0      1.296      2.229
REMARK  Name = 
REMARK  4 active torsions:
REMARK  status: ('A' for Active; 'I' for Inactive)
REMARK    1  A    between atoms: C_1  and  C_2
REMARK    2  A    between atoms: C_2  and  C_3
REMARK    3  A    between atoms: C_11  and  S_12
REMARK    4  A    between atoms: S_12  and  N_15
REMARK                            x       y       z     vdW  Elec       q    Type
REMARK                         _______ _______ _______ _____ _____    ______ ____
ROOT
ATOM      1  S   UNL     1       3.009   5.162  18.719  0.00  0.00    +0.000 S 
ATOM      2  O   UNL     1       2.977   4.399  19.947  0.00  0.00    +0.000 OA
ATOM      3  O   UNL     1       2.376   4.642  17.518  0.00  0.00    +0.000 OA
ENDROOT
BRANCH   1  12
ATOM      4  C   UNL     1      -0.160  11.236  18.780  0.00  0.00    +0.000 C 
ATOM      5  O   UNL     1      -0.450  10.717  17.700  0.00  0.00    +0.000 OA
ATOM      6  N   UNL     1       0.593  10.600  19.781  0.00  0.00    +0.000 N 
ATOM      7  C   UNL     1       0.756  11.133  21.139  0.00  0.00    +0.000 C 
ATOM      8  C   UNL     1       0.347  10.108  22.180  0.00  0.00    +0.000 C 
ATOM      9  C   UNL     1       1.217   8.861  22.060  0.00  0.00    +0.000 C 
ATOM     10  C   UNL     1       1.451   8.439  20.628  0.00  0.00    +0.000 A 
ATOM     11  C   UNL     1       1.983   7.150  20.375  0.00  0.00    +0.000 A 
ATOM     12  C   UNL     1       2.236   6.733  19.061  0.00  0.00    +0.000 A 
ATOM     13  C   UNL     1       2.056   7.624  18.008  0.00  0.00    +0.000 A 
ATOM     14  C   UNL     1       1.531   8.892  18.256  0.00  0.00    +0.000 A 
ATOM     15  C   UNL     1       1.185   9.310  19.551  0.00  0.00    +0.000 A 
BRANCH   4  17
ATOM     16  C   UNL     1       0.270  13.707  18.564  0.00  0.00    +0.000 C 
ATOM     17  C   UNL     1      -0.684  12.634  19.079  0.00  0.00    +0.000 C 
ENDBRANCH   4  17
ENDBRANCH   1  12
BRANCH   1  18
ATOM     18  N   UNL     1       4.616   5.472  18.349  0.00  0.00    +0.000 NA
ATOM     19  C   UNL     1       5.587   4.355  18.221  0.00  0.00    +0.000 C 
ATOM     20  C   UNL     1       5.755   3.909  16.759  0.00  0.00    +0.000 C 
ATOM     21  N   UNL     1       6.099   5.066  15.912  0.00  0.00    +0.000 N 
ATOM     22  C   UNL     1       6.416   4.732  14.586  0.00  0.00    +0.000 A 
ATOM     23  C   UNL     1       7.169   5.645  13.840  0.00  0.00    +0.000 A 
ATOM     24  C   UNL     1       7.586   5.324  12.555  0.00  0.00    +0.000 A 
ATOM     25  C   UNL     1       7.227   4.098  12.017  0.00  0.00    +0.000 A 
ATOM     26  C   UNL     1       6.466   3.250  12.803  0.00  0.00    +0.000 A 
ATOM     27  N   UNL     1       6.076   3.532  14.070  0.00  0.00    +0.000 NA
ATOM     28  C   UNL     1       5.176   6.218  16.019  0.00  0.00    +0.000 C 
ATOM     29  C   UNL     1       4.987   6.627  17.489  0.00  0.00    +0.000 C 
ENDBRANCH   1  18
TORSDOF 3
ENDMDL
MODEL 9
REMARK VINA RESULT:      -8.0      2.460      3.123
REMARK  Name = 
REMARK  4 active torsions:
REMARK  status: ('A' for Active; 'I' for Inactive)
REMARK    1  A    between atoms: C_1  and  C_2
REMARK    2  A    between atoms: C_2  and  C_3
REMARK    3  A    between atoms: C_11  and  S_12
REMARK    4  A    between atoms: S_12  and  N_15
REMARK                            x       y       z     vdW  Elec       q    Type
REMARK                         _______ _______ _______ _____ _____    ______ ____
ROOT
ATOM      1  S   UNL     1       2.184   3.217  18.950  0.00  0.00    +0.000 S 
ATOM      2  O   UNL     1       1.882   2.485  20.159  0.00  0.00    +0.000 OA
ATOM      3  O   UNL     1       1.456   2.936  17.724  0.00  0.00    +0.000 OA
ENDROOT
BRANCH   1  12
ATOM      4  C   UNL     1       1.062   9.467  21.524  0.00  0.00    +0.000 C 
ATOM      5  O   UNL     1       1.366   8.757  22.486  0.00  0.00    +0.000 OA
ATOM      6  N   UNL     1       1.066   9.026  20.191  0.00  0.00    +0.000 N 
ATOM      7  C   UNL     1       0.910   9.922  19.038  0.00  0.00    +0.000 C 
ATOM      8  C   UNL     1       2.056   9.753  18.058  0.00  0.00    +0.000 C 
ATOM      9  C   UNL     1       2.093   8.321  17.535  0.00  0.00    +0.000 C 
ATOM     10  C   UNL     1       1.858   7.291  18.615  0.00  0.00    +0.000 A 
ATOM     11  C   UNL     1       2.155   5.933  18.339  0.00  0.00    +0.000 A 
ATOM     12  C   UNL     1       1.927   4.946  19.308  0.00  0.00    +0.000 A 
ATOM     13  C   UNL     1       1.317   5.288  20.510  0.00  0.00    +0.000 A 
ATOM     14  C   UNL     1       1.025   6.625  20.784  0.00  0.00    +0.000 A 
ATOM     15  C   UNL     1       1.321   7.648  19.869  0.00  0.00    +0.000 A 
BRANCH   4  17
ATOM     16  C   UNL     1      -0.613  11.049  22.539  0.00  0.00    +0.000 C 
ATOM     17  C   UNL     1       0.704  10.924  21.781  0.00  0.00    +0.000 C 
ENDBRANCH   4  17
ENDBRANCH   1  12
BRANCH   1  18
ATOM     18  N   UNL     1       3.818   3.018  18.625  0.00  0.00    +0.000 NA
ATOM     19  C   UNL     1       4.351   3.283  17.263  0.00  0.00    +0.000 C 
ATOM     20  C   UNL     1       4.911   4.710  17.137  0.00  0.00    +0.000 C 
ATOM     21  N   UNL     1       5.902   4.961  18.199  0.00  0.00    +0.000 N 
ATOM     22  C   UNL     1       6.576   6.187  18.076  0.00  0.00    +0.000 A 
ATOM     23  C   UNL     1       7.806   6.330  18.727  0.00  0.00    +0.000 A 
ATOM     24  C   UNL     1       8.554   7.488  18.564  0.00  0.00    +0.000 A 
ATOM     25  C   UNL     1       8.055   8.506  17.766  0.00  0.00    +0.000 A 
ATOM     26  C   UNL     1       6.825   8.306  17.166  0.00  0.00    +0.000 A 
ATOM     27  N   UNL     1       6.093   7.170  17.288  0.00  0.00    +0.000 NA
ATOM     28  C   UNL     1       5.430   4.690  19.575  0.00  0.00    +0.000 C 
ATOM     29  C   UNL     1       4.838   3.276  19.676  0.00  0.00    +0.000 C 
ENDBRANCH   1  18
TORSDOF 3
ENDMDL
