MODEL 1
REMARK VINA RESULT:      -7.9      0.000      0.000
REMARK  Name = 
REMARK  5 active torsions:
REMARK  status: ('A' for Active; 'I' for Inactive)
REMARK    1  A    between atoms: C_1  and  C_2
REMARK    2  A    between atoms: N_4  and  C_5
REMARK    3  A    between atoms: C_9  and  N_10
REMARK    4  A    between atoms: N_14  and  C_15
REMARK    5  A    between atoms: C_21  and  C_22
REMARK                            x       y       z     vdW  Elec       q    Type
REMARK                         _______ _______ _______ _____ _____    ______ ____
ROOT
ATOM      1  N   UNL     1       2.410   7.310  18.086  0.00  0.00    +0.000 N 
ATOM      2  C   UNL     1       2.785   5.989  18.090  0.00  0.00    +0.000 A 
ATOM      3  N   UNL     1       3.709   5.616  17.131  0.00  0.00    +0.000 NA
ATOM      4  C   UNL     1       4.167   4.391  17.110  0.00  0.00    +0.000 A 
ATOM      5  N   UNL     1       5.124   3.928  16.229  0.00  0.00    +0.000 N 
ATOM      6  N   UNL     1       3.685   3.492  18.077  0.00  0.00    +0.000 N 
ATOM      7  N   UNL     1       4.081   2.202  18.226  0.00  0.00    +0.000 NA
ATOM      8  C   UNL     1       3.441   1.830  19.351  0.00  0.00    +0.000 A 
ATOM      9  C   UNL     1       2.640   2.856  19.890  0.00  0.00    +0.000 A 
ATOM     10  C   UNL     1       2.791   3.902  19.017  0.00  0.00    +0.000 A 
ATOM     11  N   UNL     1       2.321   5.158  18.982  0.00  0.00    +0.000 NA
ATOM     12  H   UNL     1       2.933   7.867  17.424  0.00  0.00    +0.000 HD
ATOM     13  H   UNL     1       5.340   2.933  16.268  0.00  0.00    +0.000 HD
ENDROOT
BRANCH   1  18
ATOM     14  C   UNL     1       0.785   9.984  20.183  0.00  0.00    +0.000 A 
ATOM     15  C   UNL     1       0.761   9.340  21.415  0.00  0.00    +0.000 A 
ATOM     16  C   UNL     1       1.311   8.064  21.549  0.00  0.00    +0.000 A 
ATOM     17  C   UNL     1       1.877   7.413  20.450  0.00  0.00    +0.000 A 
ATOM     18  C   UNL     1       1.882   8.019  19.188  0.00  0.00    +0.000 A 
ATOM     19  C   UNL     1       1.349   9.317  19.091  0.00  0.00    +0.000 A 
BRANCH  14  23
ATOM     20  C   UNL     1      -0.038  13.660  20.022  0.00  0.00    +0.000 C 
ATOM     21  C   UNL     1       0.786  12.461  20.422  0.00  0.00    +0.000 C 
ATOM     22  O   UNL     1       1.809  12.596  21.084  0.00  0.00    +0.000 OA
ATOM     23  N   UNL     1       0.261  11.274  19.953  0.00  0.00    +0.000 N 
ATOM     24  H   UNL     1      -0.514  11.336  19.300  0.00  0.00    +0.000 HD
ENDBRANCH  14  23
ENDBRANCH   1  18
BRANCH   5  25
ATOM     25  C   UNL     1       5.701   4.806  15.220  0.00  0.00    +0.000 C 
ATOM     26  C   UNL     1       7.179   4.825  14.946  0.00  0.00    +0.000 C 
ATOM     27  C   UNL     1       6.236   4.241  13.936  0.00  0.00    +0.000 C 
ENDBRANCH   5  25
BRANCH   9  28
ATOM     28  C   UNL     1       1.871   2.888  21.088  0.00  0.00    +0.000 C 
ATOM     29  N   UNL     1       1.261   2.886  22.079  0.00  0.00    +0.000 NA
ENDBRANCH   9  28
TORSDOF 4
ENDMDL
MODEL 2
REMARK VINA RESULT:      -7.9      1.023      1.023
REMARK  Name = 
REMARK  5 active torsions:
REMARK  status: ('A' for Active; 'I' for Inactive)
REMARK    1  A    between atoms: C_1  and  C_2
REMARK    2  A    between atoms: N_4  and  C_5
REMARK    3  A    between atoms: C_9  and  N_10
REMARK    4  A    between atoms: N_14  and  C_15
REMARK    5  A    between atoms: C_21  and  C_22
REMARK                            x       y       z     vdW  Elec       q    Type
REMARK                         _______ _______ _______ _____ _____    ______ ____
ROOT
ATOM      1  N   UNL     1       2.424   7.274  18.052  0.00  0.00    +0.000 N 
ATOM      2  C   UNL     1       2.799   5.954  18.065  0.00  0.00    +0.000 A 
ATOM      3  N   UNL     1       3.716   5.572  17.103  0.00  0.00    +0.000 NA
ATOM      4  C   UNL     1       4.173   4.347  17.090  0.00  0.00    +0.000 A 
ATOM      5  N   UNL     1       5.125   3.875  16.207  0.00  0.00    +0.000 N 
ATOM      6  N   UNL     1       3.695   3.456  18.067  0.00  0.00    +0.000 N 
ATOM      7  N   UNL     1       4.091   2.166  18.224  0.00  0.00    +0.000 NA
ATOM      8  C   UNL     1       3.458   1.804  19.356  0.00  0.00    +0.000 A 
ATOM      9  C   UNL     1       2.661   2.835  19.891  0.00  0.00    +0.000 A 
ATOM     10  C   UNL     1       2.807   3.874  19.008  0.00  0.00    +0.000 A 
ATOM     11  N   UNL     1       2.339   5.130  18.966  0.00  0.00    +0.000 NA
ATOM     12  H   UNL     1       2.945   7.826  17.383  0.00  0.00    +0.000 HD
ATOM     13  H   UNL     1       5.339   2.880  16.253  0.00  0.00    +0.000 HD
ENDROOT
BRANCH   1  18
ATOM     14  C   UNL     1       0.837   9.977  20.141  0.00  0.00    +0.000 A 
ATOM     15  C   UNL     1       0.795   9.334  21.372  0.00  0.00    +0.000 A 
ATOM     16  C   UNL     1       1.321   8.048  21.510  0.00  0.00    +0.000 A 
ATOM     17  C   UNL     1       1.881   7.387  20.413  0.00  0.00    +0.000 A 
ATOM     18  C   UNL     1       1.904   7.993  19.152  0.00  0.00    +0.000 A 
ATOM     19  C   UNL     1       1.394   9.301  19.052  0.00  0.00    +0.000 A 
BRANCH  14  23
ATOM     20  C   UNL     1      -1.090  13.078  19.198  0.00  0.00    +0.000 C 
ATOM     21  C   UNL     1      -0.877  11.591  19.333  0.00  0.00    +0.000 C 
ATOM     22  O   UNL     1      -1.737  10.798  18.962  0.00  0.00    +0.000 OA
ATOM     23  N   UNL     1       0.338  11.276  19.908  0.00  0.00    +0.000 N 
ATOM     24  H   UNL     1       0.881  12.044  20.291  0.00  0.00    +0.000 HD
ENDBRANCH  14  23
ENDBRANCH   1  18
BRANCH   5  25
ATOM     25  C   UNL     1       5.697   4.745  15.188  0.00  0.00    +0.000 C 
ATOM     26  C   UNL     1       7.180   4.814  14.954  0.00  0.00    +0.000 C 
ATOM     27  C   UNL     1       6.290   4.163  13.937  0.00  0.00    +0.000 C 
ENDBRANCH   5  25
BRANCH   9  28
ATOM     28  C   UNL     1       1.899   2.878  21.093  0.00  0.00    +0.000 C 
ATOM     29  N   UNL     1       1.282   2.878  22.080  0.00  0.00    +0.000 NA
ENDBRANCH   9  28
TORSDOF 4
ENDMDL
MODEL 3
REMARK VINA RESULT:      -7.7      3.210      7.796
REMARK  Name = 
REMARK  5 active torsions:
REMARK  status: ('A' for Active; 'I' for Inactive)
REMARK    1  A    between atoms: C_1  and  C_2
REMARK    2  A    between atoms: N_4  and  C_5
REMARK    3  A    between atoms: C_9  and  N_10
REMARK    4  A    between atoms: N_14  and  C_15
REMARK    5  A    between atoms: C_21  and  C_22
REMARK                            x       y       z     vdW  Elec       q    Type
REMARK                         _______ _______ _______ _____ _____    ______ ____
ROOT
ATOM      1  N   UNL     1       1.910   8.413  17.570  0.00  0.00    +0.000 N 
ATOM      2  C   UNL     1       1.084   9.204  18.329  0.00  0.00    +0.000 A 
ATOM      3  N   UNL     1       0.013   9.777  17.667  0.00  0.00    +0.000 NA
ATOM      4  C   UNL     1      -0.857  10.491  18.333  0.00  0.00    +0.000 A 
ATOM      5  N   UNL     1      -1.985  11.066  17.781  0.00  0.00    +0.000 N 
ATOM      6  N   UNL     1      -0.655  10.653  19.715  0.00  0.00    +0.000 N 
ATOM      7  N   UNL     1      -1.478  11.324  20.562  0.00  0.00    +0.000 NA
ATOM      8  C   UNL     1      -0.927  11.070  21.764  0.00  0.00    +0.000 A 
ATOM      9  C   UNL     1       0.232  10.274  21.677  0.00  0.00    +0.000 A 
ATOM     10  C   UNL     1       0.399  10.058  20.333  0.00  0.00    +0.000 A 
ATOM     11  N   UNL     1       1.287   9.361  19.608  0.00  0.00    +0.000 NA
ATOM     12  H   UNL     1       1.571   8.279  16.627  0.00  0.00    +0.000 HD
ATOM     13  H   UNL     1      -2.542  11.661  18.392  0.00  0.00    +0.000 HD
ENDROOT
BRANCH   1  18
ATOM     14  C   UNL     1       3.173   5.438  19.506  0.00  0.00    +0.000 A 
ATOM     15  C   UNL     1       4.433   5.300  18.936  0.00  0.00    +0.000 A 
ATOM     16  C   UNL     1       4.865   6.202  17.962  0.00  0.00    +0.000 A 
ATOM     17  C   UNL     1       4.034   7.242  17.537  0.00  0.00    +0.000 A 
ATOM     18  C   UNL     1       2.746   7.386  18.063  0.00  0.00    +0.000 A 
ATOM     19  C   UNL     1       2.351   6.480  19.066  0.00  0.00    +0.000 A 
BRANCH  14  23
ATOM     20  C   UNL     1       1.364   2.865  21.585  0.00  0.00    +0.000 C 
ATOM     21  C   UNL     1       1.734   3.570  20.304  0.00  0.00    +0.000 C 
ATOM     22  O   UNL     1       1.245   3.225  19.234  0.00  0.00    +0.000 OA
ATOM     23  N   UNL     1       2.654   4.582  20.500  0.00  0.00    +0.000 N 
ATOM     24  H   UNL     1       3.071   4.655  21.423  0.00  0.00    +0.000 HD
ENDBRANCH  14  23
ENDBRANCH   1  18
BRANCH   5  25
ATOM     25  C   UNL     1      -2.285  10.914  16.364  0.00  0.00    +0.000 C 
ATOM     26  C   UNL     1      -3.073   9.743  15.847  0.00  0.00    +0.000 C 
ATOM     27  C   UNL     1      -3.685  11.112  15.858  0.00  0.00    +0.000 C 
ENDBRANCH   5  25
BRANCH   9  28
ATOM     28  C   UNL     1       1.055   9.734  22.707  0.00  0.00    +0.000 C 
ATOM     29  N   UNL     1       1.702   9.301  23.571  0.00  0.00    +0.000 NA
ENDBRANCH   9  28
TORSDOF 4
ENDMDL
MODEL 4
REMARK VINA RESULT:      -7.6      1.713      1.807
REMARK  Name = 
REMARK  5 active torsions:
REMARK  status: ('A' for Active; 'I' for Inactive)
REMARK    1  A    between atoms: C_1  and  C_2
REMARK    2  A    between atoms: N_4  and  C_5
REMARK    3  A    between atoms: C_9  and  N_10
REMARK    4  A    between atoms: N_14  and  C_15
REMARK    5  A    between atoms: C_21  and  C_22
REMARK                            x       y       z     vdW  Elec       q    Type
REMARK                         _______ _______ _______ _____ _____    ______ ____
ROOT
ATOM      1  N   UNL     1       3.012   7.120  18.478  0.00  0.00    +0.000 N 
ATOM      2  C   UNL     1       3.503   5.861  18.716  0.00  0.00    +0.000 A 
ATOM      3  N   UNL     1       4.710   5.555  18.114  0.00  0.00    +0.000 NA
ATOM      4  C   UNL     1       5.277   4.399  18.343  0.00  0.00    +0.000 A 
ATOM      5  N   UNL     1       6.501   4.012  17.834  0.00  0.00    +0.000 N 
ATOM      6  N   UNL     1       4.617   3.501  19.201  0.00  0.00    +0.000 N 
ATOM      7  N   UNL     1       5.081   2.282  19.579  0.00  0.00    +0.000 NA
ATOM      8  C   UNL     1       4.169   1.895  20.491  0.00  0.00    +0.000 A 
ATOM      9  C   UNL     1       3.139   2.839  20.670  0.00  0.00    +0.000 A 
ATOM     10  C   UNL     1       3.441   3.846  19.789  0.00  0.00    +0.000 A 
ATOM     11  N   UNL     1       2.877   5.028  19.501  0.00  0.00    +0.000 NA
ATOM     12  H   UNL     1       3.653   7.702  17.955  0.00  0.00    +0.000 HD
ATOM     13  H   UNL     1       6.797   3.056  18.027  0.00  0.00    +0.000 HD
ENDROOT
BRANCH   1  18
ATOM     14  C   UNL     1       0.511   9.648  19.721  0.00  0.00    +0.000 A 
ATOM     15  C   UNL     1       0.223   9.106  20.967  0.00  0.00    +0.000 A 
ATOM     16  C   UNL     1       0.878   7.951  21.398  0.00  0.00    +0.000 A 
ATOM     17  C   UNL     1       1.817   7.318  20.579  0.00  0.00    +0.000 A 
ATOM     18  C   UNL     1       2.101   7.817  19.303  0.00  0.00    +0.000 A 
ATOM     19  C   UNL     1       1.447   9.000  18.910  0.00  0.00    +0.000 A 
BRANCH  14  23
ATOM     20  C   UNL     1      -1.597  12.268  18.015  0.00  0.00    +0.000 C 
ATOM     21  C   UNL     1      -1.237  10.864  18.431  0.00  0.00    +0.000 C 
ATOM     22  O   UNL     1      -1.935   9.912  18.097  0.00  0.00    +0.000 OA
ATOM     23  N   UNL     1      -0.094  10.813  19.204  0.00  0.00    +0.000 N 
ATOM     24  H   UNL     1       0.294  11.699  19.514  0.00  0.00    +0.000 HD
ENDBRANCH  14  23
ENDBRANCH   1  18
BRANCH   5  25
ATOM     25  C   UNL     1       7.266   4.899  16.967  0.00  0.00    +0.000 C 
ATOM     26  C   UNL     1       7.308   4.699  15.478  0.00  0.00    +0.000 C 
ATOM     27  C   UNL     1       6.563   5.865  16.057  0.00  0.00    +0.000 C 
ENDBRANCH   5  25
BRANCH   9  28
ATOM     28  C   UNL     1       2.041   2.841  21.576  0.00  0.00    +0.000 C 
ATOM     29  N   UNL     1       1.166   2.839  22.343  0.00  0.00    +0.000 NA
ENDBRANCH   9  28
TORSDOF 4
ENDMDL
MODEL 5
REMARK VINA RESULT:      -7.6      3.298      7.648
REMARK  Name = 
REMARK  5 active torsions:
REMARK  status: ('A' for Active; 'I' for Inactive)
REMARK    1  A    between atoms: C_1  and  C_2
REMARK    2  A    between atoms: N_4  and  C_5
REMARK    3  A    between atoms: C_9  and  N_10
REMARK    4  A    between atoms: N_14  and  C_15
REMARK    5  A    between atoms: C_21  and  C_22
REMARK                            x       y       z     vdW  Elec       q    Type
REMARK                         _______ _______ _______ _____ _____    ______ ____
ROOT
ATOM      1  N   UNL     1       4.939   7.047  17.054  0.00  0.00    +0.000 N 
ATOM      2  C   UNL     1       4.079   6.747  18.082  0.00  0.00    +0.000 A 
ATOM      3  N   UNL     1       3.148   7.719  18.400  0.00  0.00    +0.000 NA
ATOM      4  C   UNL     1       2.252   7.485  19.323  0.00  0.00    +0.000 A 
ATOM      5  N   UNL     1       1.250   8.364  19.684  0.00  0.00    +0.000 N 
ATOM      6  N   UNL     1       2.283   6.235  19.968  0.00  0.00    +0.000 N 
ATOM      7  N   UNL     1       1.407   5.812  20.915  0.00  0.00    +0.000 NA
ATOM      8  C   UNL     1       1.777   4.530  21.099  0.00  0.00    +0.000 A 
ATOM      9  C   UNL     1       2.877   4.157  20.302  0.00  0.00    +0.000 A 
ATOM     10  C   UNL     1       3.202   5.298  19.613  0.00  0.00    +0.000 A 
ATOM     11  N   UNL     1       4.125   5.591  18.685  0.00  0.00    +0.000 NA
ATOM     12  H   UNL     1       4.717   7.921  16.597  0.00  0.00    +0.000 HD
ATOM     13  H   UNL     1       0.662   8.092  20.470  0.00  0.00    +0.000 HD
ENDROOT
BRANCH   1  18
ATOM     14  C   UNL     1       5.740   4.524  14.374  0.00  0.00    +0.000 A 
ATOM     15  C   UNL     1       7.086   4.307  14.646  0.00  0.00    +0.000 A 
ATOM     16  C   UNL     1       7.697   4.953  15.721  0.00  0.00    +0.000 A 
ATOM     17  C   UNL     1       6.973   5.836  16.527  0.00  0.00    +0.000 A 
ATOM     18  C   UNL     1       5.627   6.106  16.256  0.00  0.00    +0.000 A 
ATOM     19  C   UNL     1       5.030   5.415  15.185  0.00  0.00    +0.000 A 
BRANCH  14  23
ATOM     20  C   UNL     1       4.553   2.828  11.223  0.00  0.00    +0.000 C 
ATOM     21  C   UNL     1       5.590   3.377  12.170  0.00  0.00    +0.000 C 
ATOM     22  O   UNL     1       6.784   3.313  11.899  0.00  0.00    +0.000 OA
ATOM     23  N   UNL     1       5.036   3.912  13.316  0.00  0.00    +0.000 N 
ATOM     24  H   UNL     1       4.041   3.765  13.461  0.00  0.00    +0.000 HD
ENDBRANCH  14  23
ENDBRANCH   1  18
BRANCH   5  25
ATOM     25  C   UNL     1       1.127   9.664  19.038  0.00  0.00    +0.000 C 
ATOM     26  C   UNL     1      -0.043   9.997  18.156  0.00  0.00    +0.000 C 
ATOM     27  C   UNL     1       0.091  10.648  19.501  0.00  0.00    +0.000 C 
ENDBRANCH   5  25
BRANCH   9  28
ATOM     28  C   UNL     1       3.518   2.895  20.152  0.00  0.00    +0.000 C 
ATOM     29  N   UNL     1       4.055   1.874  19.999  0.00  0.00    +0.000 NA
ENDBRANCH   9  28
TORSDOF 4
ENDMDL
MODEL 6
REMARK VINA RESULT:      -7.5      3.300      7.543
REMARK  Name = 
REMARK  5 active torsions:
REMARK  status: ('A' for Active; 'I' for Inactive)
REMARK    1  A    between atoms: C_1  and  C_2
REMARK    2  A    between atoms: N_4  and  C_5
REMARK    3  A    between atoms: C_9  and  N_10
REMARK    4  A    between atoms: N_14  and  C_15
REMARK    5  A    between atoms: C_21  and  C_22
REMARK                            x       y       z     vdW  Elec       q    Type
REMARK                         _______ _______ _______ _____ _____    ______ ____
ROOT
ATOM      1  N   UNL     1       5.079   6.474  17.830  0.00  0.00    +0.000 N 
ATOM      2  C   UNL     1       4.186   5.867  18.678  0.00  0.00    +0.000 A 
ATOM      3  N   UNL     1       3.300   6.706  19.329  0.00  0.00    +0.000 NA
ATOM      4  C   UNL     1       2.376   6.200  20.104  0.00  0.00    +0.000 A 
ATOM      5  N   UNL     1       1.413   6.941  20.761  0.00  0.00    +0.000 N 
ATOM      6  N   UNL     1       2.330   4.802  20.247  0.00  0.00    +0.000 N 
ATOM      7  N   UNL     1       1.415   4.111  20.975  0.00  0.00    +0.000 NA
ATOM      8  C   UNL     1       1.715   2.832  20.678  0.00  0.00    +0.000 A 
ATOM      9  C   UNL     1       2.809   2.716  19.799  0.00  0.00    +0.000 A 
ATOM     10  C   UNL     1       3.206   4.010  19.575  0.00  0.00    +0.000 A 
ATOM     11  N   UNL     1       4.160   4.570  18.816  0.00  0.00    +0.000 NA
ATOM     12  H   UNL     1       4.912   7.465  17.723  0.00  0.00    +0.000 HD
ATOM     13  H   UNL     1       0.797   6.433  21.394  0.00  0.00    +0.000 HD
ENDROOT
BRANCH   1  18
ATOM     14  C   UNL     1       5.717   4.712  14.562  0.00  0.00    +0.000 A 
ATOM     15  C   UNL     1       7.106   4.707  14.560  0.00  0.00    +0.000 A 
ATOM     16  C   UNL     1       7.810   5.240  15.641  0.00  0.00    +0.000 A 
ATOM     17  C   UNL     1       7.131   5.797  16.728  0.00  0.00    +0.000 A 
ATOM     18  C   UNL     1       5.734   5.852  16.743  0.00  0.00    +0.000 A 
ATOM     19  C   UNL     1       5.051   5.279  15.653  0.00  0.00    +0.000 A 
BRANCH  14  23
ATOM     20  C   UNL     1       4.266   3.158  11.448  0.00  0.00    +0.000 C 
ATOM     21  C   UNL     1       5.381   3.568  12.376  0.00  0.00    +0.000 C 
ATOM     22  O   UNL     1       6.551   3.332  12.095  0.00  0.00    +0.000 OA
ATOM     23  N   UNL     1       4.920   4.191  13.519  0.00  0.00    +0.000 N 
ATOM     24  H   UNL     1       3.917   4.189  13.676  0.00  0.00    +0.000 HD
ENDBRANCH  14  23
ENDBRANCH   1  18
BRANCH   5  25
ATOM     25  C   UNL     1       1.369   8.392  20.635  0.00  0.00    +0.000 C 
ATOM     26  C   UNL     1       0.096   9.161  20.846  0.00  0.00    +0.000 C 
ATOM     27  C   UNL     1       1.205   9.256  21.852  0.00  0.00    +0.000 C 
ENDBRANCH   5  25
BRANCH   9  28
ATOM     28  C   UNL     1       3.388   1.562  19.198  0.00  0.00    +0.000 C 
ATOM     29  N   UNL     1       3.891   0.628  18.722  0.00  0.00    +0.000 NA
ENDBRANCH   9  28
TORSDOF 4
ENDMDL
MODEL 7
REMARK VINA RESULT:      -7.3      1.276      1.373
REMARK  Name = 
REMARK  5 active torsions:
REMARK  status: ('A' for Active; 'I' for Inactive)
REMARK    1  A    between atoms: C_1  and  C_2
REMARK    2  A    between atoms: N_4  and  C_5
REMARK    3  A    between atoms: C_9  and  N_10
REMARK    4  A    between atoms: N_14  and  C_15
REMARK    5  A    between atoms: C_21  and  C_22
REMARK                            x       y       z     vdW  Elec       q    Type
REMARK                         _______ _______ _______ _____ _____    ______ ____
ROOT
ATOM      1  N   UNL     1       3.098   7.053  18.403  0.00  0.00    +0.000 N 
ATOM      2  C   UNL     1       3.561   5.788  18.668  0.00  0.00    +0.000 A 
ATOM      3  N   UNL     1       4.768   5.447  18.086  0.00  0.00    +0.000 NA
ATOM      4  C   UNL     1       5.308   4.284  18.342  0.00  0.00    +0.000 A 
ATOM      5  N   UNL     1       6.530   3.863  17.854  0.00  0.00    +0.000 N 
ATOM      6  N   UNL     1       4.620   3.415  19.207  0.00  0.00    +0.000 N 
ATOM      7  N   UNL     1       5.054   2.193  19.611  0.00  0.00    +0.000 NA
ATOM      8  C   UNL     1       4.124   1.841  20.519  0.00  0.00    +0.000 A 
ATOM      9  C   UNL     1       3.112   2.809  20.670  0.00  0.00    +0.000 A 
ATOM     10  C   UNL     1       3.445   3.794  19.775  0.00  0.00    +0.000 A 
ATOM     11  N   UNL     1       2.908   4.982  19.460  0.00  0.00    +0.000 NA
ATOM     12  H   UNL     1       3.757   7.612  17.878  0.00  0.00    +0.000 HD
ATOM     13  H   UNL     1       6.803   2.905  18.066  0.00  0.00    +0.000 HD
ENDROOT
BRANCH   1  18
ATOM     14  C   UNL     1       0.580   9.609  19.550  0.00  0.00    +0.000 A 
ATOM     15  C   UNL     1       0.326   9.137  20.832  0.00  0.00    +0.000 A 
ATOM     16  C   UNL     1       1.010   8.019  21.315  0.00  0.00    +0.000 A 
ATOM     17  C   UNL     1       1.942   7.354  20.515  0.00  0.00    +0.000 A 
ATOM     18  C   UNL     1       2.192   7.782  19.206  0.00  0.00    +0.000 A 
ATOM     19  C   UNL     1       1.511   8.930  18.758  0.00  0.00    +0.000 A 
BRANCH  14  23
ATOM     20  C   UNL     1      -0.455  12.971  18.193  0.00  0.00    +0.000 C 
ATOM     21  C   UNL     1       0.507  11.983  18.802  0.00  0.00    +0.000 C 
ATOM     22  O   UNL     1       1.655  12.313  19.077  0.00  0.00    +0.000 OA
ATOM     23  N   UNL     1      -0.054  10.733  18.979  0.00  0.00    +0.000 N 
ATOM     24  H   UNL     1      -0.972  10.577  18.574  0.00  0.00    +0.000 HD
ENDBRANCH  14  23
ENDBRANCH   1  18
BRANCH   5  25
ATOM     25  C   UNL     1       7.322   4.719  16.981  0.00  0.00    +0.000 C 
ATOM     26  C   UNL     1       7.191   4.653  15.485  0.00  0.00    +0.000 C 
ATOM     27  C   UNL     1       6.675   5.848  16.231  0.00  0.00    +0.000 C 
ENDBRANCH   5  25
BRANCH   9  28
ATOM     28  C   UNL     1       2.003   2.848  21.563  0.00  0.00    +0.000 C 
ATOM     29  N   UNL     1       1.106   2.848  22.303  0.00  0.00    +0.000 NA
ENDBRANCH   9  28
TORSDOF 4
ENDMDL
MODEL 8
REMARK VINA RESULT:      -7.1      3.252      7.928
REMARK  Name = 
REMARK  5 active torsions:
REMARK  status: ('A' for Active; 'I' for Inactive)
REMARK    1  A    between atoms: C_1  and  C_2
REMARK    2  A    between atoms: N_4  and  C_5
REMARK    3  A    between atoms: C_9  and  N_10
REMARK    4  A    between atoms: N_14  and  C_15
REMARK    5  A    between atoms: C_21  and  C_22
REMARK                            x       y       z     vdW  Elec       q    Type
REMARK                         _______ _______ _______ _____ _____    ______ ____
ROOT
ATOM      1  N   UNL     1       1.660   8.300  17.863  0.00  0.00    +0.000 N 
ATOM      2  C   UNL     1       0.834   9.184  18.512  0.00  0.00    +0.000 A 
ATOM      3  N   UNL     1      -0.124   9.807  17.733  0.00  0.00    +0.000 NA
ATOM      4  C   UNL     1      -0.991  10.613  18.288  0.00  0.00    +0.000 A 
ATOM      5  N   UNL     1      -2.016  11.246  17.612  0.00  0.00    +0.000 N 
ATOM      6  N   UNL     1      -0.903  10.820  19.675  0.00  0.00    +0.000 N 
ATOM      7  N   UNL     1      -1.743  11.588  20.416  0.00  0.00    +0.000 NA
ATOM      8  C   UNL     1      -1.324  11.346  21.673  0.00  0.00    +0.000 A 
ATOM      9  C   UNL     1      -0.229  10.461  21.725  0.00  0.00    +0.000 A 
ATOM     10  C   UNL     1       0.041  10.175  20.411  0.00  0.00    +0.000 A 
ATOM     11  N   UNL     1       0.933   9.382  19.798  0.00  0.00    +0.000 NA
ATOM     12  H   UNL     1       1.398   8.151  16.899  0.00  0.00    +0.000 HD
ATOM     13  H   UNL     1      -2.577  11.908  18.146  0.00  0.00    +0.000 HD
ENDROOT
BRANCH   1  18
ATOM     14  C   UNL     1       4.263   5.675  18.586  0.00  0.00    +0.000 A 
ATOM     15  C   UNL     1       3.769   5.171  19.783  0.00  0.00    +0.000 A 
ATOM     16  C   UNL     1       2.575   5.666  20.312  0.00  0.00    +0.000 A 
ATOM     17  C   UNL     1       1.873   6.681  19.657  0.00  0.00    +0.000 A 
ATOM     18  C   UNL     1       2.364   7.236  18.470  0.00  0.00    +0.000 A 
ATOM     19  C   UNL     1       3.553   6.695  17.945  0.00  0.00    +0.000 A 
BRANCH  14  23
ATOM     20  C   UNL     1       7.764   4.657  17.626  0.00  0.00    +0.000 C 
ATOM     21  C   UNL     1       6.693   5.133  18.574  0.00  0.00    +0.000 C 
ATOM     22  O   UNL     1       6.955   5.375  19.747  0.00  0.00    +0.000 OA
ATOM     23  N   UNL     1       5.454   5.233  17.972  0.00  0.00    +0.000 N 
ATOM     24  H   UNL     1       5.366   4.863  17.030  0.00  0.00    +0.000 HD
ENDBRANCH  14  23
ENDBRANCH   1  18
BRANCH   5  25
ATOM     25  C   UNL     1      -2.198  11.055  16.179  0.00  0.00    +0.000 C 
ATOM     26  C   UNL     1      -2.898   9.844  15.630  0.00  0.00    +0.000 C 
ATOM     27  C   UNL     1      -3.561  11.189  15.562  0.00  0.00    +0.000 C 
ENDBRANCH   5  25
BRANCH   9  28
ATOM     28  C   UNL     1       0.453   9.907  22.846  0.00  0.00    +0.000 C 
ATOM     29  N   UNL     1       0.979   9.441  23.772  0.00  0.00    +0.000 NA
ENDBRANCH   9  28
TORSDOF 4
ENDMDL
MODEL 9
REMARK VINA RESULT:      -7.1      3.337      8.044
REMARK  Name = 
REMARK  5 active torsions:
REMARK  status: ('A' for Active; 'I' for Inactive)
REMARK    1  A    between atoms: C_1  and  C_2
REMARK    2  A    between atoms: N_4  and  C_5
REMARK    3  A    between atoms: C_9  and  N_10
REMARK    4  A    between atoms: N_14  and  C_15
REMARK    5  A    between atoms: C_21  and  C_22
REMARK                            x       y       z     vdW  Elec       q    Type
REMARK                         _______ _______ _______ _____ _____    ______ ____
ROOT
ATOM      1  N   UNL     1       1.740   8.518  17.696  0.00  0.00    +0.000 N 
ATOM      2  C   UNL     1       0.905   9.319  18.434  0.00  0.00    +0.000 A 
ATOM      3  N   UNL     1      -0.132   9.918  17.743  0.00  0.00    +0.000 NA
ATOM      4  C   UNL     1      -1.009  10.645  18.386  0.00  0.00    +0.000 A 
ATOM      5  N   UNL     1      -2.108  11.246  17.803  0.00  0.00    +0.000 N 
ATOM      6  N   UNL     1      -0.849  10.792  19.776  0.00  0.00    +0.000 N 
ATOM      7  N   UNL     1      -1.686  11.473  20.601  0.00  0.00    +0.000 NA
ATOM      8  C   UNL     1      -1.179  11.198  21.818  0.00  0.00    +0.000 A 
ATOM      9  C   UNL     1      -0.034  10.380  21.762  0.00  0.00    +0.000 A 
ATOM     10  C   UNL     1       0.173  10.171  20.423  0.00  0.00    +0.000 A 
ATOM     11  N   UNL     1       1.070   9.463  19.720  0.00  0.00    +0.000 NA
ATOM     12  H   UNL     1       1.429   8.398  16.741  0.00  0.00    +0.000 HD
ATOM     13  H   UNL     1      -2.672  11.847  18.401  0.00  0.00    +0.000 HD
ENDROOT
BRANCH   1  18
ATOM     14  C   UNL     1       4.525   6.020  18.133  0.00  0.00    +0.000 A 
ATOM     15  C   UNL     1       4.136   5.436  19.333  0.00  0.00    +0.000 A 
ATOM     16  C   UNL     1       2.953   5.837  19.956  0.00  0.00    +0.000 A 
ATOM     17  C   UNL     1       2.155   6.836  19.394  0.00  0.00    +0.000 A 
ATOM     18  C   UNL     1       2.539   7.470  18.207  0.00  0.00    +0.000 A 
ATOM     19  C   UNL     1       3.720   7.023  17.586  0.00  0.00    +0.000 A 
BRANCH  14  23
ATOM     20  C   UNL     1       7.203   4.584  15.901  0.00  0.00    +0.000 C 
ATOM     21  C   UNL     1       5.797   4.731  16.425  0.00  0.00    +0.000 C 
ATOM     22  O   UNL     1       4.881   4.062  15.958  0.00  0.00    +0.000 OA
ATOM     23  N   UNL     1       5.697   5.675  17.427  0.00  0.00    +0.000 N 
ATOM     24  H   UNL     1       6.517   6.247  17.607  0.00  0.00    +0.000 HD
ENDBRANCH  14  23
ENDBRANCH   1  18
BRANCH   5  25
ATOM     25  C   UNL     1      -2.365  11.111  16.376  0.00  0.00    +0.000 C 
ATOM     26  C   UNL     1      -2.975   9.864  15.801  0.00  0.00    +0.000 C 
ATOM     27  C   UNL     1      -3.772  11.134  15.851  0.00  0.00    +0.000 C 
ENDBRANCH   5  25
BRANCH   9  28
ATOM     28  C   UNL     1       0.745   9.816  22.813  0.00  0.00    +0.000 C 
ATOM     29  N   UNL     1       1.409   9.375  23.660  0.00  0.00    +0.000 NA
ENDBRANCH   9  28
TORSDOF 4
ENDMDL
