MODEL 1
REMARK VINA RESULT:      -6.3      0.000      0.000
REMARK  Name = 
REMARK  8 active torsions:
REMARK  status: ('A' for Active; 'I' for Inactive)
REMARK    1  A    between atoms: C_1  and  C_2
REMARK    2  A    between atoms: C_2  and  C_3
REMARK    3  A    between atoms: C_8  and  C_9
REMARK    4  A    between atoms: C_9  and  O_11
REMARK    5  A    between atoms: O_11  and  C_12
REMARK    6  A    between atoms: C_12  and  P_13
REMARK    7  A    between atoms: P_13  and  O_15
REMARK    8  A    between atoms: P_13  and  O_16
REMARK                            x       y       z     vdW  Elec       q    Type
REMARK                         _______ _______ _______ _____ _____    ______ ____
ROOT
ATOM      1  C   UNL     1       6.821   6.232  16.856  0.00  0.00    +0.000 A 
ATOM      2  O   UNL     1       7.446   5.668  15.780  0.00  0.00    +0.000 OA
ATOM      3  C   UNL     1       6.431   5.155  15.037  0.00  0.00    +0.000 A 
ATOM      4  N   UNL     1       6.783   4.511  13.919  0.00  0.00    +0.000 N 
ATOM      5  N   UNL     1       5.233   5.329  15.537  0.00  0.00    +0.000 NA
ATOM      6  C   UNL     1       5.464   6.020  16.716  0.00  0.00    +0.000 A 
ATOM      7  H   UNL     1       7.740   4.180  13.878  0.00  0.00    +0.000 HD
ATOM      8  H   UNL     1       6.097   3.875  13.544  0.00  0.00    +0.000 HD
ENDROOT
BRANCH   1  10
ATOM      9  C   UNL     1       7.771   8.394  17.652  0.00  0.00    +0.000 C 
ATOM     10  C   UNL     1       7.681   6.892  17.868  0.00  0.00    +0.000 C 
ENDBRANCH   1  10
BRANCH   6  11
ATOM     11  C   UNL     1       4.445   6.362  17.695  0.00  0.00    +0.000 C 
ATOM     12  O   UNL     1       3.683   7.310  17.560  0.00  0.00    +0.000 OA
BRANCH  11  13
ATOM     13  O   UNL     1       4.498   5.602  18.824  0.00  0.00    +0.000 OA
BRANCH  13  14
ATOM     14  C   UNL     1       3.427   4.643  18.916  0.00  0.00    +0.000 C 
BRANCH  14  15
ATOM     15  P   UNL     1       4.233   3.079  19.420  0.00  0.00    +0.000 P 
ATOM     16  O   UNL     1       3.895   2.425  18.078  0.00  0.00    +0.000 OA
BRANCH  15  17
ATOM     17  O   UNL     1       5.725   3.717  19.184  0.00  0.00    +0.000 OA
ATOM     18  H   UNL     1       5.669   4.570  18.714  0.00  0.00    +0.000 HD
ENDBRANCH  15  17
BRANCH  15  19
ATOM     19  O   UNL     1       4.996   1.601  19.897  0.00  0.00    +0.000 OA
ATOM     20  H   UNL     1       5.909   1.674  19.553  0.00  0.00    +0.000 HD
ENDBRANCH  15  19
ENDBRANCH  14  15
ENDBRANCH  13  14
ENDBRANCH  11  13
ENDBRANCH   6  11
TORSDOF 7
ENDMDL
MODEL 2
REMARK VINA RESULT:      -6.2      1.741      2.236
REMARK  Name = 
REMARK  8 active torsions:
REMARK  status: ('A' for Active; 'I' for Inactive)
REMARK    1  A    between atoms: C_1  and  C_2
REMARK    2  A    between atoms: C_2  and  C_3
REMARK    3  A    between atoms: C_8  and  C_9
REMARK    4  A    between atoms: C_9  and  O_11
REMARK    5  A    between atoms: O_11  and  C_12
REMARK    6  A    between atoms: C_12  and  P_13
REMARK    7  A    between atoms: P_13  and  O_15
REMARK    8  A    between atoms: P_13  and  O_16
REMARK                            x       y       z     vdW  Elec       q    Type
REMARK                         _______ _______ _______ _____ _____    ______ ____
ROOT
ATOM      1  C   UNL     1       6.993   5.842  17.171  0.00  0.00    +0.000 A 
ATOM      2  O   UNL     1       7.505   5.850  15.904  0.00  0.00    +0.000 OA
ATOM      3  C   UNL     1       6.724   4.970  15.224  0.00  0.00    +0.000 A 
ATOM      4  N   UNL     1       7.039   4.770  13.940  0.00  0.00    +0.000 N 
ATOM      5  N   UNL     1       5.781   4.402  15.932  0.00  0.00    +0.000 NA
ATOM      6  C   UNL     1       5.940   4.950  17.195  0.00  0.00    +0.000 A 
ATOM      7  H   UNL     1       7.984   5.017  13.669  0.00  0.00    +0.000 HD
ATOM      8  H   UNL     1       6.689   3.919  13.530  0.00  0.00    +0.000 HD
ENDROOT
BRANCH   1  10
ATOM      9  C   UNL     1       7.870   8.129  17.629  0.00  0.00    +0.000 C 
ATOM     10  C   UNL     1       7.645   6.725  18.168  0.00  0.00    +0.000 C 
ENDBRANCH   1  10
BRANCH   6  11
ATOM     11  C   UNL     1       5.188   4.556  18.376  0.00  0.00    +0.000 C 
ATOM     12  O   UNL     1       5.629   3.787  19.220  0.00  0.00    +0.000 OA
BRANCH  11  13
ATOM     13  O   UNL     1       3.911   5.028  18.391  0.00  0.00    +0.000 OA
BRANCH  13  14
ATOM     14  C   UNL     1       2.962   4.122  17.795  0.00  0.00    +0.000 C 
BRANCH  14  15
ATOM     15  P   UNL     1       1.705   3.832  19.092  0.00  0.00    +0.000 P 
ATOM     16  O   UNL     1       0.931   2.873  18.183  0.00  0.00    +0.000 OA
BRANCH  15  17
ATOM     17  O   UNL     1       2.722   2.852  19.924  0.00  0.00    +0.000 OA
ATOM     18  H   UNL     1       3.212   3.354  20.602  0.00  0.00    +0.000 HD
ENDBRANCH  15  17
BRANCH  15  19
ATOM     19  O   UNL     1       0.516   3.557  20.319  0.00  0.00    +0.000 OA
ATOM     20  H   UNL     1      -0.327   3.842  19.911  0.00  0.00    +0.000 HD
ENDBRANCH  15  19
ENDBRANCH  14  15
ENDBRANCH  13  14
ENDBRANCH  11  13
ENDBRANCH   6  11
TORSDOF 7
ENDMDL
MODEL 3
REMARK VINA RESULT:      -6.2      2.797      5.219
REMARK  Name = 
REMARK  8 active torsions:
REMARK  status: ('A' for Active; 'I' for Inactive)
REMARK    1  A    between atoms: C_1  and  C_2
REMARK    2  A    between atoms: C_2  and  C_3
REMARK    3  A    between atoms: C_8  and  C_9
REMARK    4  A    between atoms: C_9  and  O_11
REMARK    5  A    between atoms: O_11  and  C_12
REMARK    6  A    between atoms: C_12  and  P_13
REMARK    7  A    between atoms: P_13  and  O_15
REMARK    8  A    between atoms: P_13  and  O_16
REMARK                            x       y       z     vdW  Elec       q    Type
REMARK                         _______ _______ _______ _____ _____    ______ ____
ROOT
ATOM      1  C   UNL     1       2.757   3.471  19.514  0.00  0.00    +0.000 A 
ATOM      2  O   UNL     1       3.209   2.348  20.149  0.00  0.00    +0.000 OA
ATOM      3  C   UNL     1       4.562   2.432  20.050  0.00  0.00    +0.000 A 
ATOM      4  N   UNL     1       5.257   1.420  20.579  0.00  0.00    +0.000 N 
ATOM      5  N   UNL     1       5.008   3.484  19.411  0.00  0.00    +0.000 NA
ATOM      6  C   UNL     1       3.856   4.167  19.053  0.00  0.00    +0.000 A 
ATOM      7  H   UNL     1       4.750   0.552  20.712  0.00  0.00    +0.000 HD
ATOM      8  H   UNL     1       6.201   1.313  20.243  0.00  0.00    +0.000 HD
ENDROOT
BRANCH   1  10
ATOM      9  C   UNL     1       0.575   2.498  18.806  0.00  0.00    +0.000 C 
ATOM     10  C   UNL     1       1.289   3.670  19.460  0.00  0.00    +0.000 C 
ENDBRANCH   1  10
BRANCH   6  11
ATOM     11  C   UNL     1       3.818   5.362  18.227  0.00  0.00    +0.000 C 
ATOM     12  O   UNL     1       3.480   6.458  18.656  0.00  0.00    +0.000 OA
BRANCH  11  13
ATOM     13  O   UNL     1       4.080   5.124  16.912  0.00  0.00    +0.000 OA
BRANCH  13  14
ATOM     14  C   UNL     1       5.141   5.945  16.385  0.00  0.00    +0.000 C 
BRANCH  14  15
ATOM     15  P   UNL     1       6.678   5.016  16.737  0.00  0.00    +0.000 P 
ATOM     16  O   UNL     1       6.221   3.848  15.858  0.00  0.00    +0.000 OA
BRANCH  15  17
ATOM     17  O   UNL     1       7.541   5.964  15.715  0.00  0.00    +0.000 OA
ATOM     18  H   UNL     1       7.252   5.836  14.792  0.00  0.00    +0.000 HD
ENDBRANCH  15  17
BRANCH  15  19
ATOM     19  O   UNL     1       8.131   4.138  17.069  0.00  0.00    +0.000 OA
ATOM     20  H   UNL     1       8.095   3.367  16.466  0.00  0.00    +0.000 HD
ENDBRANCH  15  19
ENDBRANCH  14  15
ENDBRANCH  13  14
ENDBRANCH  11  13
ENDBRANCH   6  11
TORSDOF 7
ENDMDL
MODEL 4
REMARK VINA RESULT:      -6.1      2.312      3.383
REMARK  Name = 
REMARK  8 active torsions:
REMARK  status: ('A' for Active; 'I' for Inactive)
REMARK    1  A    between atoms: C_1  and  C_2
REMARK    2  A    between atoms: C_2  and  C_3
REMARK    3  A    between atoms: C_8  and  C_9
REMARK    4  A    between atoms: C_9  and  O_11
REMARK    5  A    between atoms: O_11  and  C_12
REMARK    6  A    between atoms: C_12  and  P_13
REMARK    7  A    between atoms: P_13  and  O_15
REMARK    8  A    between atoms: P_13  and  O_16
REMARK                            x       y       z     vdW  Elec       q    Type
REMARK                         _______ _______ _______ _____ _____    ______ ____
ROOT
ATOM      1  C   UNL     1       6.390   4.798  16.471  0.00  0.00    +0.000 A 
ATOM      2  O   UNL     1       7.195   5.848  16.130  0.00  0.00    +0.000 OA
ATOM      3  C   UNL     1       7.149   6.668  17.213  0.00  0.00    +0.000 A 
ATOM      4  N   UNL     1       7.845   7.806  17.123  0.00  0.00    +0.000 N 
ATOM      5  N   UNL     1       6.393   6.248  18.196  0.00  0.00    +0.000 NA
ATOM      6  C   UNL     1       5.890   5.041  17.734  0.00  0.00    +0.000 A 
ATOM      7  H   UNL     1       8.072   8.117  16.186  0.00  0.00    +0.000 HD
ATOM      8  H   UNL     1       7.572   8.539  17.759  0.00  0.00    +0.000 HD
ENDROOT
BRANCH   1  10
ATOM      9  C   UNL     1       5.881   4.244  14.095  0.00  0.00    +0.000 C 
ATOM     10  C   UNL     1       6.239   3.711  15.473  0.00  0.00    +0.000 C 
ENDBRANCH   1  10
BRANCH   6  11
ATOM     11  C   UNL     1       4.906   4.228  18.429  0.00  0.00    +0.000 C 
ATOM     12  O   UNL     1       5.209   3.383  19.263  0.00  0.00    +0.000 OA
BRANCH  11  13
ATOM     13  O   UNL     1       3.633   4.411  17.982  0.00  0.00    +0.000 OA
BRANCH  13  14
ATOM     14  C   UNL     1       2.898   3.180  17.838  0.00  0.00    +0.000 C 
BRANCH  14  15
ATOM     15  P   UNL     1       1.586   3.260  19.111  0.00  0.00    +0.000 P 
ATOM     16  O   UNL     1       0.731   2.241  18.352  0.00  0.00    +0.000 OA
BRANCH  15  17
ATOM     17  O   UNL     1       2.467   2.344  20.145  0.00  0.00    +0.000 OA
ATOM     18  H   UNL     1       1.899   1.954  20.836  0.00  0.00    +0.000 HD
ENDBRANCH  15  17
BRANCH  15  19
ATOM     19  O   UNL     1       0.345   3.336  20.315  0.00  0.00    +0.000 OA
ATOM     20  H   UNL     1      -0.139   4.164  20.116  0.00  0.00    +0.000 HD
ENDBRANCH  15  19
ENDBRANCH  14  15
ENDBRANCH  13  14
ENDBRANCH  11  13
ENDBRANCH   6  11
TORSDOF 7
ENDMDL
MODEL 5
REMARK VINA RESULT:      -6.1      3.476      5.580
REMARK  Name = 
REMARK  8 active torsions:
REMARK  status: ('A' for Active; 'I' for Inactive)
REMARK    1  A    between atoms: C_1  and  C_2
REMARK    2  A    between atoms: C_2  and  C_3
REMARK    3  A    between atoms: C_8  and  C_9
REMARK    4  A    between atoms: C_9  and  O_11
REMARK    5  A    between atoms: O_11  and  C_12
REMARK    6  A    between atoms: C_12  and  P_13
REMARK    7  A    between atoms: P_13  and  O_15
REMARK    8  A    between atoms: P_13  and  O_16
REMARK                            x       y       z     vdW  Elec       q    Type
REMARK                         _______ _______ _______ _____ _____    ______ ____
ROOT
ATOM      1  C   UNL     1       2.866   4.884  20.091  0.00  0.00    +0.000 A 
ATOM      2  O   UNL     1       2.027   4.492  21.096  0.00  0.00    +0.000 OA
ATOM      3  C   UNL     1       2.340   3.186  21.301  0.00  0.00    +0.000 A 
ATOM      4  N   UNL     1       1.629   2.546  22.235  0.00  0.00    +0.000 N 
ATOM      5  N   UNL     1       3.282   2.712  20.524  0.00  0.00    +0.000 NA
ATOM      6  C   UNL     1       3.632   3.794  19.732  0.00  0.00    +0.000 A 
ATOM      7  H   UNL     1       0.735   2.960  22.475  0.00  0.00    +0.000 HD
ATOM      8  H   UNL     1       1.628   1.541  22.174  0.00  0.00    +0.000 HD
ENDROOT
BRANCH   1  10
ATOM      9  C   UNL     1       2.449   6.395  18.154  0.00  0.00    +0.000 C 
ATOM     10  C   UNL     1       2.765   6.292  19.637  0.00  0.00    +0.000 C 
ENDBRANCH   1  10
BRANCH   6  11
ATOM     11  C   UNL     1       4.576   3.747  18.626  0.00  0.00    +0.000 C 
ATOM     12  O   UNL     1       4.247   3.459  17.483  0.00  0.00    +0.000 OA
BRANCH  11  13
ATOM     13  O   UNL     1       5.870   3.936  19.006  0.00  0.00    +0.000 OA
BRANCH  13  14
ATOM     14  C   UNL     1       6.278   5.317  18.965  0.00  0.00    +0.000 C 
BRANCH  14  15
ATOM     15  P   UNL     1       6.946   5.565  17.280  0.00  0.00    +0.000 P 
ATOM     16  O   UNL     1       7.763   6.776  17.738  0.00  0.00    +0.000 OA
BRANCH  15  17
ATOM     17  O   UNL     1       7.978   4.304  17.452  0.00  0.00    +0.000 OA
ATOM     18  H   UNL     1       7.506   3.454  17.375  0.00  0.00    +0.000 HD
ENDBRANCH  15  17
BRANCH  15  19
ATOM     19  O   UNL     1       7.576   5.799  15.686  0.00  0.00    +0.000 OA
ATOM     20  H   UNL     1       7.832   4.902  15.389  0.00  0.00    +0.000 HD
ENDBRANCH  15  19
ENDBRANCH  14  15
ENDBRANCH  13  14
ENDBRANCH  11  13
ENDBRANCH   6  11
TORSDOF 7
ENDMDL
MODEL 6
REMARK VINA RESULT:      -6.1      1.929      2.319
REMARK  Name = 
REMARK  8 active torsions:
REMARK  status: ('A' for Active; 'I' for Inactive)
REMARK    1  A    between atoms: C_1  and  C_2
REMARK    2  A    between atoms: C_2  and  C_3
REMARK    3  A    between atoms: C_8  and  C_9
REMARK    4  A    between atoms: C_9  and  O_11
REMARK    5  A    between atoms: O_11  and  C_12
REMARK    6  A    between atoms: C_12  and  P_13
REMARK    7  A    between atoms: P_13  and  O_15
REMARK    8  A    between atoms: P_13  and  O_16
REMARK                            x       y       z     vdW  Elec       q    Type
REMARK                         _______ _______ _______ _____ _____    ______ ____
ROOT
ATOM      1  C   UNL     1       6.743   4.767  16.866  0.00  0.00    +0.000 A 
ATOM      2  O   UNL     1       7.360   4.384  15.709  0.00  0.00    +0.000 OA
ATOM      3  C   UNL     1       6.336   4.168  14.842  0.00  0.00    +0.000 A 
ATOM      4  N   UNL     1       6.675   3.749  13.619  0.00  0.00    +0.000 N 
ATOM      5  N   UNL     1       5.139   4.366  15.335  0.00  0.00    +0.000 NA
ATOM      6  C   UNL     1       5.381   4.750  16.645  0.00  0.00    +0.000 A 
ATOM      7  H   UNL     1       7.592   3.326  13.531  0.00  0.00    +0.000 HD
ATOM      8  H   UNL     1       5.946   3.295  13.092  0.00  0.00    +0.000 HD
ENDROOT
BRANCH   1  10
ATOM      9  C   UNL     1       7.695   6.580  18.287  0.00  0.00    +0.000 C 
ATOM     10  C   UNL     1       7.615   5.085  18.023  0.00  0.00    +0.000 C 
ENDBRANCH   1  10
BRANCH   6  11
ATOM     11  C   UNL     1       4.354   4.985  17.648  0.00  0.00    +0.000 C 
ATOM     12  O   UNL     1       3.737   6.038  17.735  0.00  0.00    +0.000 OA
BRANCH  11  13
ATOM     13  O   UNL     1       4.230   3.970  18.548  0.00  0.00    +0.000 OA
BRANCH  13  14
ATOM     14  C   UNL     1       3.431   2.874  18.062  0.00  0.00    +0.000 C 
BRANCH  14  15
ATOM     15  P   UNL     1       1.869   2.969  19.009  0.00  0.00    +0.000 P 
ATOM     16  O   UNL     1       1.136   3.589  17.816  0.00  0.00    +0.000 OA
BRANCH  15  17
ATOM     17  O   UNL     1       1.611   1.359  18.837  0.00  0.00    +0.000 OA
ATOM     18  H   UNL     1       2.454   0.882  18.718  0.00  0.00    +0.000 HD
ENDBRANCH  15  17
BRANCH  15  19
ATOM     19  O   UNL     1       0.392   3.058  19.905  0.00  0.00    +0.000 OA
ATOM     20  H   UNL     1      -0.275   3.349  19.250  0.00  0.00    +0.000 HD
ENDBRANCH  15  19
ENDBRANCH  14  15
ENDBRANCH  13  14
ENDBRANCH  11  13
ENDBRANCH   6  11
TORSDOF 7
ENDMDL
MODEL 7
REMARK VINA RESULT:      -6.1      2.292      2.808
REMARK  Name = 
REMARK  8 active torsions:
REMARK  status: ('A' for Active; 'I' for Inactive)
REMARK    1  A    between atoms: C_1  and  C_2
REMARK    2  A    between atoms: C_2  and  C_3
REMARK    3  A    between atoms: C_8  and  C_9
REMARK    4  A    between atoms: C_9  and  O_11
REMARK    5  A    between atoms: O_11  and  C_12
REMARK    6  A    between atoms: C_12  and  P_13
REMARK    7  A    between atoms: P_13  and  O_15
REMARK    8  A    between atoms: P_13  and  O_16
REMARK                            x       y       z     vdW  Elec       q    Type
REMARK                         _______ _______ _______ _____ _____    ______ ____
ROOT
ATOM      1  C   UNL     1       5.819   5.696  17.313  0.00  0.00    +0.000 A 
ATOM      2  O   UNL     1       7.128   5.688  17.705  0.00  0.00    +0.000 OA
ATOM      3  C   UNL     1       7.070   5.564  19.057  0.00  0.00    +0.000 A 
ATOM      4  N   UNL     1       8.242   5.559  19.701  0.00  0.00    +0.000 N 
ATOM      5  N   UNL     1       5.862   5.502  19.558  0.00  0.00    +0.000 NA
ATOM      6  C   UNL     1       5.039   5.590  18.446  0.00  0.00    +0.000 A 
ATOM      7  H   UNL     1       9.028   5.959  19.201  0.00  0.00    +0.000 HD
ATOM      8  H   UNL     1       8.204   5.784  20.682  0.00  0.00    +0.000 HD
ENDROOT
BRANCH   1  10
ATOM      9  C   UNL     1       6.496   4.965  15.029  0.00  0.00    +0.000 C 
ATOM     10  C   UNL     1       5.550   5.816  15.860  0.00  0.00    +0.000 C 
ENDBRANCH   1  10
BRANCH   6  11
ATOM     11  C   UNL     1       3.587   5.671  18.489  0.00  0.00    +0.000 C 
ATOM     12  O   UNL     1       2.988   6.679  18.840  0.00  0.00    +0.000 OA
BRANCH  11  13
ATOM     13  O   UNL     1       2.967   4.490  18.216  0.00  0.00    +0.000 OA
BRANCH  13  14
ATOM     14  C   UNL     1       2.797   3.655  19.377  0.00  0.00    +0.000 C 
BRANCH  14  15
ATOM     15  P   UNL     1       3.595   2.067  18.940  0.00  0.00    +0.000 P 
ATOM     16  O   UNL     1       3.775   2.511  17.486  0.00  0.00    +0.000 OA
BRANCH  15  17
ATOM     17  O   UNL     1       4.995   2.517  19.666  0.00  0.00    +0.000 OA
ATOM     18  H   UNL     1       5.428   3.237  19.171  0.00  0.00    +0.000 HD
ENDBRANCH  15  17
BRANCH  15  19
ATOM     19  O   UNL     1       4.350   0.566  18.528  0.00  0.00    +0.000 OA
ATOM     20  H   UNL     1       5.267   0.653  18.860  0.00  0.00    +0.000 HD
ENDBRANCH  15  19
ENDBRANCH  14  15
ENDBRANCH  13  14
ENDBRANCH  11  13
ENDBRANCH   6  11
TORSDOF 7
ENDMDL
MODEL 8
REMARK VINA RESULT:      -6.1      3.062      5.651
REMARK  Name = 
REMARK  8 active torsions:
REMARK  status: ('A' for Active; 'I' for Inactive)
REMARK    1  A    between atoms: C_1  and  C_2
REMARK    2  A    between atoms: C_2  and  C_3
REMARK    3  A    between atoms: C_8  and  C_9
REMARK    4  A    between atoms: C_9  and  O_11
REMARK    5  A    between atoms: O_11  and  C_12
REMARK    6  A    between atoms: C_12  and  P_13
REMARK    7  A    between atoms: P_13  and  O_15
REMARK    8  A    between atoms: P_13  and  O_16
REMARK                            x       y       z     vdW  Elec       q    Type
REMARK                         _______ _______ _______ _____ _____    ______ ____
ROOT
ATOM      1  C   UNL     1       2.742   4.250  20.107  0.00  0.00    +0.000 A 
ATOM      2  O   UNL     1       2.144   5.214  20.869  0.00  0.00    +0.000 OA
ATOM      3  C   UNL     1       2.302   6.354  20.148  0.00  0.00    +0.000 A 
ATOM      4  N   UNL     1       1.819   7.474  20.697  0.00  0.00    +0.000 N 
ATOM      5  N   UNL     1       2.946   6.211  19.016  0.00  0.00    +0.000 NA
ATOM      6  C   UNL     1       3.242   4.858  18.974  0.00  0.00    +0.000 A 
ATOM      7  H   UNL     1       1.676   7.452  21.700  0.00  0.00    +0.000 HD
ATOM      8  H   UNL     1       2.199   8.336  20.341  0.00  0.00    +0.000 HD
ENDROOT
BRANCH   1  10
ATOM      9  C   UNL     1       1.582   2.636  21.611  0.00  0.00    +0.000 C 
ATOM     10  C   UNL     1       2.728   2.865  20.637  0.00  0.00    +0.000 C 
ENDBRANCH   1  10
BRANCH   6  11
ATOM     11  C   UNL     1       4.049   4.213  17.950  0.00  0.00    +0.000 C 
ATOM     12  O   UNL     1       3.571   3.729  16.933  0.00  0.00    +0.000 OA
BRANCH  11  13
ATOM     13  O   UNL     1       5.364   4.096  18.286  0.00  0.00    +0.000 OA
BRANCH  13  14
ATOM     14  C   UNL     1       6.095   5.331  18.159  0.00  0.00    +0.000 C 
BRANCH  14  15
ATOM     15  P   UNL     1       6.881   5.249  16.509  0.00  0.00    +0.000 P 
ATOM     16  O   UNL     1       7.545   6.614  16.713  0.00  0.00    +0.000 OA
BRANCH  15  17
ATOM     17  O   UNL     1       8.002   4.180  17.044  0.00  0.00    +0.000 OA
ATOM     18  H   UNL     1       8.539   4.568  17.760  0.00  0.00    +0.000 HD
ENDBRANCH  15  17
BRANCH  15  19
ATOM     19  O   UNL     1       7.624   5.172  14.949  0.00  0.00    +0.000 OA
ATOM     20  H   UNL     1       7.515   6.072  14.580  0.00  0.00    +0.000 HD
ENDBRANCH  15  19
ENDBRANCH  14  15
ENDBRANCH  13  14
ENDBRANCH  11  13
ENDBRANCH   6  11
TORSDOF 7
ENDMDL
MODEL 9
REMARK VINA RESULT:      -6.1      3.271      5.232
REMARK  Name = 
REMARK  8 active torsions:
REMARK  status: ('A' for Active; 'I' for Inactive)
REMARK    1  A    between atoms: C_1  and  C_2
REMARK    2  A    between atoms: C_2  and  C_3
REMARK    3  A    between atoms: C_8  and  C_9
REMARK    4  A    between atoms: C_9  and  O_11
REMARK    5  A    between atoms: O_11  and  C_12
REMARK    6  A    between atoms: C_12  and  P_13
REMARK    7  A    between atoms: P_13  and  O_15
REMARK    8  A    between atoms: P_13  and  O_16
REMARK                            x       y       z     vdW  Elec       q    Type
REMARK                         _______ _______ _______ _____ _____    ______ ____
ROOT
ATOM      1  C   UNL     1       2.718   4.654  19.208  0.00  0.00    +0.000 A 
ATOM      2  O   UNL     1       1.586   3.889  19.180  0.00  0.00    +0.000 OA
ATOM      3  C   UNL     1       2.008   2.686  18.709  0.00  0.00    +0.000 A 
ATOM      4  N   UNL     1       1.068   1.747  18.558  0.00  0.00    +0.000 N 
ATOM      5  N   UNL     1       3.285   2.617  18.428  0.00  0.00    +0.000 NA
ATOM      6  C   UNL     1       3.761   3.881  18.740  0.00  0.00    +0.000 A 
ATOM      7  H   UNL     1       0.113   2.080  18.490  0.00  0.00    +0.000 HD
ATOM      8  H   UNL     1       1.299   0.992  17.933  0.00  0.00    +0.000 HD
ENDROOT
BRANCH   1  10
ATOM      9  C   UNL     1       2.517   7.049  18.548  0.00  0.00    +0.000 C 
ATOM     10  C   UNL     1       2.579   6.049  19.692  0.00  0.00    +0.000 C 
ENDBRANCH   1  10
BRANCH   6  11
ATOM     11  C   UNL     1       5.120   4.342  18.502  0.00  0.00    +0.000 C 
ATOM     12  O   UNL     1       6.011   4.242  19.335  0.00  0.00    +0.000 OA
BRANCH  11  13
ATOM     13  O   UNL     1       5.273   4.996  17.318  0.00  0.00    +0.000 OA
BRANCH  13  14
ATOM     14  C   UNL     1       5.310   4.113  16.180  0.00  0.00    +0.000 C 
BRANCH  14  15
ATOM     15  P   UNL     1       6.587   4.816  15.075  0.00  0.00    +0.000 P 
ATOM     16  O   UNL     1       7.695   4.485  16.078  0.00  0.00    +0.000 OA
BRANCH  15  17
ATOM     17  O   UNL     1       6.533   3.501  14.098  0.00  0.00    +0.000 OA
ATOM     18  H   UNL     1       7.371   3.003  14.138  0.00  0.00    +0.000 HD
ENDBRANCH  15  17
BRANCH  15  19
ATOM     19  O   UNL     1       7.794   5.481  14.029  0.00  0.00    +0.000 OA
ATOM     20  H   UNL     1       7.347   5.566  13.161  0.00  0.00    +0.000 HD
ENDBRANCH  15  19
ENDBRANCH  14  15
ENDBRANCH  13  14
ENDBRANCH  11  13
ENDBRANCH   6  11
TORSDOF 7
ENDMDL
