MODEL 1
REMARK VINA RESULT:      -7.5      0.000      0.000
REMARK  Name = 
REMARK  4 active torsions:
REMARK  status: ('A' for Active; 'I' for Inactive)
REMARK    1  A    between atoms: C_1  and  C_2
REMARK    2  A    between atoms: C_6  and  O_7
REMARK    3  A    between atoms: O_7  and  C_8
REMARK    4  A    between atoms: C_8  and  C_9
REMARK                            x       y       z     vdW  Elec       q    Type
REMARK                         _______ _______ _______ _____ _____    ______ ____
ROOT
ATOM      1  C   UNL     1       5.080   3.938  17.600  0.00  0.00    +0.000 A 
ATOM      2  N   UNL     1       3.846   4.057  17.148  0.00  0.00    +0.000 NA
ATOM      3  C   UNL     1       3.035   3.621  18.169  0.00  0.00    +0.000 A 
ATOM      4  C   UNL     1       1.638   3.534  18.231  0.00  0.00    +0.000 A 
ATOM      5  C   UNL     1       1.047   3.049  19.404  0.00  0.00    +0.000 A 
ATOM      6  C   UNL     1       1.831   2.657  20.492  0.00  0.00    +0.000 A 
ATOM      7  C   UNL     1       3.229   2.737  20.448  0.00  0.00    +0.000 A 
ATOM      8  C   UNL     1       3.790   3.225  19.268  0.00  0.00    +0.000 A 
ATOM      9  N   UNL     1       5.085   3.440  18.880  0.00  0.00    +0.000 N 
ATOM     10  H   UNL     1       5.918   3.270  19.425  0.00  0.00    +0.000 HD
ENDROOT
BRANCH   1  11
ATOM     11  C   UNL     1       6.331   4.281  16.864  0.00  0.00    +0.000 C 
BRANCH  11  12
ATOM     12  O   UNL     1       5.987   5.189  15.812  0.00  0.00    +0.000 OA
BRANCH  12  18
ATOM     13  C   UNL     1       5.285   2.510  11.684  0.00  0.00    +0.000 C 
ATOM     14  C   UNL     1       6.046   3.529  12.479  0.00  0.00    +0.000 A 
ATOM     15  C   UNL     1       7.180   4.158  11.954  0.00  0.00    +0.000 A 
ATOM     16  C   UNL     1       7.875   5.097  12.714  0.00  0.00    +0.000 A 
ATOM     17  C   UNL     1       7.441   5.413  14.002  0.00  0.00    +0.000 A 
ATOM     18  C   UNL     1       6.311   4.795  14.541  0.00  0.00    +0.000 A 
ATOM     19  C   UNL     1       5.618   3.854  13.776  0.00  0.00    +0.000 A 
ENDBRANCH  12  18
ENDBRANCH  11  12
ENDBRANCH   1  11
TORSDOF 3
ENDMDL
MODEL 2
REMARK VINA RESULT:      -7.4      1.533      6.921
REMARK  Name = 
REMARK  4 active torsions:
REMARK  status: ('A' for Active; 'I' for Inactive)
REMARK    1  A    between atoms: C_1  and  C_2
REMARK    2  A    between atoms: C_6  and  O_7
REMARK    3  A    between atoms: O_7  and  C_8
REMARK    4  A    between atoms: C_8  and  C_9
REMARK                            x       y       z     vdW  Elec       q    Type
REMARK                         _______ _______ _______ _____ _____    ______ ____
ROOT
ATOM      1  C   UNL     1       6.237   4.767  16.485  0.00  0.00    +0.000 A 
ATOM      2  N   UNL     1       7.176   5.424  15.830  0.00  0.00    +0.000 NA
ATOM      3  C   UNL     1       7.091   4.989  14.529  0.00  0.00    +0.000 A 
ATOM      4  C   UNL     1       7.849   5.357  13.409  0.00  0.00    +0.000 A 
ATOM      5  C   UNL     1       7.559   4.759  12.177  0.00  0.00    +0.000 A 
ATOM      6  C   UNL     1       6.538   3.812  12.063  0.00  0.00    +0.000 A 
ATOM      7  C   UNL     1       5.771   3.432  13.171  0.00  0.00    +0.000 A 
ATOM      8  C   UNL     1       6.081   4.045  14.386  0.00  0.00    +0.000 A 
ATOM      9  N   UNL     1       5.553   3.925  15.643  0.00  0.00    +0.000 N 
ATOM     10  H   UNL     1       4.789   3.328  15.926  0.00  0.00    +0.000 HD
ENDROOT
BRANCH   1  11
ATOM     11  C   UNL     1       5.921   4.885  17.938  0.00  0.00    +0.000 C 
BRANCH  11  12
ATOM     12  O   UNL     1       4.705   5.629  18.065  0.00  0.00    +0.000 OA
BRANCH  12  18
ATOM     13  C   UNL     1       2.190   3.303  21.667  0.00  0.00    +0.000 C 
ATOM     14  C   UNL     1       2.318   3.792  20.254  0.00  0.00    +0.000 A 
ATOM     15  C   UNL     1       1.307   3.566  19.314  0.00  0.00    +0.000 A 
ATOM     16  C   UNL     1       1.451   4.023  18.006  0.00  0.00    +0.000 A 
ATOM     17  C   UNL     1       2.607   4.711  17.630  0.00  0.00    +0.000 A 
ATOM     18  C   UNL     1       3.625   4.946  18.556  0.00  0.00    +0.000 A 
ATOM     19  C   UNL     1       3.475   4.484  19.865  0.00  0.00    +0.000 A 
ENDBRANCH  12  18
ENDBRANCH  11  12
ENDBRANCH   1  11
TORSDOF 3
ENDMDL
MODEL 3
REMARK VINA RESULT:      -7.4      1.818      7.026
REMARK  Name = 
REMARK  4 active torsions:
REMARK  status: ('A' for Active; 'I' for Inactive)
REMARK    1  A    between atoms: C_1  and  C_2
REMARK    2  A    between atoms: C_6  and  O_7
REMARK    3  A    between atoms: O_7  and  C_8
REMARK    4  A    between atoms: C_8  and  C_9
REMARK                            x       y       z     vdW  Elec       q    Type
REMARK                         _______ _______ _______ _____ _____    ______ ____
ROOT
ATOM      1  C   UNL     1       6.294   4.937  16.463  0.00  0.00    +0.000 A 
ATOM      2  N   UNL     1       7.234   5.498  15.726  0.00  0.00    +0.000 NA
ATOM      3  C   UNL     1       7.072   4.981  14.464  0.00  0.00    +0.000 A 
ATOM      4  C   UNL     1       7.797   5.234  13.291  0.00  0.00    +0.000 A 
ATOM      5  C   UNL     1       7.425   4.568  12.116  0.00  0.00    +0.000 A 
ATOM      6  C   UNL     1       6.355   3.669  12.110  0.00  0.00    +0.000 A 
ATOM      7  C   UNL     1       5.619   3.406  13.272  0.00  0.00    +0.000 A 
ATOM      8  C   UNL     1       6.011   4.084  14.427  0.00  0.00    +0.000 A 
ATOM      9  N   UNL     1       5.533   4.077  15.710  0.00  0.00    +0.000 N 
ATOM     10  H   UNL     1       4.754   3.540  16.065  0.00  0.00    +0.000 HD
ENDROOT
BRANCH   1  11
ATOM     11  C   UNL     1       6.048   5.169  17.916  0.00  0.00    +0.000 C 
BRANCH  11  12
ATOM     12  O   UNL     1       5.308   4.053  18.420  0.00  0.00    +0.000 OA
BRANCH  12  18
ATOM     13  C   UNL     1       1.516   2.872  21.409  0.00  0.00    +0.000 C 
ATOM     14  C   UNL     1       2.290   3.864  20.593  0.00  0.00    +0.000 A 
ATOM     15  C   UNL     1       1.884   5.200  20.500  0.00  0.00    +0.000 A 
ATOM     16  C   UNL     1       2.615   6.102  19.730  0.00  0.00    +0.000 A 
ATOM     17  C   UNL     1       3.757   5.676  19.049  0.00  0.00    +0.000 A 
ATOM     18  C   UNL     1       4.176   4.347  19.132  0.00  0.00    +0.000 A 
ATOM     19  C   UNL     1       3.439   3.446  19.905  0.00  0.00    +0.000 A 
ENDBRANCH  12  18
ENDBRANCH  11  12
ENDBRANCH   1  11
TORSDOF 3
ENDMDL
MODEL 4
REMARK VINA RESULT:      -7.4      2.493      4.108
REMARK  Name = 
REMARK  4 active torsions:
REMARK  status: ('A' for Active; 'I' for Inactive)
REMARK    1  A    between atoms: C_1  and  C_2
REMARK    2  A    between atoms: C_6  and  O_7
REMARK    3  A    between atoms: O_7  and  C_8
REMARK    4  A    between atoms: C_8  and  C_9
REMARK                            x       y       z     vdW  Elec       q    Type
REMARK                         _______ _______ _______ _____ _____    ______ ____
ROOT
ATOM      1  C   UNL     1       4.057   4.243  17.070  0.00  0.00    +0.000 A 
ATOM      2  N   UNL     1       3.704   3.037  17.474  0.00  0.00    +0.000 NA
ATOM      3  C   UNL     1       2.878   3.237  18.554  0.00  0.00    +0.000 A 
ATOM      4  C   UNL     1       2.219   2.302  19.364  0.00  0.00    +0.000 A 
ATOM      5  C   UNL     1       1.422   2.770  20.417  0.00  0.00    +0.000 A 
ATOM      6  C   UNL     1       1.287   4.140  20.658  0.00  0.00    +0.000 A 
ATOM      7  C   UNL     1       1.937   5.088  19.859  0.00  0.00    +0.000 A 
ATOM      8  C   UNL     1       2.723   4.593  18.817  0.00  0.00    +0.000 A 
ATOM      9  N   UNL     1       3.481   5.209  17.858  0.00  0.00    +0.000 N 
ATOM     10  H   UNL     1       3.607   6.203  17.730  0.00  0.00    +0.000 HD
ENDROOT
BRANCH   1  11
ATOM     11  C   UNL     1       4.954   4.567  15.924  0.00  0.00    +0.000 C 
BRANCH  11  12
ATOM     12  O   UNL     1       6.297   4.260  16.315  0.00  0.00    +0.000 OA
BRANCH  12  18
ATOM     13  C   UNL     1       7.823   8.833  17.528  0.00  0.00    +0.000 C 
ATOM     14  C   UNL     1       7.692   7.367  17.820  0.00  0.00    +0.000 A 
ATOM     15  C   UNL     1       8.214   6.812  18.993  0.00  0.00    +0.000 A 
ATOM     16  C   UNL     1       8.087   5.447  19.240  0.00  0.00    +0.000 A 
ATOM     17  C   UNL     1       7.437   4.628  18.316  0.00  0.00    +0.000 A 
ATOM     18  C   UNL     1       6.909   5.165  17.140  0.00  0.00    +0.000 A 
ATOM     19  C   UNL     1       7.041   6.534  16.897  0.00  0.00    +0.000 A 
ENDBRANCH  12  18
ENDBRANCH  11  12
ENDBRANCH   1  11
TORSDOF 3
ENDMDL
MODEL 5
REMARK VINA RESULT:      -7.4      1.516      6.867
REMARK  Name = 
REMARK  4 active torsions:
REMARK  status: ('A' for Active; 'I' for Inactive)
REMARK    1  A    between atoms: C_1  and  C_2
REMARK    2  A    between atoms: C_6  and  O_7
REMARK    3  A    between atoms: O_7  and  C_8
REMARK    4  A    between atoms: C_8  and  C_9
REMARK                            x       y       z     vdW  Elec       q    Type
REMARK                         _______ _______ _______ _____ _____    ______ ____
ROOT
ATOM      1  C   UNL     1       6.217   4.647  16.485  0.00  0.00    +0.000 A 
ATOM      2  N   UNL     1       5.573   3.831  15.673  0.00  0.00    +0.000 NA
ATOM      3  C   UNL     1       6.128   4.031  14.431  0.00  0.00    +0.000 A 
ATOM      4  C   UNL     1       5.824   3.425  13.205  0.00  0.00    +0.000 A 
ATOM      5  C   UNL     1       6.547   3.810  12.069  0.00  0.00    +0.000 A 
ATOM      6  C   UNL     1       7.550   4.779  12.153  0.00  0.00    +0.000 A 
ATOM      7  C   UNL     1       7.868   5.395  13.370  0.00  0.00    +0.000 A 
ATOM      8  C   UNL     1       7.132   4.990  14.485  0.00  0.00    +0.000 A 
ATOM      9  N   UNL     1       7.169   5.363  15.802  0.00  0.00    +0.000 N 
ATOM     10  H   UNL     1       7.785   6.045  16.223  0.00  0.00    +0.000 HD
ENDROOT
BRANCH   1  11
ATOM     11  C   UNL     1       5.984   4.809  17.949  0.00  0.00    +0.000 C 
BRANCH  11  12
ATOM     12  O   UNL     1       4.793   5.585  18.122  0.00  0.00    +0.000 OA
BRANCH  12  18
ATOM     13  C   UNL     1       2.226   3.126  21.595  0.00  0.00    +0.000 C 
ATOM     14  C   UNL     1       2.359   3.701  20.216  0.00  0.00    +0.000 A 
ATOM     15  C   UNL     1       1.331   3.575  19.276  0.00  0.00    +0.000 A 
ATOM     16  C   UNL     1       1.480   4.111  17.999  0.00  0.00    +0.000 A 
ATOM     17  C   UNL     1       2.657   4.777  17.654  0.00  0.00    +0.000 A 
ATOM     18  C   UNL     1       3.692   4.912  18.580  0.00  0.00    +0.000 A 
ATOM     19  C   UNL     1       3.538   4.372  19.859  0.00  0.00    +0.000 A 
ENDBRANCH  12  18
ENDBRANCH  11  12
ENDBRANCH   1  11
TORSDOF 3
ENDMDL
MODEL 6
REMARK VINA RESULT:      -7.4      1.164      1.517
REMARK  Name = 
REMARK  4 active torsions:
REMARK  status: ('A' for Active; 'I' for Inactive)
REMARK    1  A    between atoms: C_1  and  C_2
REMARK    2  A    between atoms: C_6  and  O_7
REMARK    3  A    between atoms: O_7  and  C_8
REMARK    4  A    between atoms: C_8  and  C_9
REMARK                            x       y       z     vdW  Elec       q    Type
REMARK                         _______ _______ _______ _____ _____    ______ ____
ROOT
ATOM      1  C   UNL     1       4.097   5.072  17.458  0.00  0.00    +0.000 A 
ATOM      2  N   UNL     1       3.860   5.517  18.677  0.00  0.00    +0.000 NA
ATOM      3  C   UNL     1       2.843   4.733  19.166  0.00  0.00    +0.000 A 
ATOM      4  C   UNL     1       2.201   4.769  20.411  0.00  0.00    +0.000 A 
ATOM      5  C   UNL     1       1.179   3.846  20.666  0.00  0.00    +0.000 A 
ATOM      6  C   UNL     1       0.803   2.909  19.700  0.00  0.00    +0.000 A 
ATOM      7  C   UNL     1       1.433   2.858  18.451  0.00  0.00    +0.000 A 
ATOM      8  C   UNL     1       2.449   3.788  18.225  0.00  0.00    +0.000 A 
ATOM      9  N   UNL     1       3.264   4.024  17.151  0.00  0.00    +0.000 N 
ATOM     10  H   UNL     1       3.270   3.525  16.273  0.00  0.00    +0.000 HD
ENDROOT
BRANCH   1  11
ATOM     11  C   UNL     1       5.117   5.596  16.504  0.00  0.00    +0.000 C 
BRANCH  11  12
ATOM     12  O   UNL     1       5.981   4.514  16.145  0.00  0.00    +0.000 OA
BRANCH  12  18
ATOM     13  C   UNL     1       5.145   2.698  11.594  0.00  0.00    +0.000 C 
ATOM     14  C   UNL     1       5.932   3.544  12.550  0.00  0.00    +0.000 A 
ATOM     15  C   UNL     1       7.048   4.271  12.124  0.00  0.00    +0.000 A 
ATOM     16  C   UNL     1       7.769   5.046  13.032  0.00  0.00    +0.000 A 
ATOM     17  C   UNL     1       7.376   5.098  14.370  0.00  0.00    +0.000 A 
ATOM     18  C   UNL     1       6.264   4.380  14.812  0.00  0.00    +0.000 A 
ATOM     19  C   UNL     1       5.546   3.605  13.898  0.00  0.00    +0.000 A 
ENDBRANCH  12  18
ENDBRANCH  11  12
ENDBRANCH   1  11
TORSDOF 3
ENDMDL
MODEL 7
REMARK VINA RESULT:      -7.3      2.049      3.005
REMARK  Name = 
REMARK  4 active torsions:
REMARK  status: ('A' for Active; 'I' for Inactive)
REMARK    1  A    between atoms: C_1  and  C_2
REMARK    2  A    between atoms: C_6  and  O_7
REMARK    3  A    between atoms: O_7  and  C_8
REMARK    4  A    between atoms: C_8  and  C_9
REMARK                            x       y       z     vdW  Elec       q    Type
REMARK                         _______ _______ _______ _____ _____    ______ ____
ROOT
ATOM      1  C   UNL     1       2.887   6.213  18.358  0.00  0.00    +0.000 A 
ATOM      2  N   UNL     1       2.188   5.200  17.882  0.00  0.00    +0.000 NA
ATOM      3  C   UNL     1       1.916   4.398  18.964  0.00  0.00    +0.000 A 
ATOM      4  C   UNL     1       1.205   3.193  19.031  0.00  0.00    +0.000 A 
ATOM      5  C   UNL     1       1.068   2.562  20.274  0.00  0.00    +0.000 A 
ATOM      6  C   UNL     1       1.630   3.121  21.426  0.00  0.00    +0.000 A 
ATOM      7  C   UNL     1       2.343   4.325  21.378  0.00  0.00    +0.000 A 
ATOM      8  C   UNL     1       2.463   4.931  20.126  0.00  0.00    +0.000 A 
ATOM      9  N   UNL     1       3.071   6.085  19.713  0.00  0.00    +0.000 N 
ATOM     10  H   UNL     1       3.574   6.746  20.288  0.00  0.00    +0.000 HD
ENDROOT
BRANCH   1  11
ATOM     11  C   UNL     1       3.427   7.364  17.577  0.00  0.00    +0.000 C 
BRANCH  11  12
ATOM     12  O   UNL     1       4.849   7.376  17.738  0.00  0.00    +0.000 OA
BRANCH  12  18
ATOM     13  C   UNL     1       5.750   4.240  13.988  0.00  0.00    +0.000 C 
ATOM     14  C   UNL     1       6.055   4.784  15.353  0.00  0.00    +0.000 A 
ATOM     15  C   UNL     1       7.094   4.258  16.127  0.00  0.00    +0.000 A 
ATOM     16  C   UNL     1       7.354   4.774  17.395  0.00  0.00    +0.000 A 
ATOM     17  C   UNL     1       6.577   5.819  17.896  0.00  0.00    +0.000 A 
ATOM     18  C   UNL     1       5.537   6.356  17.137  0.00  0.00    +0.000 A 
ATOM     19  C   UNL     1       5.280   5.835  15.867  0.00  0.00    +0.000 A 
ENDBRANCH  12  18
ENDBRANCH  11  12
ENDBRANCH   1  11
TORSDOF 3
ENDMDL
MODEL 8
REMARK VINA RESULT:      -7.3      1.740      6.656
REMARK  Name = 
REMARK  4 active torsions:
REMARK  status: ('A' for Active; 'I' for Inactive)
REMARK    1  A    between atoms: C_1  and  C_2
REMARK    2  A    between atoms: C_6  and  O_7
REMARK    3  A    between atoms: O_7  and  C_8
REMARK    4  A    between atoms: C_8  and  C_9
REMARK                            x       y       z     vdW  Elec       q    Type
REMARK                         _______ _______ _______ _____ _____    ______ ____
ROOT
ATOM      1  C   UNL     1       6.519   4.795  16.450  0.00  0.00    +0.000 A 
ATOM      2  N   UNL     1       5.775   3.945  15.768  0.00  0.00    +0.000 NA
ATOM      3  C   UNL     1       6.202   4.043  14.465  0.00  0.00    +0.000 A 
ATOM      4  C   UNL     1       5.758   3.365  13.322  0.00  0.00    +0.000 A 
ATOM      5  C   UNL     1       6.366   3.651  12.093  0.00  0.00    +0.000 A 
ATOM      6  C   UNL     1       7.393   4.594  12.006  0.00  0.00    +0.000 A 
ATOM      7  C   UNL     1       7.850   5.281  13.137  0.00  0.00    +0.000 A 
ATOM      8  C   UNL     1       7.226   4.975  14.347  0.00  0.00    +0.000 A 
ATOM      9  N   UNL     1       7.410   5.435  15.623  0.00  0.00    +0.000 N 
ATOM     10  H   UNL     1       8.081   6.126  15.930  0.00  0.00    +0.000 HD
ENDROOT
BRANCH   1  11
ATOM     11  C   UNL     1       6.444   5.063  17.915  0.00  0.00    +0.000 C 
BRANCH  11  12
ATOM     12  O   UNL     1       5.790   3.949  18.533  0.00  0.00    +0.000 OA
BRANCH  12  18
ATOM     13  C   UNL     1       1.048   2.483  18.805  0.00  0.00    +0.000 C 
ATOM     14  C   UNL     1       2.130   3.495  19.043  0.00  0.00    +0.000 A 
ATOM     15  C   UNL     1       1.848   4.731  19.634  0.00  0.00    +0.000 A 
ATOM     16  C   UNL     1       2.867   5.659  19.839  0.00  0.00    +0.000 A 
ATOM     17  C   UNL     1       4.174   5.356  19.455  0.00  0.00    +0.000 A 
ATOM     18  C   UNL     1       4.473   4.127  18.865  0.00  0.00    +0.000 A 
ATOM     19  C   UNL     1       3.447   3.201  18.661  0.00  0.00    +0.000 A 
ENDBRANCH  12  18
ENDBRANCH  11  12
ENDBRANCH   1  11
TORSDOF 3
ENDMDL
MODEL 9
REMARK VINA RESULT:      -7.3      1.143      1.184
REMARK  Name = 
REMARK  4 active torsions:
REMARK  status: ('A' for Active; 'I' for Inactive)
REMARK    1  A    between atoms: C_1  and  C_2
REMARK    2  A    between atoms: C_6  and  O_7
REMARK    3  A    between atoms: O_7  and  C_8
REMARK    4  A    between atoms: C_8  and  C_9
REMARK                            x       y       z     vdW  Elec       q    Type
REMARK                         _______ _______ _______ _____ _____    ______ ____
ROOT
ATOM      1  C   UNL     1       4.256   4.986  17.399  0.00  0.00    +0.000 A 
ATOM      2  N   UNL     1       3.541   3.909  17.132  0.00  0.00    +0.000 NA
ATOM      3  C   UNL     1       2.644   3.797  18.167  0.00  0.00    +0.000 A 
ATOM      4  C   UNL     1       1.648   2.837  18.390  0.00  0.00    +0.000 A 
ATOM      5  C   UNL     1       0.854   2.948  19.539  0.00  0.00    +0.000 A 
ATOM      6  C   UNL     1       1.050   3.992  20.446  0.00  0.00    +0.000 A 
ATOM      7  C   UNL     1       2.040   4.960  20.240  0.00  0.00    +0.000 A 
ATOM      8  C   UNL     1       2.815   4.825  19.087  0.00  0.00    +0.000 A 
ATOM      9  N   UNL     1       3.844   5.567  18.573  0.00  0.00    +0.000 N 
ATOM     10  H   UNL     1       4.246   6.405  18.970  0.00  0.00    +0.000 HD
ENDROOT
BRANCH   1  11
ATOM     11  C   UNL     1       5.370   5.538  16.574  0.00  0.00    +0.000 C 
BRANCH  11  12
ATOM     12  O   UNL     1       6.185   4.443  16.145  0.00  0.00    +0.000 OA
BRANCH  12  18
ATOM     13  C   UNL     1       5.323   2.646  11.591  0.00  0.00    +0.000 C 
ATOM     14  C   UNL     1       6.075   3.537  12.535  0.00  0.00    +0.000 A 
ATOM     15  C   UNL     1       7.113   4.359  12.083  0.00  0.00    +0.000 A 
ATOM     16  C   UNL     1       7.803   5.173  12.980  0.00  0.00    +0.000 A 
ATOM     17  C   UNL     1       7.459   5.170  14.332  0.00  0.00    +0.000 A 
ATOM     18  C   UNL     1       6.426   4.356  14.800  0.00  0.00    +0.000 A 
ATOM     19  C   UNL     1       5.738   3.542  13.897  0.00  0.00    +0.000 A 
ENDBRANCH  12  18
ENDBRANCH  11  12
ENDBRANCH   1  11
TORSDOF 3
ENDMDL
