MODEL 1
REMARK VINA RESULT:      -7.4      0.000      0.000
REMARK  Name = 
REMARK  8 active torsions:
REMARK  status: ('A' for Active; 'I' for Inactive)
REMARK    1  A    between atoms: C_1  and  C_2
REMARK    2  A    between atoms: C_2  and  C_3
REMARK    3  A    between atoms: C_2  and  C_5
REMARK    4  A    between atoms: C_5  and  N_6
REMARK    5  A    between atoms: N_6  and  S_7
REMARK    6  A    between atoms: S_7  and  C_10
REMARK    7  A    between atoms: C_12  and  C_13
REMARK    8  A    between atoms: C_13  and  O_15
REMARK                            x       y       z     vdW  Elec       q    Type
REMARK                         _______ _______ _______ _____ _____    ______ ____
ROOT
ATOM      1  C   UNL     1       4.810   5.372  17.493  0.00  0.00    +0.000 A 
ATOM      2  C   UNL     1       5.070   4.046  17.895  0.00  0.00    +0.000 A 
ATOM      3  C   UNL     1       4.313   3.465  18.912  0.00  0.00    +0.000 A 
ATOM      4  C   UNL     1       3.313   4.231  19.535  0.00  0.00    +0.000 A 
ATOM      5  C   UNL     1       3.056   5.559  19.155  0.00  0.00    +0.000 A 
ATOM      6  C   UNL     1       3.788   6.144  18.102  0.00  0.00    +0.000 A 
ATOM      7  C   UNL     1       3.541   7.592  17.728  0.00  0.00    +0.000 C 
ATOM      8  C   UNL     1       2.220   8.162  18.243  0.00  0.00    +0.000 C 
ATOM      9  C   UNL     1       2.036   7.815  19.710  0.00  0.00    +0.000 C 
ATOM     10  C   UNL     1       1.952   6.302  19.875  0.00  0.00    +0.000 C 
ENDROOT
BRANCH   1  11
ATOM     11  S   UNL     1       5.904   6.083  16.266  0.00  0.00    +0.000 S 
ATOM     12  O   UNL     1       6.908   6.861  16.927  0.00  0.00    +0.000 OA
ATOM     13  O   UNL     1       5.100   6.647  15.201  0.00  0.00    +0.000 OA
BRANCH  11  14
ATOM     14  N   UNL     1       6.672   4.712  15.584  0.00  0.00    +0.000 NA
ATOM     15  H   UNL     1       7.582   5.036  15.246  0.00  0.00    +0.000 HD
BRANCH  14  16
ATOM     16  C   UNL     1       5.877   4.024  14.536  0.00  0.00    +0.000 C 
BRANCH  16  18
ATOM     17  C   UNL     1       6.489   3.193  12.223  0.00  0.00    +0.000 C 
ATOM     18  C   UNL     1       6.291   4.419  13.118  0.00  0.00    +0.000 C 
BRANCH  18  19
ATOM     19  C   UNL     1       7.615   5.161  13.215  0.00  0.00    +0.000 C 
ATOM     20  N   UNL     1       8.713   5.776  13.294  0.00  0.00    +0.000 NA
ENDBRANCH  18  19
ENDBRANCH  16  18
ENDBRANCH  14  16
ENDBRANCH  11  14
ENDBRANCH   1  11
BRANCH   3  21
ATOM     21  C   UNL     1       4.536   2.083  19.428  0.00  0.00    +0.000 C 
ATOM     22  O   UNL     1       5.034   1.879  20.523  0.00  0.00    +0.000 OA
BRANCH  21  23
ATOM     23  O   UNL     1       4.109   1.081  18.636  0.00  0.00    +0.000 OA
ATOM     24  H   UNL     1       4.237   0.165  18.937  0.00  0.00    +0.000 HD
ENDBRANCH  21  23
ENDBRANCH   3  21
TORSDOF 7
ENDMDL
MODEL 2
REMARK VINA RESULT:      -7.3      1.238      1.479
REMARK  Name = 
REMARK  8 active torsions:
REMARK  status: ('A' for Active; 'I' for Inactive)
REMARK    1  A    between atoms: C_1  and  C_2
REMARK    2  A    between atoms: C_2  and  C_3
REMARK    3  A    between atoms: C_2  and  C_5
REMARK    4  A    between atoms: C_5  and  N_6
REMARK    5  A    between atoms: N_6  and  S_7
REMARK    6  A    between atoms: S_7  and  C_10
REMARK    7  A    between atoms: C_12  and  C_13
REMARK    8  A    between atoms: C_13  and  O_15
REMARK                            x       y       z     vdW  Elec       q    Type
REMARK                         _______ _______ _______ _____ _____    ______ ____
ROOT
ATOM      1  C   UNL     1       4.834   5.259  17.424  0.00  0.00    +0.000 A 
ATOM      2  C   UNL     1       5.094   3.934  17.830  0.00  0.00    +0.000 A 
ATOM      3  C   UNL     1       4.351   3.364  18.864  0.00  0.00    +0.000 A 
ATOM      4  C   UNL     1       3.365   4.139  19.498  0.00  0.00    +0.000 A 
ATOM      5  C   UNL     1       3.108   5.465  19.113  0.00  0.00    +0.000 A 
ATOM      6  C   UNL     1       3.826   6.040  18.045  0.00  0.00    +0.000 A 
ATOM      7  C   UNL     1       3.579   7.486  17.665  0.00  0.00    +0.000 C 
ATOM      8  C   UNL     1       2.270   8.066  18.198  0.00  0.00    +0.000 C 
ATOM      9  C   UNL     1       2.108   7.729  19.670  0.00  0.00    +0.000 C 
ATOM     10  C   UNL     1       2.019   6.218  19.846  0.00  0.00    +0.000 C 
ENDROOT
BRANCH   1  11
ATOM     11  S   UNL     1       5.911   5.956  16.175  0.00  0.00    +0.000 S 
ATOM     12  O   UNL     1       7.059   6.527  16.811  0.00  0.00    +0.000 OA
ATOM     13  O   UNL     1       5.107   6.728  15.249  0.00  0.00    +0.000 OA
BRANCH  11  14
ATOM     14  N   UNL     1       6.433   4.582  15.295  0.00  0.00    +0.000 NA
ATOM     15  H   UNL     1       7.344   4.828  14.899  0.00  0.00    +0.000 HD
BRANCH  14  16
ATOM     16  C   UNL     1       5.467   4.109  14.272  0.00  0.00    +0.000 C 
BRANCH  16  18
ATOM     17  C   UNL     1       7.155   4.529  12.431  0.00  0.00    +0.000 C 
ATOM     18  C   UNL     1       6.149   3.542  13.026  0.00  0.00    +0.000 C 
BRANCH  18  19
ATOM     19  C   UNL     1       5.067   3.277  11.990  0.00  0.00    +0.000 C 
ATOM     20  N   UNL     1       4.171   3.057  11.131  0.00  0.00    +0.000 NA
ENDBRANCH  18  19
ENDBRANCH  16  18
ENDBRANCH  14  16
ENDBRANCH  11  14
ENDBRANCH   1  11
BRANCH   3  21
ATOM     21  C   UNL     1       4.576   1.983  19.385  0.00  0.00    +0.000 C 
ATOM     22  O   UNL     1       5.024   1.784  20.502  0.00  0.00    +0.000 OA
BRANCH  21  23
ATOM     23  O   UNL     1       4.208   0.977  18.569  0.00  0.00    +0.000 OA
ATOM     24  H   UNL     1       4.258   1.117  17.609  0.00  0.00    +0.000 HD
ENDBRANCH  21  23
ENDBRANCH   3  21
TORSDOF 7
ENDMDL
MODEL 3
REMARK VINA RESULT:      -7.3      2.799      4.946
REMARK  Name = 
REMARK  8 active torsions:
REMARK  status: ('A' for Active; 'I' for Inactive)
REMARK    1  A    between atoms: C_1  and  C_2
REMARK    2  A    between atoms: C_2  and  C_3
REMARK    3  A    between atoms: C_2  and  C_5
REMARK    4  A    between atoms: C_5  and  N_6
REMARK    5  A    between atoms: N_6  and  S_7
REMARK    6  A    between atoms: S_7  and  C_10
REMARK    7  A    between atoms: C_12  and  C_13
REMARK    8  A    between atoms: C_13  and  O_15
REMARK                            x       y       z     vdW  Elec       q    Type
REMARK                         _______ _______ _______ _____ _____    ______ ____
ROOT
ATOM      1  C   UNL     1       4.090   5.191  17.213  0.00  0.00    +0.000 A 
ATOM      2  C   UNL     1       3.756   6.552  17.360  0.00  0.00    +0.000 A 
ATOM      3  C   UNL     1       2.657   6.920  18.137  0.00  0.00    +0.000 A 
ATOM      4  C   UNL     1       1.888   5.913  18.743  0.00  0.00    +0.000 A 
ATOM      5  C   UNL     1       2.200   4.552  18.590  0.00  0.00    +0.000 A 
ATOM      6  C   UNL     1       3.330   4.170  17.839  0.00  0.00    +0.000 A 
ATOM      7  C   UNL     1       3.636   2.699  17.636  0.00  0.00    +0.000 C 
ATOM      8  C   UNL     1       2.934   1.765  18.620  0.00  0.00    +0.000 C 
ATOM      9  C   UNL     1       1.463   2.128  18.729  0.00  0.00    +0.000 C 
ATOM     10  C   UNL     1       1.321   3.539  19.289  0.00  0.00    +0.000 C 
ENDROOT
BRANCH   1  11
ATOM     11  S   UNL     1       5.439   4.797  16.104  0.00  0.00    +0.000 S 
ATOM     12  O   UNL     1       4.904   4.333  14.860  0.00  0.00    +0.000 OA
ATOM     13  O   UNL     1       6.424   4.021  16.830  0.00  0.00    +0.000 OA
BRANCH  11  14
ATOM     14  N   UNL     1       6.172   6.319  15.820  0.00  0.00    +0.000 NA
ATOM     15  H   UNL     1       6.244   6.414  14.803  0.00  0.00    +0.000 HD
BRANCH  14  16
ATOM     16  C   UNL     1       7.470   6.511  16.512  0.00  0.00    +0.000 C 
BRANCH  16  18
ATOM     17  C   UNL     1       8.203   8.440  17.982  0.00  0.00    +0.000 C 
ATOM     18  C   UNL     1       7.324   7.191  17.874  0.00  0.00    +0.000 C 
BRANCH  18  19
ATOM     19  C   UNL     1       7.771   6.197  18.936  0.00  0.00    +0.000 C 
ATOM     20  N   UNL     1       8.141   5.374  19.816  0.00  0.00    +0.000 NA
ENDBRANCH  18  19
ENDBRANCH  16  18
ENDBRANCH  14  16
ENDBRANCH  11  14
ENDBRANCH   1  11
BRANCH   3  21
ATOM     21  C   UNL     1       2.207   8.331  18.324  0.00  0.00    +0.000 C 
ATOM     22  O   UNL     1       2.274   9.151  17.423  0.00  0.00    +0.000 OA
BRANCH  21  23
ATOM     23  O   UNL     1       1.677   8.628  19.526  0.00  0.00    +0.000 OA
ATOM     24  H   UNL     1       0.947   9.269  19.565  0.00  0.00    +0.000 HD
ENDBRANCH  21  23
ENDBRANCH   3  21
TORSDOF 7
ENDMDL
MODEL 4
REMARK VINA RESULT:      -7.3      2.675      4.791
REMARK  Name = 
REMARK  8 active torsions:
REMARK  status: ('A' for Active; 'I' for Inactive)
REMARK    1  A    between atoms: C_1  and  C_2
REMARK    2  A    between atoms: C_2  and  C_3
REMARK    3  A    between atoms: C_2  and  C_5
REMARK    4  A    between atoms: C_5  and  N_6
REMARK    5  A    between atoms: N_6  and  S_7
REMARK    6  A    between atoms: S_7  and  C_10
REMARK    7  A    between atoms: C_12  and  C_13
REMARK    8  A    between atoms: C_13  and  O_15
REMARK                            x       y       z     vdW  Elec       q    Type
REMARK                         _______ _______ _______ _____ _____    ______ ____
ROOT
ATOM      1  C   UNL     1       3.795   5.327  17.945  0.00  0.00    +0.000 A 
ATOM      2  C   UNL     1       3.388   6.659  17.727  0.00  0.00    +0.000 A 
ATOM      3  C   UNL     1       2.539   7.286  18.639  0.00  0.00    +0.000 A 
ATOM      4  C   UNL     1       2.086   6.561  19.754  0.00  0.00    +0.000 A 
ATOM      5  C   UNL     1       2.471   5.228  19.973  0.00  0.00    +0.000 A 
ATOM      6  C   UNL     1       3.359   4.596  19.080  0.00  0.00    +0.000 A 
ATOM      7  C   UNL     1       3.733   3.142  19.294  0.00  0.00    +0.000 C 
ATOM      8  C   UNL     1       3.449   2.617  20.700  0.00  0.00    +0.000 C 
ATOM      9  C   UNL     1       2.049   3.012  21.135  0.00  0.00    +0.000 C 
ATOM     10  C   UNL     1       1.942   4.532  21.208  0.00  0.00    +0.000 C 
ENDROOT
BRANCH   1  11
ATOM     11  S   UNL     1       4.786   4.556  16.669  0.00  0.00    +0.000 S 
ATOM     12  O   UNL     1       5.240   5.561  15.755  0.00  0.00    +0.000 OA
ATOM     13  O   UNL     1       4.094   3.374  16.196  0.00  0.00    +0.000 OA
BRANCH  11  14
ATOM     14  N   UNL     1       6.151   3.977  17.527  0.00  0.00    +0.000 NA
ATOM     15  H   UNL     1       5.897   4.007  18.517  0.00  0.00    +0.000 HD
BRANCH  14  16
ATOM     16  C   UNL     1       7.411   4.702  17.230  0.00  0.00    +0.000 C 
BRANCH  16  18
ATOM     17  C   UNL     1       6.931   5.522  19.578  0.00  0.00    +0.000 C 
ATOM     18  C   UNL     1       7.811   5.680  18.336  0.00  0.00    +0.000 C 
BRANCH  18  19
ATOM     19  C   UNL     1       7.628   7.088  17.793  0.00  0.00    +0.000 C 
ATOM     20  N   UNL     1       7.475   8.256  17.343  0.00  0.00    +0.000 NA
ENDBRANCH  18  19
ENDBRANCH  16  18
ENDBRANCH  14  16
ENDBRANCH  11  14
ENDBRANCH   1  11
BRANCH   3  21
ATOM     21  C   UNL     1       2.029   8.679  18.475  0.00  0.00    +0.000 C 
ATOM     22  O   UNL     1       2.183   9.301  17.437  0.00  0.00    +0.000 OA
BRANCH  21  23
ATOM     23  O   UNL     1       1.348   9.186  19.521  0.00  0.00    +0.000 OA
ATOM     24  H   UNL     1       1.771   9.879  20.057  0.00  0.00    +0.000 HD
ENDBRANCH  21  23
ENDBRANCH   3  21
TORSDOF 7
ENDMDL
MODEL 5
REMARK VINA RESULT:      -7.2      2.285      4.136
REMARK  Name = 
REMARK  8 active torsions:
REMARK  status: ('A' for Active; 'I' for Inactive)
REMARK    1  A    between atoms: C_1  and  C_2
REMARK    2  A    between atoms: C_2  and  C_3
REMARK    3  A    between atoms: C_2  and  C_5
REMARK    4  A    between atoms: C_5  and  N_6
REMARK    5  A    between atoms: N_6  and  S_7
REMARK    6  A    between atoms: S_7  and  C_10
REMARK    7  A    between atoms: C_12  and  C_13
REMARK    8  A    between atoms: C_13  and  O_15
REMARK                            x       y       z     vdW  Elec       q    Type
REMARK                         _______ _______ _______ _____ _____    ______ ____
ROOT
ATOM      1  C   UNL     1       4.654   5.356  17.429  0.00  0.00    +0.000 A 
ATOM      2  C   UNL     1       4.186   6.679  17.560  0.00  0.00    +0.000 A 
ATOM      3  C   UNL     1       2.903   6.920  18.051  0.00  0.00    +0.000 A 
ATOM      4  C   UNL     1       2.090   5.824  18.388  0.00  0.00    +0.000 A 
ATOM      5  C   UNL     1       2.538   4.501  18.246  0.00  0.00    +0.000 A 
ATOM      6  C   UNL     1       3.846   4.246  17.787  0.00  0.00    +0.000 A 
ATOM      7  C   UNL     1       4.309   2.816  17.589  0.00  0.00    +0.000 C 
ATOM      8  C   UNL     1       3.461   1.772  18.312  0.00  0.00    +0.000 C 
ATOM      9  C   UNL     1       1.986   2.031  18.064  0.00  0.00    +0.000 C 
ATOM     10  C   UNL     1       1.596   3.386  18.644  0.00  0.00    +0.000 C 
ENDROOT
BRANCH   1  11
ATOM     11  S   UNL     1       6.264   5.129  16.678  0.00  0.00    +0.000 S 
ATOM     12  O   UNL     1       7.173   4.623  17.661  0.00  0.00    +0.000 OA
ATOM     13  O   UNL     1       6.583   6.311  15.902  0.00  0.00    +0.000 OA
BRANCH  11  14
ATOM     14  N   UNL     1       5.990   3.887  15.531  0.00  0.00    +0.000 NA
ATOM     15  H   UNL     1       6.864   3.358  15.472  0.00  0.00    +0.000 HD
BRANCH  14  16
ATOM     16  C   UNL     1       5.514   4.368  14.210  0.00  0.00    +0.000 C 
BRANCH  16  18
ATOM     17  C   UNL     1       7.210   4.466  12.331  0.00  0.00    +0.000 C 
ATOM     18  C   UNL     1       6.151   3.618  13.039  0.00  0.00    +0.000 C 
BRANCH  18  19
ATOM     19  C   UNL     1       5.047   3.300  12.042  0.00  0.00    +0.000 C 
ATOM     20  N   UNL     1       4.132   3.037  11.216  0.00  0.00    +0.000 NA
ENDBRANCH  18  19
ENDBRANCH  16  18
ENDBRANCH  14  16
ENDBRANCH  11  14
ENDBRANCH   1  11
BRANCH   3  21
ATOM     21  C   UNL     1       2.309   8.282  18.194  0.00  0.00    +0.000 C 
ATOM     22  O   UNL     1       1.803   8.654  19.239  0.00  0.00    +0.000 OA
BRANCH  21  23
ATOM     23  O   UNL     1       2.412   9.086  17.119  0.00  0.00    +0.000 OA
ATOM     24  H   UNL     1       2.511  10.043  17.264  0.00  0.00    +0.000 HD
ENDBRANCH  21  23
ENDBRANCH   3  21
TORSDOF 7
ENDMDL
MODEL 6
REMARK VINA RESULT:      -7.2      2.058      3.904
REMARK  Name = 
REMARK  8 active torsions:
REMARK  status: ('A' for Active; 'I' for Inactive)
REMARK    1  A    between atoms: C_1  and  C_2
REMARK    2  A    between atoms: C_2  and  C_3
REMARK    3  A    between atoms: C_2  and  C_5
REMARK    4  A    between atoms: C_5  and  N_6
REMARK    5  A    between atoms: N_6  and  S_7
REMARK    6  A    between atoms: S_7  and  C_10
REMARK    7  A    between atoms: C_12  and  C_13
REMARK    8  A    between atoms: C_13  and  O_15
REMARK                            x       y       z     vdW  Elec       q    Type
REMARK                         _______ _______ _______ _____ _____    ______ ____
ROOT
ATOM      1  C   UNL     1       4.232   5.582  17.463  0.00  0.00    +0.000 A 
ATOM      2  C   UNL     1       3.792   6.911  17.623  0.00  0.00    +0.000 A 
ATOM      3  C   UNL     1       2.574   7.171  18.252  0.00  0.00    +0.000 A 
ATOM      4  C   UNL     1       1.796   6.089  18.697  0.00  0.00    +0.000 A 
ATOM      5  C   UNL     1       2.216   4.759  18.529  0.00  0.00    +0.000 A 
ATOM      6  C   UNL     1       3.462   4.485  17.929  0.00  0.00    +0.000 A 
ATOM      7  C   UNL     1       3.889   3.048  17.706  0.00  0.00    +0.000 C 
ATOM      8  C   UNL     1       3.121   2.023  18.537  0.00  0.00    +0.000 C 
ATOM      9  C   UNL     1       1.629   2.292  18.453  0.00  0.00    +0.000 C 
ATOM     10  C   UNL     1       1.317   3.660  19.050  0.00  0.00    +0.000 C 
ENDROOT
BRANCH   1  11
ATOM     11  S   UNL     1       5.745   5.328  16.539  0.00  0.00    +0.000 S 
ATOM     12  O   UNL     1       6.634   4.513  17.310  0.00  0.00    +0.000 OA
ATOM     13  O   UNL     1       6.175   6.601  15.997  0.00  0.00    +0.000 OA
BRANCH  11  14
ATOM     14  N   UNL     1       5.230   4.405  15.190  0.00  0.00    +0.000 NA
ATOM     15  H   UNL     1       4.550   3.731  15.550  0.00  0.00    +0.000 HD
BRANCH  14  16
ATOM     16  C   UNL     1       6.333   3.765  14.431  0.00  0.00    +0.000 C 
BRANCH  16  18
ATOM     17  C   UNL     1       6.717   3.275  11.976  0.00  0.00    +0.000 C 
ATOM     18  C   UNL     1       6.522   4.361  13.036  0.00  0.00    +0.000 C 
BRANCH  18  19
ATOM     19  C   UNL     1       7.772   5.227  13.071  0.00  0.00    +0.000 C 
ATOM     20  N   UNL     1       8.808   5.945  13.099  0.00  0.00    +0.000 NA
ENDBRANCH  18  19
ENDBRANCH  16  18
ENDBRANCH  14  16
ENDBRANCH  11  14
ENDBRANCH   1  11
BRANCH   3  21
ATOM     21  C   UNL     1       2.010   8.540  18.437  0.00  0.00    +0.000 C 
ATOM     22  O   UNL     1       1.497   8.886  19.488  0.00  0.00    +0.000 OA
BRANCH  21  23
ATOM     23  O   UNL     1       2.147   9.382  17.394  0.00  0.00    +0.000 OA
ATOM     24  H   UNL     1       2.420   9.015  16.536  0.00  0.00    +0.000 HD
ENDBRANCH  21  23
ENDBRANCH   3  21
TORSDOF 7
ENDMDL
MODEL 7
REMARK VINA RESULT:      -7.2      2.710      4.970
REMARK  Name = 
REMARK  8 active torsions:
REMARK  status: ('A' for Active; 'I' for Inactive)
REMARK    1  A    between atoms: C_1  and  C_2
REMARK    2  A    between atoms: C_2  and  C_3
REMARK    3  A    between atoms: C_2  and  C_5
REMARK    4  A    between atoms: C_5  and  N_6
REMARK    5  A    between atoms: N_6  and  S_7
REMARK    6  A    between atoms: S_7  and  C_10
REMARK    7  A    between atoms: C_12  and  C_13
REMARK    8  A    between atoms: C_13  and  O_15
REMARK                            x       y       z     vdW  Elec       q    Type
REMARK                         _______ _______ _______ _____ _____    ______ ____
ROOT
ATOM      1  C   UNL     1       3.846   5.069  17.961  0.00  0.00    +0.000 A 
ATOM      2  C   UNL     1       3.432   6.391  17.706  0.00  0.00    +0.000 A 
ATOM      3  C   UNL     1       2.611   7.053  18.619  0.00  0.00    +0.000 A 
ATOM      4  C   UNL     1       2.193   6.370  19.773  0.00  0.00    +0.000 A 
ATOM      5  C   UNL     1       2.585   5.046  20.031  0.00  0.00    +0.000 A 
ATOM      6  C   UNL     1       3.445   4.380  19.135  0.00  0.00    +0.000 A 
ATOM      7  C   UNL     1       3.827   2.936  19.392  0.00  0.00    +0.000 C 
ATOM      8  C   UNL     1       3.586   2.463  20.824  0.00  0.00    +0.000 C 
ATOM      9  C   UNL     1       2.199   2.875  21.286  0.00  0.00    +0.000 C 
ATOM     10  C   UNL     1       2.093   4.396  21.306  0.00  0.00    +0.000 C 
ENDROOT
BRANCH   1  11
ATOM     11  S   UNL     1       4.798   4.250  16.684  0.00  0.00    +0.000 S 
ATOM     12  O   UNL     1       4.933   5.130  15.563  0.00  0.00    +0.000 OA
ATOM     13  O   UNL     1       4.292   2.902  16.522  0.00  0.00    +0.000 OA
BRANCH  11  14
ATOM     14  N   UNL     1       6.345   4.076  17.399  0.00  0.00    +0.000 NA
ATOM     15  H   UNL     1       6.180   3.891  18.392  0.00  0.00    +0.000 HD
BRANCH  14  16
ATOM     16  C   UNL     1       7.258   5.224  17.168  0.00  0.00    +0.000 C 
BRANCH  16  18
ATOM     17  C   UNL     1       7.934   7.560  17.875  0.00  0.00    +0.000 C 
ATOM     18  C   UNL     1       7.136   6.306  18.242  0.00  0.00    +0.000 C 
BRANCH  18  19
ATOM     19  C   UNL     1       7.702   5.739  19.534  0.00  0.00    +0.000 C 
ATOM     20  N   UNL     1       8.171   5.269  20.606  0.00  0.00    +0.000 NA
ENDBRANCH  18  19
ENDBRANCH  16  18
ENDBRANCH  14  16
ENDBRANCH  11  14
ENDBRANCH   1  11
BRANCH   3  21
ATOM     21  C   UNL     1       2.095   8.439  18.420  0.00  0.00    +0.000 C 
ATOM     22  O   UNL     1       2.239   9.032  17.363  0.00  0.00    +0.000 OA
BRANCH  21  23
ATOM     23  O   UNL     1       1.421   8.974  19.456  0.00  0.00    +0.000 OA
ATOM     24  H   UNL     1       0.608   9.475  19.270  0.00  0.00    +0.000 HD
ENDBRANCH  21  23
ENDBRANCH   3  21
TORSDOF 7
ENDMDL
MODEL 8
REMARK VINA RESULT:      -7.0      2.070      2.800
REMARK  Name = 
REMARK  8 active torsions:
REMARK  status: ('A' for Active; 'I' for Inactive)
REMARK    1  A    between atoms: C_1  and  C_2
REMARK    2  A    between atoms: C_2  and  C_3
REMARK    3  A    between atoms: C_2  and  C_5
REMARK    4  A    between atoms: C_5  and  N_6
REMARK    5  A    between atoms: N_6  and  S_7
REMARK    6  A    between atoms: S_7  and  C_10
REMARK    7  A    between atoms: C_12  and  C_13
REMARK    8  A    between atoms: C_13  and  O_15
REMARK                            x       y       z     vdW  Elec       q    Type
REMARK                         _______ _______ _______ _____ _____    ______ ____
ROOT
ATOM      1  C   UNL     1       4.518   5.050  16.853  0.00  0.00    +0.000 A 
ATOM      2  C   UNL     1       4.674   3.728  17.316  0.00  0.00    +0.000 A 
ATOM      3  C   UNL     1       4.043   3.322  18.492  0.00  0.00    +0.000 A 
ATOM      4  C   UNL     1       3.276   4.257  19.207  0.00  0.00    +0.000 A 
ATOM      5  C   UNL     1       3.126   5.582  18.764  0.00  0.00    +0.000 A 
ATOM      6  C   UNL     1       3.727   5.993  17.558  0.00  0.00    +0.000 A 
ATOM      7  C   UNL     1       3.604   7.436  17.109  0.00  0.00    +0.000 C 
ATOM      8  C   UNL     1       2.479   8.215  17.789  0.00  0.00    +0.000 C 
ATOM      9  C   UNL     1       2.516   7.988  19.290  0.00  0.00    +0.000 C 
ATOM     10  C   UNL     1       2.271   6.515  19.595  0.00  0.00    +0.000 C 
ENDROOT
BRANCH   1  11
ATOM     11  S   UNL     1       5.457   5.524  15.404  0.00  0.00    +0.000 S 
ATOM     12  O   UNL     1       5.097   6.857  15.027  0.00  0.00    +0.000 OA
ATOM     13  O   UNL     1       5.411   4.437  14.446  0.00  0.00    +0.000 OA
BRANCH  11  14
ATOM     14  N   UNL     1       7.071   5.563  15.977  0.00  0.00    +0.000 NA
ATOM     15  H   UNL     1       7.654   5.221  15.209  0.00  0.00    +0.000 HD
BRANCH  14  16
ATOM     16  C   UNL     1       7.288   4.819  17.243  0.00  0.00    +0.000 C 
BRANCH  16  18
ATOM     17  C   UNL     1       6.820   5.592  19.610  0.00  0.00    +0.000 C 
ATOM     18  C   UNL     1       7.740   5.719  18.394  0.00  0.00    +0.000 C 
BRANCH  18  19
ATOM     19  C   UNL     1       7.688   7.157  17.901  0.00  0.00    +0.000 C 
ATOM     20  N   UNL     1       7.645   8.349  17.493  0.00  0.00    +0.000 NA
ENDBRANCH  18  19
ENDBRANCH  16  18
ENDBRANCH  14  16
ENDBRANCH  11  14
ENDBRANCH   1  11
BRANCH   3  21
ATOM     21  C   UNL     1       4.177   1.956  19.078  0.00  0.00    +0.000 C 
ATOM     22  O   UNL     1       4.860   1.746  20.067  0.00  0.00    +0.000 OA
BRANCH  21  23
ATOM     23  O   UNL     1       3.460   0.984  18.481  0.00  0.00    +0.000 OA
ATOM     24  H   UNL     1       3.829   0.085  18.458  0.00  0.00    +0.000 HD
ENDBRANCH  21  23
ENDBRANCH   3  21
TORSDOF 7
ENDMDL
MODEL 9
REMARK VINA RESULT:      -7.0      1.704      2.004
REMARK  Name = 
REMARK  8 active torsions:
REMARK  status: ('A' for Active; 'I' for Inactive)
REMARK    1  A    between atoms: C_1  and  C_2
REMARK    2  A    between atoms: C_2  and  C_3
REMARK    3  A    between atoms: C_2  and  C_5
REMARK    4  A    between atoms: C_5  and  N_6
REMARK    5  A    between atoms: N_6  and  S_7
REMARK    6  A    between atoms: S_7  and  C_10
REMARK    7  A    between atoms: C_12  and  C_13
REMARK    8  A    between atoms: C_13  and  O_15
REMARK                            x       y       z     vdW  Elec       q    Type
REMARK                         _______ _______ _______ _____ _____    ______ ____
ROOT
ATOM      1  C   UNL     1       4.900   4.673  17.095  0.00  0.00    +0.000 A 
ATOM      2  C   UNL     1       4.619   3.334  17.433  0.00  0.00    +0.000 A 
ATOM      3  C   UNL     1       3.486   3.028  18.187  0.00  0.00    +0.000 A 
ATOM      4  C   UNL     1       2.653   4.076  18.614  0.00  0.00    +0.000 A 
ATOM      5  C   UNL     1       2.931   5.416  18.297  0.00  0.00    +0.000 A 
ATOM      6  C   UNL     1       4.052   5.734  17.505  0.00  0.00    +0.000 A 
ATOM      7  C   UNL     1       4.375   7.185  17.206  0.00  0.00    +0.000 C 
ATOM      8  C   UNL     1       3.214   8.151  17.436  0.00  0.00    +0.000 C 
ATOM      9  C   UNL     1       2.564   7.880  18.781  0.00  0.00    +0.000 C 
ATOM     10  C   UNL     1       1.970   6.475  18.792  0.00  0.00    +0.000 C 
ENDROOT
BRANCH   1  11
ATOM     11  S   UNL     1       6.435   4.994  16.231  0.00  0.00    +0.000 S 
ATOM     12  O   UNL     1       7.532   4.748  17.118  0.00  0.00    +0.000 OA
ATOM     13  O   UNL     1       6.314   6.251  15.521  0.00  0.00    +0.000 OA
BRANCH  11  14
ATOM     14  N   UNL     1       6.464   3.783  15.019  0.00  0.00    +0.000 NA
ATOM     15  H   UNL     1       7.445   3.676  14.748  0.00  0.00    +0.000 HD
BRANCH  14  16
ATOM     16  C   UNL     1       5.570   4.052  13.865  0.00  0.00    +0.000 C 
BRANCH  16  18
ATOM     17  C   UNL     1       7.105   4.063  11.850  0.00  0.00    +0.000 C 
ATOM     18  C   UNL     1       5.997   3.315  12.596  0.00  0.00    +0.000 C 
BRANCH  18  19
ATOM     19  C   UNL     1       4.783   3.224  11.685  0.00  0.00    +0.000 C 
ATOM     20  N   UNL     1       3.776   3.149  10.930  0.00  0.00    +0.000 NA
ENDBRANCH  18  19
ENDBRANCH  16  18
ENDBRANCH  14  16
ENDBRANCH  11  14
ENDBRANCH   1  11
BRANCH   3  21
ATOM     21  C   UNL     1       3.125   1.647  18.621  0.00  0.00    +0.000 C 
ATOM     22  O   UNL     1       2.076   1.409  19.196  0.00  0.00    +0.000 OA
BRANCH  21  23
ATOM     23  O   UNL     1       4.001   0.677  18.296  0.00  0.00    +0.000 OA
ATOM     24  H   UNL     1       4.436   0.187  19.013  0.00  0.00    +0.000 HD
ENDBRANCH  21  23
ENDBRANCH   3  21
TORSDOF 7
ENDMDL
