MODEL 1
REMARK VINA RESULT:      -6.1      0.000      0.000
REMARK  Name = 
REMARK  2 active torsions:
REMARK  status: ('A' for Active; 'I' for Inactive)
REMARK    1  A    between atoms: N_1  and  C_2
REMARK    2  A    between atoms: C_7  and  N_8
REMARK                            x       y       z     vdW  Elec       q    Type
REMARK                         _______ _______ _______ _____ _____    ______ ____
ROOT
ATOM      1  C   UNL     1       4.026   2.911  19.884  0.00  0.00    +0.000 A 
ATOM      2  C   UNL     1       2.993   2.842  20.816  0.00  0.00    +0.000 A 
ATOM      3  C   UNL     1       2.172   3.945  20.998  0.00  0.00    +0.000 A 
ATOM      4  C   UNL     1       2.381   5.059  20.201  0.00  0.00    +0.000 A 
ATOM      5  N   UNL     1       3.345   5.150  19.256  0.00  0.00    +0.000 NA
ATOM      6  C   UNL     1       4.146   4.076  19.082  0.00  0.00    +0.000 A 
ENDROOT
BRANCH   6   7
ATOM      7  N   UNL     1       5.246   4.143  18.211  0.00  0.00    +0.000 N 
ATOM      8  C   UNL     1       6.314   5.057  18.637  0.00  0.00    +0.000 C 
ATOM      9  C   UNL     1       7.577   4.689  17.823  0.00  0.00    +0.000 C 
ATOM     10  N   UNL     1       7.385   4.752  16.356  0.00  0.00    +0.000 NA
ATOM     11  C   UNL     1       6.163   4.016  15.956  0.00  0.00    +0.000 C 
ATOM     12  C   UNL     1       4.905   4.366  16.794  0.00  0.00    +0.000 C 
ATOM     13  H   UNL     1       8.190   4.319  15.906  0.00  0.00    +0.000 HD
ENDBRANCH   6   7
BRANCH   1  14
ATOM     14  N   UNL     1       4.851   1.780  19.655  0.00  0.00    +0.000 N 
ATOM     15  H   UNL     1       5.209   1.382  20.517  0.00  0.00    +0.000 HD
ATOM     16  H   UNL     1       5.598   2.070  19.024  0.00  0.00    +0.000 HD
ENDBRANCH   1  14
TORSDOF 2
ENDMDL
MODEL 2
REMARK VINA RESULT:      -5.9      1.465      1.477
REMARK  Name = 
REMARK  2 active torsions:
REMARK  status: ('A' for Active; 'I' for Inactive)
REMARK    1  A    between atoms: N_1  and  C_2
REMARK    2  A    between atoms: C_7  and  N_8
REMARK                            x       y       z     vdW  Elec       q    Type
REMARK                         _______ _______ _______ _____ _____    ______ ____
ROOT
ATOM      1  C   UNL     1       3.923   3.152  19.122  0.00  0.00    +0.000 A 
ATOM      2  C   UNL     1       2.729   2.673  19.655  0.00  0.00    +0.000 A 
ATOM      3  C   UNL     1       1.526   3.123  19.132  0.00  0.00    +0.000 A 
ATOM      4  C   UNL     1       1.562   3.995  18.056  0.00  0.00    +0.000 A 
ATOM      5  N   UNL     1       2.700   4.451  17.482  0.00  0.00    +0.000 NA
ATOM      6  C   UNL     1       3.871   4.014  17.995  0.00  0.00    +0.000 A 
ENDROOT
BRANCH   6   7
ATOM      7  N   UNL     1       5.089   4.540  17.535  0.00  0.00    +0.000 N 
ATOM      8  C   UNL     1       5.300   5.962  17.839  0.00  0.00    +0.000 C 
ATOM      9  C   UNL     1       6.809   6.246  17.656  0.00  0.00    +0.000 C 
ATOM     10  N   UNL     1       7.321   5.916  16.306  0.00  0.00    +0.000 NA
ATOM     11  C   UNL     1       6.901   4.553  15.905  0.00  0.00    +0.000 C 
ATOM     12  C   UNL     1       5.393   4.261  16.120  0.00  0.00    +0.000 C 
ATOM     13  H   UNL     1       8.339   5.951  16.328  0.00  0.00    +0.000 HD
ENDBRANCH   6   7
BRANCH   1  14
ATOM     14  N   UNL     1       5.163   2.673  19.617  0.00  0.00    +0.000 N 
ATOM     15  H   UNL     1       5.870   3.399  19.657  0.00  0.00    +0.000 HD
ATOM     16  H   UNL     1       5.445   1.891  19.026  0.00  0.00    +0.000 HD
ENDBRANCH   1  14
TORSDOF 2
ENDMDL
MODEL 3
REMARK VINA RESULT:      -5.9      1.053      1.053
REMARK  Name = 
REMARK  2 active torsions:
REMARK  status: ('A' for Active; 'I' for Inactive)
REMARK    1  A    between atoms: N_1  and  C_2
REMARK    2  A    between atoms: C_7  and  N_8
REMARK                            x       y       z     vdW  Elec       q    Type
REMARK                         _______ _______ _______ _____ _____    ______ ____
ROOT
ATOM      1  C   UNL     1       3.364   2.483  18.635  0.00  0.00    +0.000 A 
ATOM      2  C   UNL     1       2.170   2.292  19.327  0.00  0.00    +0.000 A 
ATOM      3  C   UNL     1       1.439   3.398  19.732  0.00  0.00    +0.000 A 
ATOM      4  C   UNL     1       1.901   4.657  19.381  0.00  0.00    +0.000 A 
ATOM      5  N   UNL     1       3.032   4.883  18.673  0.00  0.00    +0.000 NA
ATOM      6  C   UNL     1       3.745   3.805  18.283  0.00  0.00    +0.000 A 
ENDROOT
BRANCH   6   7
ATOM      7  N   UNL     1       4.992   3.966  17.656  0.00  0.00    +0.000 N 
ATOM      8  C   UNL     1       5.914   4.878  18.346  0.00  0.00    +0.000 C 
ATOM      9  C   UNL     1       7.328   4.605  17.782  0.00  0.00    +0.000 C 
ATOM     10  N   UNL     1       7.429   4.768  16.313  0.00  0.00    +0.000 NA
ATOM     11  C   UNL     1       6.344   4.028  15.629  0.00  0.00    +0.000 C 
ATOM     12  C   UNL     1       4.930   4.279  16.217  0.00  0.00    +0.000 C 
ATOM     13  H   UNL     1       8.325   4.392  16.007  0.00  0.00    +0.000 HD
ENDBRANCH   6   7
BRANCH   1  14
ATOM     14  N   UNL     1       4.106   1.364  18.177  0.00  0.00    +0.000 N 
ATOM     15  H   UNL     1       3.679   0.920  17.371  0.00  0.00    +0.000 HD
ATOM     16  H   UNL     1       4.205   0.723  18.964  0.00  0.00    +0.000 HD
ENDBRANCH   1  14
TORSDOF 2
ENDMDL
MODEL 4
REMARK VINA RESULT:      -5.8      1.922      4.815
REMARK  Name = 
REMARK  2 active torsions:
REMARK  status: ('A' for Active; 'I' for Inactive)
REMARK    1  A    between atoms: N_1  and  C_2
REMARK    2  A    between atoms: C_7  and  N_8
REMARK                            x       y       z     vdW  Elec       q    Type
REMARK                         _______ _______ _______ _____ _____    ______ ____
ROOT
ATOM      1  C   UNL     1       5.119   4.545  18.391  0.00  0.00    +0.000 A 
ATOM      2  C   UNL     1       6.104   5.259  17.713  0.00  0.00    +0.000 A 
ATOM      3  C   UNL     1       5.758   6.428  17.053  0.00  0.00    +0.000 A 
ATOM      4  C   UNL     1       4.448   6.870  17.141  0.00  0.00    +0.000 A 
ATOM      5  N   UNL     1       3.472   6.229  17.824  0.00  0.00    +0.000 NA
ATOM      6  C   UNL     1       3.809   5.088  18.464  0.00  0.00    +0.000 A 
ENDROOT
BRANCH   6   7
ATOM      7  N   UNL     1       2.824   4.304  19.085  0.00  0.00    +0.000 N 
ATOM      8  C   UNL     1       1.703   3.921  18.217  0.00  0.00    +0.000 C 
ATOM      9  C   UNL     1       0.971   2.748  18.912  0.00  0.00    +0.000 C 
ATOM     10  N   UNL     1       0.495   3.065  20.278  0.00  0.00    +0.000 NA
ATOM     11  C   UNL     1       1.579   3.673  21.084  0.00  0.00    +0.000 C 
ATOM     12  C   UNL     1       2.331   4.828  20.372  0.00  0.00    +0.000 C 
ATOM     13  H   UNL     1       0.200   2.198  20.726  0.00  0.00    +0.000 HD
ENDBRANCH   6   7
BRANCH   1  14
ATOM     14  N   UNL     1       5.461   3.368  19.105  0.00  0.00    +0.000 N 
ATOM     15  H   UNL     1       5.307   3.463  20.103  0.00  0.00    +0.000 HD
ATOM     16  H   UNL     1       6.432   3.149  18.883  0.00  0.00    +0.000 HD
ENDBRANCH   1  14
TORSDOF 2
ENDMDL
MODEL 5
REMARK VINA RESULT:      -5.7      2.287      4.718
REMARK  Name = 
REMARK  2 active torsions:
REMARK  status: ('A' for Active; 'I' for Inactive)
REMARK    1  A    between atoms: N_1  and  C_2
REMARK    2  A    between atoms: C_7  and  N_8
REMARK                            x       y       z     vdW  Elec       q    Type
REMARK                         _______ _______ _______ _____ _____    ______ ____
ROOT
ATOM      1  C   UNL     1       6.029   6.338  17.167  0.00  0.00    +0.000 A 
ATOM      2  C   UNL     1       7.270   6.918  17.422  0.00  0.00    +0.000 A 
ATOM      3  C   UNL     1       7.946   6.584  18.585  0.00  0.00    +0.000 A 
ATOM      4  C   UNL     1       7.381   5.638  19.426  0.00  0.00    +0.000 A 
ATOM      5  N   UNL     1       6.200   5.021  19.194  0.00  0.00    +0.000 NA
ATOM      6  C   UNL     1       5.541   5.350  18.062  0.00  0.00    +0.000 A 
ENDROOT
BRANCH   6   7
ATOM      7  N   UNL     1       4.253   4.845  17.817  0.00  0.00    +0.000 N 
ATOM      8  C   UNL     1       3.192   5.443  18.638  0.00  0.00    +0.000 C 
ATOM      9  C   UNL     1       1.845   5.101  17.958  0.00  0.00    +0.000 C 
ATOM     10  N   UNL     1       1.616   3.649  17.777  0.00  0.00    +0.000 NA
ATOM     11  C   UNL     1       2.797   3.006  17.156  0.00  0.00    +0.000 C 
ATOM     12  C   UNL     1       4.149   3.375  17.822  0.00  0.00    +0.000 C 
ATOM     13  H   UNL     1       0.813   3.522  17.163  0.00  0.00    +0.000 HD
ENDBRANCH   6   7
BRANCH   1  14
ATOM     14  N   UNL     1       5.341   6.636  15.963  0.00  0.00    +0.000 N 
ATOM     15  H   UNL     1       5.402   7.618  15.716  0.00  0.00    +0.000 HD
ATOM     16  H   UNL     1       4.376   6.327  16.080  0.00  0.00    +0.000 HD
ENDBRANCH   1  14
TORSDOF 2
ENDMDL
MODEL 6
REMARK VINA RESULT:      -5.7      1.564      1.673
REMARK  Name = 
REMARK  2 active torsions:
REMARK  status: ('A' for Active; 'I' for Inactive)
REMARK    1  A    between atoms: N_1  and  C_2
REMARK    2  A    between atoms: C_7  and  N_8
REMARK                            x       y       z     vdW  Elec       q    Type
REMARK                         _______ _______ _______ _____ _____    ______ ____
ROOT
ATOM      1  C   UNL     1       3.575   3.024  20.103  0.00  0.00    +0.000 A 
ATOM      2  C   UNL     1       2.774   2.546  21.138  0.00  0.00    +0.000 A 
ATOM      3  C   UNL     1       1.502   3.070  21.306  0.00  0.00    +0.000 A 
ATOM      4  C   UNL     1       1.055   4.016  20.398  0.00  0.00    +0.000 A 
ATOM      5  N   UNL     1       1.785   4.476  19.355  0.00  0.00    +0.000 NA
ATOM      6  C   UNL     1       3.026   3.966  19.195  0.00  0.00    +0.000 A 
ENDROOT
BRANCH   6   7
ATOM      7  N   UNL     1       3.885   4.485  18.213  0.00  0.00    +0.000 N 
ATOM      8  C   UNL     1       3.821   5.943  18.047  0.00  0.00    +0.000 C 
ATOM      9  C   UNL     1       5.091   6.368  17.273  0.00  0.00    +0.000 C 
ATOM     10  N   UNL     1       5.247   5.696  15.962  0.00  0.00    +0.000 NA
ATOM     11  C   UNL     1       5.076   4.231  16.101  0.00  0.00    +0.000 C 
ATOM     12  C   UNL     1       3.818   3.809  16.905  0.00  0.00    +0.000 C 
ATOM     13  H   UNL     1       6.185   5.884  15.612  0.00  0.00    +0.000 HD
ENDBRANCH   6   7
BRANCH   1  14
ATOM     14  N   UNL     1       4.864   2.471  19.891  0.00  0.00    +0.000 N 
ATOM     15  H   UNL     1       5.326   2.222  20.759  0.00  0.00    +0.000 HD
ATOM     16  H   UNL     1       5.400   3.149  19.349  0.00  0.00    +0.000 HD
ENDBRANCH   1  14
TORSDOF 2
ENDMDL
MODEL 7
REMARK VINA RESULT:      -5.7      1.788      4.474
REMARK  Name = 
REMARK  2 active torsions:
REMARK  status: ('A' for Active; 'I' for Inactive)
REMARK    1  A    between atoms: N_1  and  C_2
REMARK    2  A    between atoms: C_7  and  N_8
REMARK                            x       y       z     vdW  Elec       q    Type
REMARK                         _______ _______ _______ _____ _____    ______ ____
ROOT
ATOM      1  C   UNL     1       6.203   4.274  17.203  0.00  0.00    +0.000 A 
ATOM      2  C   UNL     1       7.489   4.793  17.334  0.00  0.00    +0.000 A 
ATOM      3  C   UNL     1       7.842   5.436  18.511  0.00  0.00    +0.000 A 
ATOM      4  C   UNL     1       6.911   5.487  19.536  0.00  0.00    +0.000 A 
ATOM      5  N   UNL     1       5.667   4.959  19.464  0.00  0.00    +0.000 NA
ATOM      6  C   UNL     1       5.324   4.336  18.316  0.00  0.00    +0.000 A 
ENDROOT
BRANCH   6   7
ATOM      7  N   UNL     1       4.012   3.875  18.122  0.00  0.00    +0.000 N 
ATOM      8  C   UNL     1       2.966   4.877  18.365  0.00  0.00    +0.000 C 
ATOM      9  C   UNL     1       1.669   4.348  17.707  0.00  0.00    +0.000 C 
ATOM     10  N   UNL     1       1.247   3.017  18.201  0.00  0.00    +0.000 NA
ATOM     11  C   UNL     1       2.381   2.064  18.173  0.00  0.00    +0.000 C 
ATOM     12  C   UNL     1       3.689   2.610  18.805  0.00  0.00    +0.000 C 
ATOM     13  H   UNL     1       0.509   2.666  17.592  0.00  0.00    +0.000 HD
ENDBRANCH   6   7
BRANCH   1  14
ATOM     14  N   UNL     1       5.837   3.578  16.022  0.00  0.00    +0.000 N 
ATOM     15  H   UNL     1       4.832   3.469  15.933  0.00  0.00    +0.000 HD
ATOM     16  H   UNL     1       6.323   2.682  16.034  0.00  0.00    +0.000 HD
ENDBRANCH   1  14
TORSDOF 2
ENDMDL
MODEL 8
REMARK VINA RESULT:      -5.6      1.832      2.903
REMARK  Name = 
REMARK  2 active torsions:
REMARK  status: ('A' for Active; 'I' for Inactive)
REMARK    1  A    between atoms: N_1  and  C_2
REMARK    2  A    between atoms: C_7  and  N_8
REMARK                            x       y       z     vdW  Elec       q    Type
REMARK                         _______ _______ _______ _____ _____    ______ ____
ROOT
ATOM      1  C   UNL     1       2.699   4.763  17.967  0.00  0.00    +0.000 A 
ATOM      2  C   UNL     1       1.561   4.129  18.461  0.00  0.00    +0.000 A 
ATOM      3  C   UNL     1       1.520   2.744  18.494  0.00  0.00    +0.000 A 
ATOM      4  C   UNL     1       2.642   2.042  18.083  0.00  0.00    +0.000 A 
ATOM      5  N   UNL     1       3.781   2.621  17.637  0.00  0.00    +0.000 NA
ATOM      6  C   UNL     1       3.818   3.970  17.602  0.00  0.00    +0.000 A 
ENDROOT
BRANCH   6   7
ATOM      7  N   UNL     1       4.916   4.636  17.034  0.00  0.00    +0.000 N 
ATOM      8  C   UNL     1       5.279   4.186  15.684  0.00  0.00    +0.000 C 
ATOM      9  C   UNL     1       6.186   5.278  15.070  0.00  0.00    +0.000 C 
ATOM     10  N   UNL     1       7.398   5.570  15.869  0.00  0.00    +0.000 NA
ATOM     11  C   UNL     1       7.046   5.795  17.291  0.00  0.00    +0.000 C 
ATOM     12  C   UNL     1       6.111   4.714  17.895  0.00  0.00    +0.000 C 
ATOM     13  H   UNL     1       7.832   6.415  15.502  0.00  0.00    +0.000 HD
ENDBRANCH   6   7
BRANCH   1  14
ATOM     14  N   UNL     1       2.775   6.180  17.962  0.00  0.00    +0.000 N 
ATOM     15  H   UNL     1       3.304   6.536  17.173  0.00  0.00    +0.000 HD
ATOM     16  H   UNL     1       3.175   6.466  18.856  0.00  0.00    +0.000 HD
ENDBRANCH   1  14
TORSDOF 2
ENDMDL
MODEL 9
REMARK VINA RESULT:      -5.6      1.073      1.141
REMARK  Name = 
REMARK  2 active torsions:
REMARK  status: ('A' for Active; 'I' for Inactive)
REMARK    1  A    between atoms: N_1  and  C_2
REMARK    2  A    between atoms: C_7  and  N_8
REMARK                            x       y       z     vdW  Elec       q    Type
REMARK                         _______ _______ _______ _____ _____    ______ ____
ROOT
ATOM      1  C   UNL     1       4.107   3.858  19.412  0.00  0.00    +0.000 A 
ATOM      2  C   UNL     1       3.050   3.781  20.317  0.00  0.00    +0.000 A 
ATOM      3  C   UNL     1       2.097   4.787  20.331  0.00  0.00    +0.000 A 
ATOM      4  C   UNL     1       2.206   5.809  19.401  0.00  0.00    +0.000 A 
ATOM      5  N   UNL     1       3.192   5.898  18.479  0.00  0.00    +0.000 NA
ATOM      6  C   UNL     1       4.122   4.919  18.469  0.00  0.00    +0.000 A 
ENDROOT
BRANCH   6   7
ATOM      7  N   UNL     1       5.241   5.011  17.626  0.00  0.00    +0.000 N 
ATOM      8  C   UNL     1       5.859   6.342  17.566  0.00  0.00    +0.000 C 
ATOM      9  C   UNL     1       7.273   6.159  16.965  0.00  0.00    +0.000 C 
ATOM     10  N   UNL     1       7.279   5.516  15.631  0.00  0.00    +0.000 NA
ATOM     11  C   UNL     1       6.453   4.286  15.639  0.00  0.00    +0.000 C 
ATOM     12  C   UNL     1       5.047   4.465  16.271  0.00  0.00    +0.000 C 
ATOM     13  H   UNL     1       8.238   5.265  15.398  0.00  0.00    +0.000 HD
ENDBRANCH   6   7
BRANCH   1  14
ATOM     14  N   UNL     1       5.069   2.818  19.356  0.00  0.00    +0.000 N 
ATOM     15  H   UNL     1       5.425   2.670  18.417  0.00  0.00    +0.000 HD
ATOM     16  H   UNL     1       4.634   1.980  19.740  0.00  0.00    +0.000 HD
ENDBRANCH   1  14
TORSDOF 2
ENDMDL
