MODEL 1
REMARK VINA RESULT:      -8.0      0.000      0.000
REMARK  Name = 
REMARK  6 active torsions:
REMARK  status: ('A' for Active; 'I' for Inactive)
REMARK    1  A    between atoms: N_1  and  C_2
REMARK    2  A    between atoms: C_8  and  N_9
REMARK    3  A    between atoms: C_10  and  C_12
REMARK    4  A    between atoms: C_15  and  N_16
REMARK    5  A    between atoms: C_17  and  C_19
REMARK    6  A    between atoms: C_21  and  C_22
REMARK                            x       y       z     vdW  Elec       q    Type
REMARK                         _______ _______ _______ _____ _____    ______ ____
ROOT
ATOM      1  C   UNL     1       6.750   6.424  18.240  0.00  0.00    +0.000 A 
ATOM      2  C   UNL     1       7.886   6.511  19.039  0.00  0.00    +0.000 A 
ATOM      3  C   UNL     1       8.680   7.655  18.995  0.00  0.00    +0.000 A 
ATOM      4  C   UNL     1       8.368   8.724  18.148  0.00  0.00    +0.000 A 
ATOM      5  C   UNL     1       7.244   8.619  17.321  0.00  0.00    +0.000 A 
ATOM      6  C   UNL     1       6.441   7.470  17.360  0.00  0.00    +0.000 A 
ENDROOT
BRANCH   1   8
ATOM      7  N   UNL     1       4.542   5.436  18.216  0.00  0.00    +0.000 N 
ATOM      8  C   UNL     1       5.904   5.204  18.271  0.00  0.00    +0.000 C 
ATOM      9  O   UNL     1       6.470   4.121  18.311  0.00  0.00    +0.000 OA
ATOM     10  H   UNL     1       4.245   6.355  17.925  0.00  0.00    +0.000 HD
BRANCH   7  17
ATOM     11  C   UNL     1       2.694   4.498  19.511  0.00  0.00    +0.000 A 
ATOM     12  C   UNL     1       1.623   3.594  19.593  0.00  0.00    +0.000 A 
ATOM     13  C   UNL     1       1.435   2.628  18.610  0.00  0.00    +0.000 A 
ATOM     14  F   UNL     1       0.420   1.761  18.722  0.00  0.00    +0.000 F 
ATOM     15  C   UNL     1       2.275   2.555  17.514  0.00  0.00    +0.000 A 
ATOM     16  C   UNL     1       3.312   3.479  17.386  0.00  0.00    +0.000 A 
ATOM     17  C   UNL     1       3.514   4.473  18.355  0.00  0.00    +0.000 A 
BRANCH  11  18
ATOM     18  N   UNL     1       2.751   5.540  20.461  0.00  0.00    +0.000 N 
ATOM     19  H   UNL     1       1.833   5.874  20.746  0.00  0.00    +0.000 HD
ATOM     20  H   UNL     1       3.343   5.378  21.263  0.00  0.00    +0.000 HD
ENDBRANCH  11  18
ENDBRANCH   7  17
ENDBRANCH   1   8
BRANCH   4  21
ATOM     21  N   UNL     1       9.153   9.900  18.082  0.00  0.00    +0.000 N 
ATOM     22  C   UNL     1       9.444  10.728  19.149  0.00  0.00    +0.000 C 
ATOM     23  O   UNL     1       9.068  10.596  20.306  0.00  0.00    +0.000 OA
ATOM     24  H   UNL     1       9.531  10.148  17.177  0.00  0.00    +0.000 HD
BRANCH  22  25
ATOM     25  C   UNL     1      10.333  11.881  18.825  0.00  0.00    +0.000 C 
ATOM     26  C   UNL     1      11.096  11.864  17.519  0.00  0.00    +0.000 C 
ATOM     27  C   UNL     1       9.920  12.797  17.682  0.00  0.00    +0.000 C 
BRANCH  27  28
ATOM     28  C   UNL     1      10.175  14.279  17.745  0.00  0.00    +0.000 A 
ATOM     29  C   UNL     1      11.466  14.792  17.533  0.00  0.00    +0.000 A 
ATOM     30  C   UNL     1      11.725  16.162  17.600  0.00  0.00    +0.000 A 
ATOM     31  C   UNL     1      10.689  17.050  17.874  0.00  0.00    +0.000 A 
ATOM     32  C   UNL     1       9.397  16.569  18.063  0.00  0.00    +0.000 A 
ATOM     33  C   UNL     1       9.143  15.197  17.992  0.00  0.00    +0.000 A 
ENDBRANCH  27  28
ENDBRANCH  22  25
ENDBRANCH   4  21
TORSDOF 6
ENDMDL
MODEL 2
REMARK VINA RESULT:      -8.0      7.674     10.571
REMARK  Name = 
REMARK  6 active torsions:
REMARK  status: ('A' for Active; 'I' for Inactive)
REMARK    1  A    between atoms: N_1  and  C_2
REMARK    2  A    between atoms: C_8  and  N_9
REMARK    3  A    between atoms: C_10  and  C_12
REMARK    4  A    between atoms: C_15  and  N_16
REMARK    5  A    between atoms: C_17  and  C_19
REMARK    6  A    between atoms: C_21  and  C_22
REMARK                            x       y       z     vdW  Elec       q    Type
REMARK                         _______ _______ _______ _____ _____    ______ ____
ROOT
ATOM      1  C   UNL     1       1.821   8.528  18.836  0.00  0.00    +0.000 A 
ATOM      2  C   UNL     1       1.765   8.088  20.155  0.00  0.00    +0.000 A 
ATOM      3  C   UNL     1       0.854   8.663  21.039  0.00  0.00    +0.000 A 
ATOM      4  C   UNL     1      -0.004   9.690  20.634  0.00  0.00    +0.000 A 
ATOM      5  C   UNL     1       0.079  10.152  19.316  0.00  0.00    +0.000 A 
ATOM      6  C   UNL     1       0.993   9.579  18.421  0.00  0.00    +0.000 A 
ENDROOT
BRANCH   1   8
ATOM      7  N   UNL     1       3.399   6.765  18.328  0.00  0.00    +0.000 N 
ATOM      8  C   UNL     1       2.795   7.930  17.889  0.00  0.00    +0.000 C 
ATOM      9  O   UNL     1       2.956   8.486  16.812  0.00  0.00    +0.000 OA
ATOM     10  H   UNL     1       2.973   6.297  19.114  0.00  0.00    +0.000 HD
BRANCH   7  17
ATOM     11  C   UNL     1       4.237   4.718  17.293  0.00  0.00    +0.000 A 
ATOM     12  C   UNL     1       5.253   4.062  16.579  0.00  0.00    +0.000 A 
ATOM     13  C   UNL     1       6.476   4.684  16.357  0.00  0.00    +0.000 A 
ATOM     14  F   UNL     1       7.439   4.030  15.695  0.00  0.00    +0.000 F 
ATOM     15  C   UNL     1       6.710   5.973  16.802  0.00  0.00    +0.000 A 
ATOM     16  C   UNL     1       5.695   6.661  17.465  0.00  0.00    +0.000 A 
ATOM     17  C   UNL     1       4.446   6.063  17.688  0.00  0.00    +0.000 A 
BRANCH  11  18
ATOM     18  N   UNL     1       2.974   4.091  17.366  0.00  0.00    +0.000 N 
ATOM     19  H   UNL     1       2.350   4.356  16.606  0.00  0.00    +0.000 HD
ATOM     20  H   UNL     1       2.981   3.090  17.498  0.00  0.00    +0.000 HD
ENDBRANCH  11  18
ENDBRANCH   7  17
ENDBRANCH   1   8
BRANCH   4  21
ATOM     21  N   UNL     1      -0.941  10.292  21.508  0.00  0.00    +0.000 N 
ATOM     22  C   UNL     1      -0.773  11.506  22.148  0.00  0.00    +0.000 C 
ATOM     23  O   UNL     1       0.202  12.242  22.083  0.00  0.00    +0.000 OA
ATOM     24  H   UNL     1      -1.804   9.790  21.670  0.00  0.00    +0.000 HD
BRANCH  22  25
ATOM     25  C   UNL     1      -1.931  11.943  22.980  0.00  0.00    +0.000 C 
ATOM     26  C   UNL     1      -1.982  13.378  23.454  0.00  0.00    +0.000 C 
ATOM     27  C   UNL     1      -2.920  12.920  22.363  0.00  0.00    +0.000 C 
BRANCH  27  28
ATOM     28  C   UNL     1      -4.392  12.829  22.664  0.00  0.00    +0.000 A 
ATOM     29  C   UNL     1      -5.321  12.631  21.630  0.00  0.00    +0.000 A 
ATOM     30  C   UNL     1      -6.691  12.556  21.887  0.00  0.00    +0.000 A 
ATOM     31  C   UNL     1      -7.158  12.673  23.192  0.00  0.00    +0.000 A 
ATOM     32  C   UNL     1      -6.256  12.846  24.238  0.00  0.00    +0.000 A 
ATOM     33  C   UNL     1      -4.886  12.916  23.974  0.00  0.00    +0.000 A 
ENDBRANCH  27  28
ENDBRANCH  22  25
ENDBRANCH   4  21
TORSDOF 6
ENDMDL
MODEL 3
REMARK VINA RESULT:      -8.0      0.856      1.346
REMARK  Name = 
REMARK  6 active torsions:
REMARK  status: ('A' for Active; 'I' for Inactive)
REMARK    1  A    between atoms: N_1  and  C_2
REMARK    2  A    between atoms: C_8  and  N_9
REMARK    3  A    between atoms: C_10  and  C_12
REMARK    4  A    between atoms: C_15  and  N_16
REMARK    5  A    between atoms: C_17  and  C_19
REMARK    6  A    between atoms: C_21  and  C_22
REMARK                            x       y       z     vdW  Elec       q    Type
REMARK                         _______ _______ _______ _____ _____    ______ ____
ROOT
ATOM      1  C   UNL     1       6.584   6.463  17.869  0.00  0.00    +0.000 A 
ATOM      2  C   UNL     1       7.742   6.420  18.641  0.00  0.00    +0.000 A 
ATOM      3  C   UNL     1       8.555   7.547  18.732  0.00  0.00    +0.000 A 
ATOM      4  C   UNL     1       8.243   8.727  18.050  0.00  0.00    +0.000 A 
ATOM      5  C   UNL     1       7.096   8.755  17.248  0.00  0.00    +0.000 A 
ATOM      6  C   UNL     1       6.273   7.624  17.151  0.00  0.00    +0.000 A 
ENDROOT
BRANCH   1   8
ATOM      7  N   UNL     1       4.437   5.417  18.259  0.00  0.00    +0.000 N 
ATOM      8  C   UNL     1       5.716   5.263  17.756  0.00  0.00    +0.000 C 
ATOM      9  O   UNL     1       6.183   4.273  17.211  0.00  0.00    +0.000 OA
ATOM     10  H   UNL     1       4.124   6.360  18.435  0.00  0.00    +0.000 HD
BRANCH   7  17
ATOM     11  C   UNL     1       3.802   3.180  19.008  0.00  0.00    +0.000 A 
ATOM     12  C   UNL     1       2.795   2.224  19.214  0.00  0.00    +0.000 A 
ATOM     13  C   UNL     1       1.508   2.436  18.732  0.00  0.00    +0.000 A 
ATOM     14  F   UNL     1       0.569   1.500  18.920  0.00  0.00    +0.000 F 
ATOM     15  C   UNL     1       1.180   3.606  18.069  0.00  0.00    +0.000 A 
ATOM     16  C   UNL     1       2.153   4.591  17.902  0.00  0.00    +0.000 A 
ATOM     17  C   UNL     1       3.454   4.409  18.393  0.00  0.00    +0.000 A 
BRANCH  11  18
ATOM     18  N   UNL     1       5.047   2.972  19.639  0.00  0.00    +0.000 N 
ATOM     19  H   UNL     1       4.965   2.537  20.556  0.00  0.00    +0.000 HD
ATOM     20  H   UNL     1       5.756   2.515  19.084  0.00  0.00    +0.000 HD
ENDBRANCH  11  18
ENDBRANCH   7  17
ENDBRANCH   1   8
BRANCH   4  21
ATOM     21  N   UNL     1       9.048   9.889  18.125  0.00  0.00    +0.000 N 
ATOM     22  C   UNL     1       9.363  10.571  19.285  0.00  0.00    +0.000 C 
ATOM     23  O   UNL     1       8.993  10.301  20.419  0.00  0.00    +0.000 OA
ATOM     24  H   UNL     1       9.423  10.243  17.254  0.00  0.00    +0.000 HD
BRANCH  22  25
ATOM     25  C   UNL     1      10.269  11.741  19.099  0.00  0.00    +0.000 C 
ATOM     26  C   UNL     1      11.450  11.603  18.164  0.00  0.00    +0.000 C 
ATOM     27  C   UNL     1      10.263  12.438  17.747  0.00  0.00    +0.000 C 
BRANCH  27  28
ATOM     28  C   UNL     1      10.429  13.930  17.642  0.00  0.00    +0.000 A 
ATOM     29  C   UNL     1       9.368  14.791  17.969  0.00  0.00    +0.000 A 
ATOM     30  C   UNL     1       9.498  16.177  17.866  0.00  0.00    +0.000 A 
ATOM     31  C   UNL     1      10.700  16.730  17.437  0.00  0.00    +0.000 A 
ATOM     32  C   UNL     1      11.774  15.900  17.130  0.00  0.00    +0.000 A 
ATOM     33  C   UNL     1      11.639  14.514  17.238  0.00  0.00    +0.000 A 
ENDBRANCH  27  28
ENDBRANCH  22  25
ENDBRANCH   4  21
TORSDOF 6
ENDMDL
MODEL 4
REMARK VINA RESULT:      -7.9      7.555     10.834
REMARK  Name = 
REMARK  6 active torsions:
REMARK  status: ('A' for Active; 'I' for Inactive)
REMARK    1  A    between atoms: N_1  and  C_2
REMARK    2  A    between atoms: C_8  and  N_9
REMARK    3  A    between atoms: C_10  and  C_12
REMARK    4  A    between atoms: C_15  and  N_16
REMARK    5  A    between atoms: C_17  and  C_19
REMARK    6  A    between atoms: C_21  and  C_22
REMARK                            x       y       z     vdW  Elec       q    Type
REMARK                         _______ _______ _______ _____ _____    ______ ____
ROOT
ATOM      1  C   UNL     1       0.129  10.651  21.427  0.00  0.00    +0.000 A 
ATOM      2  C   UNL     1       0.642   9.669  22.270  0.00  0.00    +0.000 A 
ATOM      3  C   UNL     1       1.375   8.611  21.736  0.00  0.00    +0.000 A 
ATOM      4  C   UNL     1       1.599   8.502  20.360  0.00  0.00    +0.000 A 
ATOM      5  C   UNL     1       1.053   9.473  19.513  0.00  0.00    +0.000 A 
ATOM      6  C   UNL     1       0.314  10.540  20.043  0.00  0.00    +0.000 A 
ENDROOT
BRANCH   1   8
ATOM      7  N   UNL     1      -2.021  11.537  22.095  0.00  0.00    +0.000 N 
ATOM      8  C   UNL     1      -0.663  11.776  21.985  0.00  0.00    +0.000 C 
ATOM      9  O   UNL     1      -0.058  12.784  22.321  0.00  0.00    +0.000 OA
ATOM     10  H   UNL     1      -2.324  10.578  22.023  0.00  0.00    +0.000 HD
BRANCH   7  17
ATOM     11  C   UNL     1      -3.535  13.359  21.499  0.00  0.00    +0.000 A 
ATOM     12  C   UNL     1      -4.584  14.217  21.867  0.00  0.00    +0.000 A 
ATOM     13  C   UNL     1      -5.031  14.266  23.182  0.00  0.00    +0.000 A 
ATOM     14  F   UNL     1      -6.016  15.110  23.515  0.00  0.00    +0.000 F 
ATOM     15  C   UNL     1      -4.478  13.449  24.152  0.00  0.00    +0.000 A 
ATOM     16  C   UNL     1      -3.473  12.551  23.796  0.00  0.00    +0.000 A 
ATOM     17  C   UNL     1      -3.015  12.470  22.473  0.00  0.00    +0.000 A 
BRANCH  11  18
ATOM     18  N   UNL     1      -3.220  13.253  20.127  0.00  0.00    +0.000 N 
ATOM     19  H   UNL     1      -3.921  13.675  19.521  0.00  0.00    +0.000 HD
ATOM     20  H   UNL     1      -2.290  13.540  19.861  0.00  0.00    +0.000 HD
ENDBRANCH  11  18
ENDBRANCH   7  17
ENDBRANCH   1   8
BRANCH   4  21
ATOM     21  N   UNL     1       2.341   7.441  19.788  0.00  0.00    +0.000 N 
ATOM     22  C   UNL     1       2.112   6.096  20.006  0.00  0.00    +0.000 C 
ATOM     23  O   UNL     1       1.256   5.605  20.730  0.00  0.00    +0.000 OA
ATOM     24  H   UNL     1       3.097   7.695  19.166  0.00  0.00    +0.000 HD
BRANCH  22  25
ATOM     25  C   UNL     1       3.005   5.175  19.246  0.00  0.00    +0.000 C 
ATOM     26  C   UNL     1       2.390   4.258  18.212  0.00  0.00    +0.000 C 
ATOM     27  C   UNL     1       3.208   5.445  17.763  0.00  0.00    +0.000 C 
BRANCH  27  28
ATOM     28  C   UNL     1       4.539   5.200  17.104  0.00  0.00    +0.000 A 
ATOM     29  C   UNL     1       4.742   4.062  16.306  0.00  0.00    +0.000 A 
ATOM     30  C   UNL     1       5.973   3.811  15.697  0.00  0.00    +0.000 A 
ATOM     31  C   UNL     1       7.026   4.703  15.871  0.00  0.00    +0.000 A 
ATOM     32  C   UNL     1       6.843   5.851  16.637  0.00  0.00    +0.000 A 
ATOM     33  C   UNL     1       5.608   6.098  17.241  0.00  0.00    +0.000 A 
ENDBRANCH  27  28
ENDBRANCH  22  25
ENDBRANCH   4  21
TORSDOF 6
ENDMDL
MODEL 5
REMARK VINA RESULT:      -7.9      7.634     10.858
REMARK  Name = 
REMARK  6 active torsions:
REMARK  status: ('A' for Active; 'I' for Inactive)
REMARK    1  A    between atoms: N_1  and  C_2
REMARK    2  A    between atoms: C_8  and  N_9
REMARK    3  A    between atoms: C_10  and  C_12
REMARK    4  A    between atoms: C_15  and  N_16
REMARK    5  A    between atoms: C_17  and  C_19
REMARK    6  A    between atoms: C_21  and  C_22
REMARK                            x       y       z     vdW  Elec       q    Type
REMARK                         _______ _______ _______ _____ _____    ______ ____
ROOT
ATOM      1  C   UNL     1      -0.190  10.551  20.736  0.00  0.00    +0.000 A 
ATOM      2  C   UNL     1       0.227   9.589  21.652  0.00  0.00    +0.000 A 
ATOM      3  C   UNL     1       1.076   8.563  21.242  0.00  0.00    +0.000 A 
ATOM      4  C   UNL     1       1.514   8.467  19.917  0.00  0.00    +0.000 A 
ATOM      5  C   UNL     1       1.066   9.418  18.992  0.00  0.00    +0.000 A 
ATOM      6  C   UNL     1       0.210  10.452  19.398  0.00  0.00    +0.000 A 
ENDROOT
BRANCH   1   8
ATOM      7  N   UNL     1      -0.999  12.008  22.490  0.00  0.00    +0.000 N 
ATOM      8  C   UNL     1      -1.104  11.641  21.161  0.00  0.00    +0.000 C 
ATOM      9  O   UNL     1      -1.834  12.134  20.312  0.00  0.00    +0.000 OA
ATOM     10  H   UNL     1      -0.180  11.694  22.989  0.00  0.00    +0.000 HD
BRANCH   7  17
ATOM     11  C   UNL     1      -1.367  14.244  23.404  0.00  0.00    +0.000 A 
ATOM     12  C   UNL     1      -2.235  15.164  24.013  0.00  0.00    +0.000 A 
ATOM     13  C   UNL     1      -3.480  14.759  24.483  0.00  0.00    +0.000 A 
ATOM     14  F   UNL     1      -4.281  15.649  25.082  0.00  0.00    +0.000 F 
ATOM     15  C   UNL     1      -3.907  13.452  24.331  0.00  0.00    +0.000 A 
ATOM     16  C   UNL     1      -3.082  12.535  23.680  0.00  0.00    +0.000 A 
ATOM     17  C   UNL     1      -1.828  12.921  23.183  0.00  0.00    +0.000 A 
BRANCH  11  18
ATOM     18  N   UNL     1      -0.179  14.741  22.826  0.00  0.00    +0.000 N 
ATOM     19  H   UNL     1       0.592  14.807  23.488  0.00  0.00    +0.000 HD
ATOM     20  H   UNL     1       0.117  14.300  21.968  0.00  0.00    +0.000 HD
ENDBRANCH  11  18
ENDBRANCH   7  17
ENDBRANCH   1   8
BRANCH   4  21
ATOM     21  N   UNL     1       2.378   7.440  19.470  0.00  0.00    +0.000 N 
ATOM     22  C   UNL     1       2.315   6.115  19.861  0.00  0.00    +0.000 C 
ATOM     23  O   UNL     1       1.528   5.621  20.655  0.00  0.00    +0.000 OA
ATOM     24  H   UNL     1       3.097   7.701  18.808  0.00  0.00    +0.000 HD
BRANCH  22  25
ATOM     25  C   UNL     1       3.312   5.219  19.207  0.00  0.00    +0.000 C 
ATOM     26  C   UNL     1       2.812   4.015  18.440  0.00  0.00    +0.000 C 
ATOM     27  C   UNL     1       3.363   5.202  17.687  0.00  0.00    +0.000 C 
BRANCH  27  28
ATOM     28  C   UNL     1       4.670   5.053  16.955  0.00  0.00    +0.000 A 
ATOM     29  C   UNL     1       4.883   3.969  16.087  0.00  0.00    +0.000 A 
ATOM     30  C   UNL     1       6.092   3.806  15.410  0.00  0.00    +0.000 A 
ATOM     31  C   UNL     1       7.115   4.733  15.584  0.00  0.00    +0.000 A 
ATOM     32  C   UNL     1       6.920   5.829  16.420  0.00  0.00    +0.000 A 
ATOM     33  C   UNL     1       5.706   5.989  17.093  0.00  0.00    +0.000 A 
ENDBRANCH  27  28
ENDBRANCH  22  25
ENDBRANCH   4  21
TORSDOF 6
ENDMDL
MODEL 6
REMARK VINA RESULT:      -7.9      0.566      1.065
REMARK  Name = 
REMARK  6 active torsions:
REMARK  status: ('A' for Active; 'I' for Inactive)
REMARK    1  A    between atoms: N_1  and  C_2
REMARK    2  A    between atoms: C_8  and  N_9
REMARK    3  A    between atoms: C_10  and  C_12
REMARK    4  A    between atoms: C_15  and  N_16
REMARK    5  A    between atoms: C_17  and  C_19
REMARK    6  A    between atoms: C_21  and  C_22
REMARK                            x       y       z     vdW  Elec       q    Type
REMARK                         _______ _______ _______ _____ _____    ______ ____
ROOT
ATOM      1  C   UNL     1       6.724   6.370  18.200  0.00  0.00    +0.000 A 
ATOM      2  C   UNL     1       6.361   7.449  17.399  0.00  0.00    +0.000 A 
ATOM      3  C   UNL     1       7.167   8.585  17.360  0.00  0.00    +0.000 A 
ATOM      4  C   UNL     1       8.334   8.676  18.124  0.00  0.00    +0.000 A 
ATOM      5  C   UNL     1       8.678   7.602  18.954  0.00  0.00    +0.000 A 
ATOM      6  C   UNL     1       7.872   6.456  18.999  0.00  0.00    +0.000 A 
ENDROOT
BRANCH   1   8
ATOM      7  N   UNL     1       4.507   5.401  18.169  0.00  0.00    +0.000 N 
ATOM      8  C   UNL     1       5.867   5.160  18.258  0.00  0.00    +0.000 C 
ATOM      9  O   UNL     1       6.422   4.073  18.344  0.00  0.00    +0.000 OA
ATOM     10  H   UNL     1       4.224   6.312  17.842  0.00  0.00    +0.000 HD
BRANCH   7  17
ATOM     11  C   UNL     1       2.586   4.564  19.424  0.00  0.00    +0.000 A 
ATOM     12  C   UNL     1       1.507   3.669  19.513  0.00  0.00    +0.000 A 
ATOM     13  C   UNL     1       1.369   2.633  18.595  0.00  0.00    +0.000 A 
ATOM     14  F   UNL     1       0.345   1.778  18.714  0.00  0.00    +0.000 F 
ATOM     15  C   UNL     1       2.269   2.479  17.556  0.00  0.00    +0.000 A 
ATOM     16  C   UNL     1       3.316   3.389  17.419  0.00  0.00    +0.000 A 
ATOM     17  C   UNL     1       3.469   4.452  18.321  0.00  0.00    +0.000 A 
BRANCH  11  18
ATOM     18  N   UNL     1       2.596   5.672  20.297  0.00  0.00    +0.000 N 
ATOM     19  H   UNL     1       3.530   6.038  20.471  0.00  0.00    +0.000 HD
ATOM     20  H   UNL     1       1.950   6.417  20.078  0.00  0.00    +0.000 HD
ENDBRANCH  11  18
ENDBRANCH   7  17
ENDBRANCH   1   8
BRANCH   4  21
ATOM     21  N   UNL     1       9.174   9.815  18.105  0.00  0.00    +0.000 N 
ATOM     22  C   UNL     1       9.460  10.617  19.193  0.00  0.00    +0.000 C 
ATOM     23  O   UNL     1       9.030  10.490  20.332  0.00  0.00    +0.000 OA
ATOM     24  H   UNL     1       9.600  10.055  17.219  0.00  0.00    +0.000 HD
BRANCH  22  25
ATOM     25  C   UNL     1      10.413  11.731  18.920  0.00  0.00    +0.000 C 
ATOM     26  C   UNL     1      11.026  11.840  17.541  0.00  0.00    +0.000 C 
ATOM     27  C   UNL     1       9.968  12.830  17.967  0.00  0.00    +0.000 C 
BRANCH  27  28
ATOM     28  C   UNL     1      10.367  14.263  18.194  0.00  0.00    +0.000 A 
ATOM     29  C   UNL     1      10.886  15.035  17.141  0.00  0.00    +0.000 A 
ATOM     30  C   UNL     1      11.273  16.362  17.334  0.00  0.00    +0.000 A 
ATOM     31  C   UNL     1      11.142  16.946  18.590  0.00  0.00    +0.000 A 
ATOM     32  C   UNL     1      10.608  16.210  19.644  0.00  0.00    +0.000 A 
ATOM     33  C   UNL     1      10.218  14.884  19.443  0.00  0.00    +0.000 A 
ENDBRANCH  27  28
ENDBRANCH  22  25
ENDBRANCH   4  21
TORSDOF 6
ENDMDL
MODEL 7
REMARK VINA RESULT:      -7.9      6.298      7.424
REMARK  Name = 
REMARK  6 active torsions:
REMARK  status: ('A' for Active; 'I' for Inactive)
REMARK    1  A    between atoms: N_1  and  C_2
REMARK    2  A    between atoms: C_8  and  N_9
REMARK    3  A    between atoms: C_10  and  C_12
REMARK    4  A    between atoms: C_15  and  N_16
REMARK    5  A    between atoms: C_17  and  C_19
REMARK    6  A    between atoms: C_21  and  C_22
REMARK                            x       y       z     vdW  Elec       q    Type
REMARK                         _______ _______ _______ _____ _____    ______ ____
ROOT
ATOM      1  C   UNL     1       1.614   8.258  19.679  0.00  0.00    +0.000 A 
ATOM      2  C   UNL     1       1.805   8.936  18.478  0.00  0.00    +0.000 A 
ATOM      3  C   UNL     1       1.425  10.272  18.370  0.00  0.00    +0.000 A 
ATOM      4  C   UNL     1       0.840  10.952  19.442  0.00  0.00    +0.000 A 
ATOM      5  C   UNL     1       0.620  10.257  20.637  0.00  0.00    +0.000 A 
ATOM      6  C   UNL     1       0.998   8.912  20.754  0.00  0.00    +0.000 A 
ENDROOT
BRANCH   1   8
ATOM      7  N   UNL     1       2.526   6.266  18.652  0.00  0.00    +0.000 N 
ATOM      8  C   UNL     1       2.004   6.831  19.802  0.00  0.00    +0.000 C 
ATOM      9  O   UNL     1       1.865   6.295  20.892  0.00  0.00    +0.000 OA
ATOM     10  H   UNL     1       2.817   6.899  17.922  0.00  0.00    +0.000 HD
BRANCH   7  17
ATOM     11  C   UNL     1       4.167   4.460  18.765  0.00  0.00    +0.000 A 
ATOM     12  C   UNL     1       4.456   3.091  18.649  0.00  0.00    +0.000 A 
ATOM     13  C   UNL     1       3.509   2.208  18.141  0.00  0.00    +0.000 A 
ATOM     14  F   UNL     1       3.815   0.911  18.016  0.00  0.00    +0.000 F 
ATOM     15  C   UNL     1       2.252   2.650  17.770  0.00  0.00    +0.000 A 
ATOM     16  C   UNL     1       1.927   3.997  17.929  0.00  0.00    +0.000 A 
ATOM     17  C   UNL     1       2.858   4.905  18.454  0.00  0.00    +0.000 A 
BRANCH  11  18
ATOM     18  N   UNL     1       5.115   5.280  19.415  0.00  0.00    +0.000 N 
ATOM     19  H   UNL     1       5.829   4.752  19.911  0.00  0.00    +0.000 HD
ATOM     20  H   UNL     1       5.528   6.012  18.855  0.00  0.00    +0.000 HD
ENDBRANCH  11  18
ENDBRANCH   7  17
ENDBRANCH   1   8
BRANCH   4  21
ATOM     21  N   UNL     1       0.447  12.309  19.364  0.00  0.00    +0.000 N 
ATOM     22  C   UNL     1       0.678  13.267  20.333  0.00  0.00    +0.000 C 
ATOM     23  O   UNL     1       1.238  13.102  21.409  0.00  0.00    +0.000 OA
ATOM     24  H   UNL     1      -0.041  12.597  18.526  0.00  0.00    +0.000 HD
BRANCH  22  25
ATOM     25  C   UNL     1       0.204  14.638  19.988  0.00  0.00    +0.000 C 
ATOM     26  C   UNL     1       0.576  15.785  20.901  0.00  0.00    +0.000 C 
ATOM     27  C   UNL     1       1.243  15.660  19.552  0.00  0.00    +0.000 C 
BRANCH  27  28
ATOM     28  C   UNL     1       0.929  16.682  18.492  0.00  0.00    +0.000 A 
ATOM     29  C   UNL     1      -0.374  17.187  18.350  0.00  0.00    +0.000 A 
ATOM     30  C   UNL     1      -0.688  18.125  17.365  0.00  0.00    +0.000 A 
ATOM     31  C   UNL     1       0.304  18.582  16.504  0.00  0.00    +0.000 A 
ATOM     32  C   UNL     1       1.609  18.116  16.639  0.00  0.00    +0.000 A 
ATOM     33  C   UNL     1       1.917  17.180  17.629  0.00  0.00    +0.000 A 
ENDBRANCH  27  28
ENDBRANCH  22  25
ENDBRANCH   4  21
TORSDOF 6
ENDMDL
MODEL 8
REMARK VINA RESULT:      -7.8      8.674     11.760
REMARK  Name = 
REMARK  6 active torsions:
REMARK  status: ('A' for Active; 'I' for Inactive)
REMARK    1  A    between atoms: N_1  and  C_2
REMARK    2  A    between atoms: C_8  and  N_9
REMARK    3  A    between atoms: C_10  and  C_12
REMARK    4  A    between atoms: C_15  and  N_16
REMARK    5  A    between atoms: C_17  and  C_19
REMARK    6  A    between atoms: C_21  and  C_22
REMARK                            x       y       z     vdW  Elec       q    Type
REMARK                         _______ _______ _______ _____ _____    ______ ____
ROOT
ATOM      1  C   UNL     1      -1.270  11.323  22.297  0.00  0.00    +0.000 A 
ATOM      2  C   UNL     1      -0.876  11.318  20.961  0.00  0.00    +0.000 A 
ATOM      3  C   UNL     1      -0.035  10.313  20.491  0.00  0.00    +0.000 A 
ATOM      4  C   UNL     1       0.440   9.306  21.337  0.00  0.00    +0.000 A 
ATOM      5  C   UNL     1       0.069   9.333  22.687  0.00  0.00    +0.000 A 
ATOM      6  C   UNL     1      -0.777  10.343  23.167  0.00  0.00    +0.000 A 
ENDROOT
BRANCH   1   8
ATOM      7  N   UNL     1      -3.494  12.258  22.482  0.00  0.00    +0.000 N 
ATOM      8  C   UNL     1      -2.158  12.397  22.811  0.00  0.00    +0.000 C 
ATOM      9  O   UNL     1      -1.650  13.276  23.492  0.00  0.00    +0.000 OA
ATOM     10  H   UNL     1      -3.792  11.356  22.143  0.00  0.00    +0.000 HD
BRANCH   7  17
ATOM     11  C   UNL     1      -5.438  12.948  23.791  0.00  0.00    +0.000 A 
ATOM     12  C   UNL     1      -6.402  13.926  24.084  0.00  0.00    +0.000 A 
ATOM     13  C   UNL     1      -6.526  15.059  23.288  0.00  0.00    +0.000 A 
ATOM     14  F   UNL     1      -7.469  15.967  23.573  0.00  0.00    +0.000 F 
ATOM     15  C   UNL     1      -5.683  15.268  22.211  0.00  0.00    +0.000 A 
ATOM     16  C   UNL     1      -4.684  14.336  21.936  0.00  0.00    +0.000 A 
ATOM     17  C   UNL     1      -4.527  13.192  22.732  0.00  0.00    +0.000 A 
BRANCH  11  18
ATOM     18  N   UNL     1      -5.269  11.892  24.712  0.00  0.00    +0.000 N 
ATOM     19  H   UNL     1      -6.129  11.379  24.896  0.00  0.00    +0.000 HD
ATOM     20  H   UNL     1      -4.502  11.261  24.529  0.00  0.00    +0.000 HD
ENDBRANCH  11  18
ENDBRANCH   7  17
ENDBRANCH   1   8
BRANCH   4  21
ATOM     21  N   UNL     1       1.294   8.270  20.889  0.00  0.00    +0.000 N 
ATOM     22  C   UNL     1       1.827   8.167  19.618  0.00  0.00    +0.000 C 
ATOM     23  O   UNL     1       1.642   8.929  18.680  0.00  0.00    +0.000 OA
ATOM     24  H   UNL     1       1.533   7.551  21.559  0.00  0.00    +0.000 HD
BRANCH  22  25
ATOM     25  C   UNL     1       2.738   7.004  19.412  0.00  0.00    +0.000 C 
ATOM     26  C   UNL     1       2.172   5.607  19.544  0.00  0.00    +0.000 C 
ATOM     27  C   UNL     1       2.523   6.143  18.176  0.00  0.00    +0.000 C 
BRANCH  27  28
ATOM     28  C   UNL     1       3.687   5.539  17.438  0.00  0.00    +0.000 A 
ATOM     29  C   UNL     1       3.855   4.145  17.386  0.00  0.00    +0.000 A 
ATOM     30  C   UNL     1       4.935   3.567  16.718  0.00  0.00    +0.000 A 
ATOM     31  C   UNL     1       5.869   4.376  16.079  0.00  0.00    +0.000 A 
ATOM     32  C   UNL     1       5.712   5.760  16.095  0.00  0.00    +0.000 A 
ATOM     33  C   UNL     1       4.627   6.333  16.763  0.00  0.00    +0.000 A 
ENDBRANCH  27  28
ENDBRANCH  22  25
ENDBRANCH   4  21
TORSDOF 6
ENDMDL
MODEL 9
REMARK VINA RESULT:      -7.8      7.651     10.928
REMARK  Name = 
REMARK  6 active torsions:
REMARK  status: ('A' for Active; 'I' for Inactive)
REMARK    1  A    between atoms: N_1  and  C_2
REMARK    2  A    between atoms: C_8  and  N_9
REMARK    3  A    between atoms: C_10  and  C_12
REMARK    4  A    between atoms: C_15  and  N_16
REMARK    5  A    between atoms: C_17  and  C_19
REMARK    6  A    between atoms: C_21  and  C_22
REMARK                            x       y       z     vdW  Elec       q    Type
REMARK                         _______ _______ _______ _____ _____    ______ ____
ROOT
ATOM      1  C   UNL     1      -0.106  10.412  21.510  0.00  0.00    +0.000 A 
ATOM      2  C   UNL     1       0.103  10.369  20.134  0.00  0.00    +0.000 A 
ATOM      3  C   UNL     1       0.910   9.374  19.587  0.00  0.00    +0.000 A 
ATOM      4  C   UNL     1       1.533   8.416  20.394  0.00  0.00    +0.000 A 
ATOM      5  C   UNL     1       1.347   8.483  21.779  0.00  0.00    +0.000 A 
ATOM      6  C   UNL     1       0.537   9.482  22.337  0.00  0.00    +0.000 A 
ENDROOT
BRANCH   1   8
ATOM      7  N   UNL     1      -1.983  11.924  21.294  0.00  0.00    +0.000 N 
ATOM      8  C   UNL     1      -0.955  11.475  22.104  0.00  0.00    +0.000 C 
ATOM      9  O   UNL     1      -0.702  11.833  23.245  0.00  0.00    +0.000 OA
ATOM     10  H   UNL     1      -2.219  11.355  20.496  0.00  0.00    +0.000 HD
BRANCH   7  17
ATOM     11  C   UNL     1      -2.614  14.257  20.937  0.00  0.00    +0.000 A 
ATOM     12  C   UNL     1      -3.538  15.295  21.137  0.00  0.00    +0.000 A 
ATOM     13  C   UNL     1      -4.611  15.130  22.007  0.00  0.00    +0.000 A 
ATOM     14  F   UNL     1      -5.466  16.142  22.200  0.00  0.00    +0.000 F 
ATOM     15  C   UNL     1      -4.812  13.932  22.669  0.00  0.00    +0.000 A 
ATOM     16  C   UNL     1      -3.936  12.871  22.442  0.00  0.00    +0.000 A 
ATOM     17  C   UNL     1      -2.855  13.006  21.557  0.00  0.00    +0.000 A 
BRANCH  11  18
ATOM     18  N   UNL     1      -1.630  14.434  19.941  0.00  0.00    +0.000 N 
ATOM     19  H   UNL     1      -1.312  15.398  19.858  0.00  0.00    +0.000 HD
ATOM     20  H   UNL     1      -0.848  13.796  19.969  0.00  0.00    +0.000 HD
ENDBRANCH  11  18
ENDBRANCH   7  17
ENDBRANCH   1   8
BRANCH   4  21
ATOM     21  N   UNL     1       2.357   7.393  19.868  0.00  0.00    +0.000 N 
ATOM     22  C   UNL     1       2.146   6.036  20.027  0.00  0.00    +0.000 C 
ATOM     23  O   UNL     1       1.240   5.502  20.651  0.00  0.00    +0.000 OA
ATOM     24  H   UNL     1       3.162   7.684  19.329  0.00  0.00    +0.000 HD
BRANCH  22  25
ATOM     25  C   UNL     1       3.135   5.161  19.333  0.00  0.00    +0.000 C 
ATOM     26  C   UNL     1       2.621   4.027  18.474  0.00  0.00    +0.000 C 
ATOM     27  C   UNL     1       3.218   5.248  17.816  0.00  0.00    +0.000 C 
BRANCH  27  28
ATOM     28  C   UNL     1       4.537   5.115  17.102  0.00  0.00    +0.000 A 
ATOM     29  C   UNL     1       4.812   3.983  16.317  0.00  0.00    +0.000 A 
ATOM     30  C   UNL     1       6.033   3.835  15.657  0.00  0.00    +0.000 A 
ATOM     31  C   UNL     1       7.005   4.826  15.767  0.00  0.00    +0.000 A 
ATOM     32  C   UNL     1       6.747   5.968  16.520  0.00  0.00    +0.000 A 
ATOM     33  C   UNL     1       5.521   6.112  17.175  0.00  0.00    +0.000 A 
ENDBRANCH  27  28
ENDBRANCH  22  25
ENDBRANCH   4  21
TORSDOF 6
ENDMDL
