MODEL 1
REMARK VINA RESULT:      -7.5      0.000      0.000
REMARK  Name = 
REMARK  6 active torsions:
REMARK  status: ('A' for Active; 'I' for Inactive)
REMARK    1  A    between atoms: C_1  and  C_2
REMARK    2  A    between atoms: C_2  and  C_3
REMARK    3  A    between atoms: C_2  and  C_4
REMARK    4  A    between atoms: C_2  and  N_5
REMARK    5  A    between atoms: N_5  and  C_6
REMARK    6  A    between atoms: C_7  and  C_8
REMARK                            x       y       z     vdW  Elec       q    Type
REMARK                         _______ _______ _______ _____ _____    ______ ____
ROOT
ATOM      1  C   UNL     1       3.020   6.332  19.384  0.00  0.00    +0.000 A 
ATOM      2  C   UNL     1       3.689   6.526  18.166  0.00  0.00    +0.000 A 
ATOM      3  N   UNL     1       3.228   7.647  17.506  0.00  0.00    +0.000 NA
ATOM      4  C   UNL     1       2.340   8.186  18.301  0.00  0.00    +0.000 A 
ATOM      5  C   UNL     1       1.529   9.348  18.131  0.00  0.00    +0.000 A 
ATOM      6  C   UNL     1       0.748   9.781  19.138  0.00  0.00    +0.000 A 
ATOM      7  C   UNL     1       0.755   9.118  20.424  0.00  0.00    +0.000 A 
ATOM      8  C   UNL     1       1.524   8.031  20.579  0.00  0.00    +0.000 A 
ATOM      9  N   UNL     1       2.256   7.506  19.512  0.00  0.00    +0.000 N 
ENDROOT
BRANCH   2  10
ATOM     10  C   UNL     1       4.753   5.736  17.550  0.00  0.00    +0.000 A 
ATOM     11  C   UNL     1       4.515   4.671  16.684  0.00  0.00    +0.000 A 
ATOM     12  C   UNL     1       5.609   4.005  16.143  0.00  0.00    +0.000 A 
ATOM     13  N   UNL     1       6.894   4.331  16.383  0.00  0.00    +0.000 NA
ATOM     14  C   UNL     1       7.107   5.386  17.198  0.00  0.00    +0.000 A 
ATOM     15  C   UNL     1       6.085   6.106  17.792  0.00  0.00    +0.000 A 
ENDBRANCH   2  10
BRANCH   1  16
ATOM     16  N   UNL     1       3.120   5.333  20.341  0.00  0.00    +0.000 N 
ATOM     17  H   UNL     1       3.991   5.348  20.871  0.00  0.00    +0.000 HD
BRANCH  16  19
ATOM     18  C   UNL     1       3.694   2.924  19.814  0.00  0.00    +0.000 C 
ATOM     19  C   UNL     1       2.610   3.937  20.217  0.00  0.00    +0.000 C 
ATOM     20  C   UNL     1       1.362   3.899  19.312  0.00  0.00    +0.000 C 
ATOM     21  C   UNL     1       2.084   3.474  21.600  0.00  0.00    +0.000 C 
ENDBRANCH  16  19
ENDBRANCH   1  16
TORSDOF 3
ENDMDL
MODEL 2
REMARK VINA RESULT:      -7.5      0.144      1.005
REMARK  Name = 
REMARK  6 active torsions:
REMARK  status: ('A' for Active; 'I' for Inactive)
REMARK    1  A    between atoms: C_1  and  C_2
REMARK    2  A    between atoms: C_2  and  C_3
REMARK    3  A    between atoms: C_2  and  C_4
REMARK    4  A    between atoms: C_2  and  N_5
REMARK    5  A    between atoms: N_5  and  C_6
REMARK    6  A    between atoms: C_7  and  C_8
REMARK                            x       y       z     vdW  Elec       q    Type
REMARK                         _______ _______ _______ _____ _____    ______ ____
ROOT
ATOM      1  C   UNL     1       3.059   6.299  19.330  0.00  0.00    +0.000 A 
ATOM      2  C   UNL     1       3.750   6.510  18.127  0.00  0.00    +0.000 A 
ATOM      3  N   UNL     1       3.305   7.645  17.478  0.00  0.00    +0.000 NA
ATOM      4  C   UNL     1       2.406   8.174  18.267  0.00  0.00    +0.000 A 
ATOM      5  C   UNL     1       1.603   9.342  18.102  0.00  0.00    +0.000 A 
ATOM      6  C   UNL     1       0.806   9.762  19.102  0.00  0.00    +0.000 A 
ATOM      7  C   UNL     1       0.788   9.078  20.377  0.00  0.00    +0.000 A 
ATOM      8  C   UNL     1       1.549   7.984  20.527  0.00  0.00    +0.000 A 
ATOM      9  N   UNL     1       2.297   7.475  19.465  0.00  0.00    +0.000 N 
ENDROOT
BRANCH   2  10
ATOM     10  C   UNL     1       4.821   5.727  17.517  0.00  0.00    +0.000 A 
ATOM     11  C   UNL     1       4.596   4.702  16.600  0.00  0.00    +0.000 A 
ATOM     12  C   UNL     1       5.696   4.037  16.071  0.00  0.00    +0.000 A 
ATOM     13  N   UNL     1       6.978   4.330  16.369  0.00  0.00    +0.000 NA
ATOM     14  C   UNL     1       7.181   5.347  17.233  0.00  0.00    +0.000 A 
ATOM     15  C   UNL     1       6.150   6.061  17.820  0.00  0.00    +0.000 A 
ENDBRANCH   2  10
BRANCH   1  16
ATOM     16  N   UNL     1       3.138   5.284  20.271  0.00  0.00    +0.000 N 
ATOM     17  H   UNL     1       4.024   5.250  20.776  0.00  0.00    +0.000 HD
BRANCH  16  19
ATOM     18  C   UNL     1       1.782   3.463  21.393  0.00  0.00    +0.000 C 
ATOM     19  C   UNL     1       2.558   3.915  20.146  0.00  0.00    +0.000 C 
ATOM     20  C   UNL     1       3.639   2.914  19.692  0.00  0.00    +0.000 C 
ATOM     21  C   UNL     1       1.534   3.913  18.981  0.00  0.00    +0.000 C 
ENDBRANCH  16  19
ENDBRANCH   1  16
TORSDOF 3
ENDMDL
MODEL 3
REMARK VINA RESULT:      -7.5      0.214      1.422
REMARK  Name = 
REMARK  6 active torsions:
REMARK  status: ('A' for Active; 'I' for Inactive)
REMARK    1  A    between atoms: C_1  and  C_2
REMARK    2  A    between atoms: C_2  and  C_3
REMARK    3  A    between atoms: C_2  and  C_4
REMARK    4  A    between atoms: C_2  and  N_5
REMARK    5  A    between atoms: N_5  and  C_6
REMARK    6  A    between atoms: C_7  and  C_8
REMARK                            x       y       z     vdW  Elec       q    Type
REMARK                         _______ _______ _______ _____ _____    ______ ____
ROOT
ATOM      1  C   UNL     1       3.042   6.346  19.327  0.00  0.00    +0.000 A 
ATOM      2  C   UNL     1       3.665   6.616  18.098  0.00  0.00    +0.000 A 
ATOM      3  N   UNL     1       3.150   7.753  17.506  0.00  0.00    +0.000 NA
ATOM      4  C   UNL     1       2.274   8.228  18.355  0.00  0.00    +0.000 A 
ATOM      5  C   UNL     1       1.427   9.372  18.266  0.00  0.00    +0.000 A 
ATOM      6  C   UNL     1       0.667   9.735  19.317  0.00  0.00    +0.000 A 
ATOM      7  C   UNL     1       0.736   9.014  20.569  0.00  0.00    +0.000 A 
ATOM      8  C   UNL     1       1.540   7.943  20.648  0.00  0.00    +0.000 A 
ATOM      9  N   UNL     1       2.250   7.491  19.535  0.00  0.00    +0.000 N 
ENDROOT
BRANCH   2  10
ATOM     10  C   UNL     1       4.729   5.888  17.411  0.00  0.00    +0.000 A 
ATOM     11  C   UNL     1       6.061   6.298  17.408  0.00  0.00    +0.000 A 
ATOM     12  C   UNL     1       6.990   5.513  16.735  0.00  0.00    +0.000 A 
ATOM     13  N   UNL     1       6.695   4.363  16.098  0.00  0.00    +0.000 NA
ATOM     14  C   UNL     1       5.407   3.962  16.139  0.00  0.00    +0.000 A 
ATOM     15  C   UNL     1       4.408   4.680  16.774  0.00  0.00    +0.000 A 
ENDBRANCH   2  10
BRANCH   1  16
ATOM     16  N   UNL     1       3.202   5.308  20.231  0.00  0.00    +0.000 N 
ATOM     17  H   UNL     1       4.151   5.212  20.594  0.00  0.00    +0.000 HD
BRANCH  16  19
ATOM     18  C   UNL     1       1.432   3.891  19.105  0.00  0.00    +0.000 C 
ATOM     19  C   UNL     1       2.529   3.978  20.178  0.00  0.00    +0.000 C 
ATOM     20  C   UNL     1       2.053   3.561  21.584  0.00  0.00    +0.000 C 
ATOM     21  C   UNL     1       3.581   2.902  19.805  0.00  0.00    +0.000 C 
ENDBRANCH  16  19
ENDBRANCH   1  16
TORSDOF 3
ENDMDL
MODEL 4
REMARK VINA RESULT:      -7.4      0.502      1.432
REMARK  Name = 
REMARK  6 active torsions:
REMARK  status: ('A' for Active; 'I' for Inactive)
REMARK    1  A    between atoms: C_1  and  C_2
REMARK    2  A    between atoms: C_2  and  C_3
REMARK    3  A    between atoms: C_2  and  C_4
REMARK    4  A    between atoms: C_2  and  N_5
REMARK    5  A    between atoms: N_5  and  C_6
REMARK    6  A    between atoms: C_7  and  C_8
REMARK                            x       y       z     vdW  Elec       q    Type
REMARK                         _______ _______ _______ _____ _____    ______ ____
ROOT
ATOM      1  C   UNL     1       3.309   6.311  19.225  0.00  0.00    +0.000 A 
ATOM      2  C   UNL     1       4.053   6.549  18.058  0.00  0.00    +0.000 A 
ATOM      3  N   UNL     1       3.587   7.654  17.374  0.00  0.00    +0.000 NA
ATOM      4  C   UNL     1       2.620   8.142  18.108  0.00  0.00    +0.000 A 
ATOM      5  C   UNL     1       1.770   9.266  17.888  0.00  0.00    +0.000 A 
ATOM      6  C   UNL     1       0.899   9.653  18.839  0.00  0.00    +0.000 A 
ATOM      7  C   UNL     1       0.846   8.978  20.119  0.00  0.00    +0.000 A 
ATOM      8  C   UNL     1       1.653   7.926  20.321  0.00  0.00    +0.000 A 
ATOM      9  N   UNL     1       2.483   7.448  19.306  0.00  0.00    +0.000 N 
ENDROOT
BRANCH   2  10
ATOM     10  C   UNL     1       5.194   5.816  17.515  0.00  0.00    +0.000 A 
ATOM     11  C   UNL     1       6.338   5.519  18.254  0.00  0.00    +0.000 A 
ATOM     12  C   UNL     1       7.353   4.799  17.634  0.00  0.00    +0.000 A 
ATOM     13  N   UNL     1       7.301   4.346  16.366  0.00  0.00    +0.000 NA
ATOM     14  C   UNL     1       6.173   4.613  15.675  0.00  0.00    +0.000 A 
ATOM     15  C   UNL     1       5.112   5.331  16.200  0.00  0.00    +0.000 A 
ENDBRANCH   2  10
BRANCH   1  16
ATOM     16  N   UNL     1       3.388   5.309  20.179  0.00  0.00    +0.000 N 
ATOM     17  H   UNL     1       4.287   5.260  20.660  0.00  0.00    +0.000 HD
BRANCH  16  19
ATOM     18  C   UNL     1       2.121   3.492  21.405  0.00  0.00    +0.000 C 
ATOM     19  C   UNL     1       2.770   3.954  20.091  0.00  0.00    +0.000 C 
ATOM     20  C   UNL     1       3.777   2.942  19.508  0.00  0.00    +0.000 C 
ATOM     21  C   UNL     1       1.630   3.994  19.041  0.00  0.00    +0.000 C 
ENDBRANCH  16  19
ENDBRANCH   1  16
TORSDOF 3
ENDMDL
MODEL 5
REMARK VINA RESULT:      -7.4      1.380      5.183
REMARK  Name = 
REMARK  6 active torsions:
REMARK  status: ('A' for Active; 'I' for Inactive)
REMARK    1  A    between atoms: C_1  and  C_2
REMARK    2  A    between atoms: C_2  and  C_3
REMARK    3  A    between atoms: C_2  and  C_4
REMARK    4  A    between atoms: C_2  and  N_5
REMARK    5  A    between atoms: N_5  and  C_6
REMARK    6  A    between atoms: C_7  and  C_8
REMARK                            x       y       z     vdW  Elec       q    Type
REMARK                         _______ _______ _______ _____ _____    ______ ____
ROOT
ATOM      1  C   UNL     1       3.174   5.396  17.772  0.00  0.00    +0.000 A 
ATOM      2  C   UNL     1       3.343   6.769  18.012  0.00  0.00    +0.000 A 
ATOM      3  N   UNL     1       4.590   7.206  17.610  0.00  0.00    +0.000 NA
ATOM      4  C   UNL     1       5.174   6.164  17.075  0.00  0.00    +0.000 A 
ATOM      5  C   UNL     1       6.476   6.023  16.509  0.00  0.00    +0.000 A 
ATOM      6  C   UNL     1       6.834   4.869  15.916  0.00  0.00    +0.000 A 
ATOM      7  C   UNL     1       5.896   3.775  15.787  0.00  0.00    +0.000 A 
ATOM      8  C   UNL     1       4.672   3.917  16.316  0.00  0.00    +0.000 A 
ATOM      9  N   UNL     1       4.322   5.065  17.029  0.00  0.00    +0.000 N 
ENDROOT
BRANCH   2  10
ATOM     10  C   UNL     1       2.416   7.735  18.596  0.00  0.00    +0.000 A 
ATOM     11  C   UNL     1       2.031   7.717  19.935  0.00  0.00    +0.000 A 
ATOM     12  C   UNL     1       1.156   8.700  20.382  0.00  0.00    +0.000 A 
ATOM     13  N   UNL     1       0.664   9.690  19.611  0.00  0.00    +0.000 NA
ATOM     14  C   UNL     1       1.073   9.713  18.325  0.00  0.00    +0.000 A 
ATOM     15  C   UNL     1       1.933   8.773  17.784  0.00  0.00    +0.000 A 
ENDBRANCH   2  10
BRANCH   1  16
ATOM     16  N   UNL     1       2.122   4.536  18.047  0.00  0.00    +0.000 N 
ATOM     17  H   UNL     1       1.201   4.923  17.840  0.00  0.00    +0.000 HD
BRANCH  16  19
ATOM     18  C   UNL     1       3.368   3.406  19.939  0.00  0.00    +0.000 C 
ATOM     19  C   UNL     1       2.039   3.578  19.187  0.00  0.00    +0.000 C 
ATOM     20  C   UNL     1       1.414   2.247  18.724  0.00  0.00    +0.000 C 
ATOM     21  C   UNL     1       1.027   4.125  20.226  0.00  0.00    +0.000 C 
ENDBRANCH  16  19
ENDBRANCH   1  16
TORSDOF 3
ENDMDL
MODEL 6
REMARK VINA RESULT:      -7.3      1.379      5.171
REMARK  Name = 
REMARK  6 active torsions:
REMARK  status: ('A' for Active; 'I' for Inactive)
REMARK    1  A    between atoms: C_1  and  C_2
REMARK    2  A    between atoms: C_2  and  C_3
REMARK    3  A    between atoms: C_2  and  C_4
REMARK    4  A    between atoms: C_2  and  N_5
REMARK    5  A    between atoms: N_5  and  C_6
REMARK    6  A    between atoms: C_7  and  C_8
REMARK                            x       y       z     vdW  Elec       q    Type
REMARK                         _______ _______ _______ _____ _____    ______ ____
ROOT
ATOM      1  C   UNL     1       3.187   5.408  17.742  0.00  0.00    +0.000 A 
ATOM      2  C   UNL     1       3.367   6.781  17.971  0.00  0.00    +0.000 A 
ATOM      3  N   UNL     1       4.615   7.205  17.561  0.00  0.00    +0.000 NA
ATOM      4  C   UNL     1       5.189   6.155  17.033  0.00  0.00    +0.000 A 
ATOM      5  C   UNL     1       6.488   6.000  16.463  0.00  0.00    +0.000 A 
ATOM      6  C   UNL     1       6.836   4.839  15.877  0.00  0.00    +0.000 A 
ATOM      7  C   UNL     1       5.890   3.751  15.761  0.00  0.00    +0.000 A 
ATOM      8  C   UNL     1       4.668   3.906  16.292  0.00  0.00    +0.000 A 
ATOM      9  N   UNL     1       4.330   5.062  16.998  0.00  0.00    +0.000 N 
ENDROOT
BRANCH   2  10
ATOM     10  C   UNL     1       2.449   7.758  18.551  0.00  0.00    +0.000 A 
ATOM     11  C   UNL     1       1.852   8.781  17.816  0.00  0.00    +0.000 A 
ATOM     12  C   UNL     1       0.979   9.641  18.473  0.00  0.00    +0.000 A 
ATOM     13  N   UNL     1       0.650   9.542  19.776  0.00  0.00    +0.000 NA
ATOM     14  C   UNL     1       1.210   8.527  20.466  0.00  0.00    +0.000 A 
ATOM     15  C   UNL     1       2.098   7.626  19.904  0.00  0.00    +0.000 A 
ENDBRANCH   2  10
BRANCH   1  16
ATOM     16  N   UNL     1       2.129   4.558  18.028  0.00  0.00    +0.000 N 
ATOM     17  H   UNL     1       1.210   4.956  17.836  0.00  0.00    +0.000 HD
BRANCH  16  19
ATOM     18  C   UNL     1       3.366   3.470  19.950  0.00  0.00    +0.000 C 
ATOM     19  C   UNL     1       2.053   3.593  19.163  0.00  0.00    +0.000 C 
ATOM     20  C   UNL     1       1.492   2.240  18.680  0.00  0.00    +0.000 C 
ATOM     21  C   UNL     1       0.992   4.098  20.174  0.00  0.00    +0.000 C 
ENDBRANCH  16  19
ENDBRANCH   1  16
TORSDOF 3
ENDMDL
MODEL 7
REMARK VINA RESULT:      -7.3      1.422      5.210
REMARK  Name = 
REMARK  6 active torsions:
REMARK  status: ('A' for Active; 'I' for Inactive)
REMARK    1  A    between atoms: C_1  and  C_2
REMARK    2  A    between atoms: C_2  and  C_3
REMARK    3  A    between atoms: C_2  and  C_4
REMARK    4  A    between atoms: C_2  and  N_5
REMARK    5  A    between atoms: N_5  and  C_6
REMARK    6  A    between atoms: C_7  and  C_8
REMARK                            x       y       z     vdW  Elec       q    Type
REMARK                         _______ _______ _______ _____ _____    ______ ____
ROOT
ATOM      1  C   UNL     1       3.654   5.368  18.300  0.00  0.00    +0.000 A 
ATOM      2  C   UNL     1       3.364   6.717  18.046  0.00  0.00    +0.000 A 
ATOM      3  N   UNL     1       4.084   7.198  16.970  0.00  0.00    +0.000 NA
ATOM      4  C   UNL     1       4.763   6.176  16.514  0.00  0.00    +0.000 A 
ATOM      5  C   UNL     1       5.686   6.088  15.429  0.00  0.00    +0.000 A 
ATOM      6  C   UNL     1       6.195   4.895  15.069  0.00  0.00    +0.000 A 
ATOM      7  C   UNL     1       5.777   3.677  15.729  0.00  0.00    +0.000 A 
ATOM      8  C   UNL     1       4.905   3.767  16.743  0.00  0.00    +0.000 A 
ATOM      9  N   UNL     1       4.452   5.006  17.199  0.00  0.00    +0.000 N 
ENDROOT
BRANCH   2  10
ATOM     10  C   UNL     1       2.447   7.621  18.736  0.00  0.00    +0.000 A 
ATOM     11  C   UNL     1       2.106   7.488  20.080  0.00  0.00    +0.000 A 
ATOM     12  C   UNL     1       1.236   8.421  20.634  0.00  0.00    +0.000 A 
ATOM     13  N   UNL     1       0.710   9.464  19.962  0.00  0.00    +0.000 NA
ATOM     14  C   UNL     1       1.077   9.598  18.670  0.00  0.00    +0.000 A 
ATOM     15  C   UNL     1       1.928   8.716  18.028  0.00  0.00    +0.000 A 
ENDBRANCH   2  10
BRANCH   1  16
ATOM     16  N   UNL     1       3.210   4.501  19.287  0.00  0.00    +0.000 N 
ATOM     17  H   UNL     1       3.957   4.038  19.804  0.00  0.00    +0.000 HD
BRANCH  16  19
ATOM     18  C   UNL     1       0.977   3.906  20.320  0.00  0.00    +0.000 C 
ATOM     19  C   UNL     1       2.006   3.624  19.215  0.00  0.00    +0.000 C 
ATOM     20  C   UNL     1       2.426   2.143  19.125  0.00  0.00    +0.000 C 
ATOM     21  C   UNL     1       1.277   3.887  17.872  0.00  0.00    +0.000 C 
ENDBRANCH  16  19
ENDBRANCH   1  16
TORSDOF 3
ENDMDL
MODEL 8
REMARK VINA RESULT:      -7.1      1.401      5.158
REMARK  Name = 
REMARK  6 active torsions:
REMARK  status: ('A' for Active; 'I' for Inactive)
REMARK    1  A    between atoms: C_1  and  C_2
REMARK    2  A    between atoms: C_2  and  C_3
REMARK    3  A    between atoms: C_2  and  C_4
REMARK    4  A    between atoms: C_2  and  N_5
REMARK    5  A    between atoms: N_5  and  C_6
REMARK    6  A    between atoms: C_7  and  C_8
REMARK                            x       y       z     vdW  Elec       q    Type
REMARK                         _______ _______ _______ _____ _____    ______ ____
ROOT
ATOM      1  C   UNL     1       3.643   5.449  18.287  0.00  0.00    +0.000 A 
ATOM      2  C   UNL     1       3.386   6.798  17.996  0.00  0.00    +0.000 A 
ATOM      3  N   UNL     1       4.135   7.239  16.923  0.00  0.00    +0.000 NA
ATOM      4  C   UNL     1       4.800   6.193  16.503  0.00  0.00    +0.000 A 
ATOM      5  C   UNL     1       5.740   6.062  15.438  0.00  0.00    +0.000 A 
ATOM      6  C   UNL     1       6.231   4.851  15.114  0.00  0.00    +0.000 A 
ATOM      7  C   UNL     1       5.777   3.657  15.794  0.00  0.00    +0.000 A 
ATOM      8  C   UNL     1       4.888   3.787  16.790  0.00  0.00    +0.000 A 
ATOM      9  N   UNL     1       4.453   5.046  17.209  0.00  0.00    +0.000 N 
ENDROOT
BRANCH   2  10
ATOM     10  C   UNL     1       2.475   7.736  18.648  0.00  0.00    +0.000 A 
ATOM     11  C   UNL     1       1.873   8.805  17.989  0.00  0.00    +0.000 A 
ATOM     12  C   UNL     1       1.008   9.621  18.710  0.00  0.00    +0.000 A 
ATOM     13  N   UNL     1       0.692   9.437  20.007  0.00  0.00    +0.000 NA
ATOM     14  C   UNL     1       1.258   8.378  20.623  0.00  0.00    +0.000 A 
ATOM     15  C   UNL     1       2.139   7.515  19.993  0.00  0.00    +0.000 A 
ENDBRANCH   2  10
BRANCH   1  16
ATOM     16  N   UNL     1       3.163   4.615  19.284  0.00  0.00    +0.000 N 
ATOM     17  H   UNL     1       3.892   4.165  19.839  0.00  0.00    +0.000 HD
BRANCH  16  19
ATOM     18  C   UNL     1       1.225   3.837  17.854  0.00  0.00    +0.000 C 
ATOM     19  C   UNL     1       1.958   3.740  19.201  0.00  0.00    +0.000 C 
ATOM     20  C   UNL     1       1.044   3.969  20.421  0.00  0.00    +0.000 C 
ATOM     21  C   UNL     1       2.405   2.262  19.340  0.00  0.00    +0.000 C 
ENDBRANCH  16  19
ENDBRANCH   1  16
TORSDOF 3
ENDMDL
