MODEL 1
REMARK VINA RESULT:      -6.1      0.000      0.000
REMARK  Name = 
REMARK  12 active torsions:
REMARK  status: ('A' for Active; 'I' for Inactive)
REMARK    1  A    between atoms: C_2  and  C_3
REMARK    2  A    between atoms: C_2  and  C_6
REMARK    3  A    between atoms: C_3  and  C_4
REMARK    4  A    between atoms: C_4  and  O_5
REMARK    5  A    between atoms: N_9  and  S_10
REMARK    6  A    between atoms: S_10  and  C_13
REMARK    7  A    between atoms: C_13  and  C_14
REMARK    8  A    between atoms: C_13  and  C_15
REMARK    9  A    between atoms: C_13  and  C_16
REMARK   10  A    between atoms: C_17  and  C_18
REMARK   11  A    between atoms: C_18  and  C_19
REMARK   12  A    between atoms: C_19  and  O_20
REMARK                            x       y       z     vdW  Elec       q    Type
REMARK                         _______ _______ _______ _____ _____    ______ ____
ROOT
ATOM      1  C   UNL     1       2.366   3.989  18.817  0.00  0.00    +0.000 C 
ATOM      2  C   UNL     1       2.879   5.132  19.287  0.00  0.00    +0.000 C 
ATOM      3  C   UNL     1       4.034   5.613  18.511  0.00  0.00    +0.000 C 
ATOM      4  N   UNL     1       4.193   4.657  17.403  0.00  0.00    +0.000 NA
ATOM      5  C   UNL     1       3.180   3.504  17.612  0.00  0.00    +0.000 C 
ENDROOT
BRANCH   4   6
ATOM      6  S   UNL     1       5.775   4.319  16.924  0.00  0.00    +0.000 S 
ATOM      7  O   UNL     1       6.569   4.200  18.129  0.00  0.00    +0.000 OA
ATOM      8  O   UNL     1       5.695   3.203  15.995  0.00  0.00    +0.000 OA
BRANCH   6   9
ATOM      9  C   UNL     1       6.413   5.768  15.965  0.00  0.00    +0.000 C 
ATOM     10  C   UNL     1       5.289   6.675  15.443  0.00  0.00    +0.000 C 
ATOM     11  C   UNL     1       7.265   6.628  16.926  0.00  0.00    +0.000 C 
ATOM     12  C   UNL     1       7.295   5.278  14.815  0.00  0.00    +0.000 C 
ENDBRANCH   6   9
ENDBRANCH   4   6
BRANCH   1  14
ATOM     13  C   UNL     1       0.392   2.527  18.728  0.00  0.00    +0.000 C 
ATOM     14  C   UNL     1       1.197   3.357  19.416  0.00  0.00    +0.000 C 
BRANCH  14  15
ATOM     15  C   UNL     1       0.919   3.596  20.901  0.00  0.00    +0.000 C 
BRANCH  15  16
ATOM     16  C   UNL     1       1.429   2.490  21.834  0.00  0.00    +0.000 C 
BRANCH  16  17
ATOM     17  O   UNL     1       2.827   2.608  22.071  0.00  0.00    +0.000 OA
ATOM     18  H   UNL     1       3.238   1.787  21.746  0.00  0.00    +0.000 HD
ENDBRANCH  16  17
ENDBRANCH  15  16
ENDBRANCH  14  15
ENDBRANCH   1  14
BRANCH   5  19
ATOM     19  C   UNL     1       3.850   2.123  17.796  0.00  0.00    +0.000 C 
BRANCH  19  20
ATOM     20  C   UNL     1       4.012   1.636  19.232  0.00  0.00    +0.000 C 
BRANCH  20  21
ATOM     21  O   UNL     1       5.131   2.272  19.847  0.00  0.00    +0.000 OA
ATOM     22  H   UNL     1       5.551   2.843  19.182  0.00  0.00    +0.000 HD
ENDBRANCH  20  21
ENDBRANCH  19  20
ENDBRANCH   5  19
TORSDOF 9
ENDMDL
MODEL 2
REMARK VINA RESULT:      -6.0      1.461      1.850
REMARK  Name = 
REMARK  12 active torsions:
REMARK  status: ('A' for Active; 'I' for Inactive)
REMARK    1  A    between atoms: C_2  and  C_3
REMARK    2  A    between atoms: C_2  and  C_6
REMARK    3  A    between atoms: C_3  and  C_4
REMARK    4  A    between atoms: C_4  and  O_5
REMARK    5  A    between atoms: N_9  and  S_10
REMARK    6  A    between atoms: S_10  and  C_13
REMARK    7  A    between atoms: C_13  and  C_14
REMARK    8  A    between atoms: C_13  and  C_15
REMARK    9  A    between atoms: C_13  and  C_16
REMARK   10  A    between atoms: C_17  and  C_18
REMARK   11  A    between atoms: C_18  and  C_19
REMARK   12  A    between atoms: C_19  and  O_20
REMARK                            x       y       z     vdW  Elec       q    Type
REMARK                         _______ _______ _______ _____ _____    ______ ____
ROOT
ATOM      1  C   UNL     1       2.366   4.721  18.701  0.00  0.00    +0.000 C 
ATOM      2  C   UNL     1       2.653   6.010  18.919  0.00  0.00    +0.000 C 
ATOM      3  C   UNL     1       3.611   6.564  17.948  0.00  0.00    +0.000 C 
ATOM      4  N   UNL     1       3.887   5.474  16.996  0.00  0.00    +0.000 NA
ATOM      5  C   UNL     1       3.169   4.199  17.504  0.00  0.00    +0.000 C 
ENDROOT
BRANCH   4   6
ATOM      6  S   UNL     1       5.460   5.380  16.398  0.00  0.00    +0.000 S 
ATOM      7  O   UNL     1       5.640   4.041  15.878  0.00  0.00    +0.000 OA
ATOM      8  O   UNL     1       5.638   6.528  15.522  0.00  0.00    +0.000 OA
BRANCH   6   9
ATOM      9  C   UNL     1       6.634   5.602  17.813  0.00  0.00    +0.000 C 
ATOM     10  C   UNL     1       5.966   5.375  19.177  0.00  0.00    +0.000 C 
ATOM     11  C   UNL     1       7.739   4.529  17.677  0.00  0.00    +0.000 C 
ATOM     12  C   UNL     1       7.271   6.991  17.742  0.00  0.00    +0.000 C 
ENDBRANCH   6   9
ENDBRANCH   4   6
BRANCH   1  14
ATOM     13  C   UNL     1       0.479   3.174  18.998  0.00  0.00    +0.000 C 
ATOM     14  C   UNL     1       1.413   3.987  19.524  0.00  0.00    +0.000 C 
BRANCH  14  15
ATOM     15  C   UNL     1       1.531   4.094  21.046  0.00  0.00    +0.000 C 
BRANCH  15  16
ATOM     16  C   UNL     1       1.587   2.748  21.781  0.00  0.00    +0.000 C 
BRANCH  16  17
ATOM     17  O   UNL     1       2.929   2.339  22.020  0.00  0.00    +0.000 OA
ATOM     18  H   UNL     1       3.493   3.116  21.857  0.00  0.00    +0.000 HD
ENDBRANCH  16  17
ENDBRANCH  15  16
ENDBRANCH  14  15
ENDBRANCH   1  14
BRANCH   5  19
ATOM     19  C   UNL     1       4.135   3.038  17.828  0.00  0.00    +0.000 C 
BRANCH  19  20
ATOM     20  C   UNL     1       3.517   1.645  17.904  0.00  0.00    +0.000 C 
BRANCH  20  21
ATOM     21  O   UNL     1       4.391   0.753  18.592  0.00  0.00    +0.000 OA
ATOM     22  H   UNL     1       4.807   1.246  19.320  0.00  0.00    +0.000 HD
ENDBRANCH  20  21
ENDBRANCH  19  20
ENDBRANCH   5  19
TORSDOF 9
ENDMDL
MODEL 3
REMARK VINA RESULT:      -5.8      0.412      1.038
REMARK  Name = 
REMARK  12 active torsions:
REMARK  status: ('A' for Active; 'I' for Inactive)
REMARK    1  A    between atoms: C_2  and  C_3
REMARK    2  A    between atoms: C_2  and  C_6
REMARK    3  A    between atoms: C_3  and  C_4
REMARK    4  A    between atoms: C_4  and  O_5
REMARK    5  A    between atoms: N_9  and  S_10
REMARK    6  A    between atoms: S_10  and  C_13
REMARK    7  A    between atoms: C_13  and  C_14
REMARK    8  A    between atoms: C_13  and  C_15
REMARK    9  A    between atoms: C_13  and  C_16
REMARK   10  A    between atoms: C_17  and  C_18
REMARK   11  A    between atoms: C_18  and  C_19
REMARK   12  A    between atoms: C_19  and  O_20
REMARK                            x       y       z     vdW  Elec       q    Type
REMARK                         _______ _______ _______ _____ _____    ______ ____
ROOT
ATOM      1  C   UNL     1       2.318   4.036  18.645  0.00  0.00    +0.000 C 
ATOM      2  C   UNL     1       2.751   5.257  18.979  0.00  0.00    +0.000 C 
ATOM      3  C   UNL     1       3.903   5.704  18.178  0.00  0.00    +0.000 C 
ATOM      4  N   UNL     1       4.152   4.627  17.205  0.00  0.00    +0.000 NA
ATOM      5  C   UNL     1       3.198   3.452  17.534  0.00  0.00    +0.000 C 
ENDROOT
BRANCH   4   6
ATOM      6  S   UNL     1       5.764   4.327  16.814  0.00  0.00    +0.000 S 
ATOM      7  O   UNL     1       6.484   4.171  18.061  0.00  0.00    +0.000 OA
ATOM      8  O   UNL     1       5.758   3.245  15.841  0.00  0.00    +0.000 OA
BRANCH   6   9
ATOM      9  C   UNL     1       6.441   5.818  15.951  0.00  0.00    +0.000 C 
ATOM     10  C   UNL     1       7.285   6.706  16.877  0.00  0.00    +0.000 C 
ATOM     11  C   UNL     1       7.384   5.323  14.831  0.00  0.00    +0.000 C 
ATOM     12  C   UNL     1       5.295   6.616  15.326  0.00  0.00    +0.000 C 
ENDBRANCH   6   9
ENDBRANCH   4   6
BRANCH   1  14
ATOM     13  C   UNL     1       0.405   2.493  18.674  0.00  0.00    +0.000 C 
ATOM     14  C   UNL     1       1.166   3.416  19.289  0.00  0.00    +0.000 C 
BRANCH  14  15
ATOM     15  C   UNL     1       0.859   3.782  20.742  0.00  0.00    +0.000 C 
BRANCH  15  16
ATOM     16  C   UNL     1       1.947   3.381  21.747  0.00  0.00    +0.000 C 
BRANCH  16  17
ATOM     17  O   UNL     1       1.671   2.117  22.341  0.00  0.00    +0.000 OA
ATOM     18  H   UNL     1       2.396   1.521  22.083  0.00  0.00    +0.000 HD
ENDBRANCH  16  17
ENDBRANCH  15  16
ENDBRANCH  14  15
ENDBRANCH   1  14
BRANCH   5  19
ATOM     19  C   UNL     1       3.936   2.148  17.909  0.00  0.00    +0.000 C 
BRANCH  19  20
ATOM     20  C   UNL     1       4.057   1.844  19.398  0.00  0.00    +0.000 C 
BRANCH  20  21
ATOM     21  O   UNL     1       5.218   2.471  19.939  0.00  0.00    +0.000 OA
ATOM     22  H   UNL     1       5.134   2.466  20.909  0.00  0.00    +0.000 HD
ENDBRANCH  20  21
ENDBRANCH  19  20
ENDBRANCH   5  19
TORSDOF 9
ENDMDL
MODEL 4
REMARK VINA RESULT:      -5.8      1.773      2.900
REMARK  Name = 
REMARK  12 active torsions:
REMARK  status: ('A' for Active; 'I' for Inactive)
REMARK    1  A    between atoms: C_2  and  C_3
REMARK    2  A    between atoms: C_2  and  C_6
REMARK    3  A    between atoms: C_3  and  C_4
REMARK    4  A    between atoms: C_4  and  O_5
REMARK    5  A    between atoms: N_9  and  S_10
REMARK    6  A    between atoms: S_10  and  C_13
REMARK    7  A    between atoms: C_13  and  C_14
REMARK    8  A    between atoms: C_13  and  C_15
REMARK    9  A    between atoms: C_13  and  C_16
REMARK   10  A    between atoms: C_17  and  C_18
REMARK   11  A    between atoms: C_18  and  C_19
REMARK   12  A    between atoms: C_19  and  O_20
REMARK                            x       y       z     vdW  Elec       q    Type
REMARK                         _______ _______ _______ _____ _____    ______ ____
ROOT
ATOM      1  C   UNL     1       2.639   3.587  18.612  0.00  0.00    +0.000 C 
ATOM      2  C   UNL     1       3.363   2.804  17.804  0.00  0.00    +0.000 C 
ATOM      3  C   UNL     1       4.584   3.457  17.303  0.00  0.00    +0.000 C 
ATOM      4  N   UNL     1       4.615   4.783  17.942  0.00  0.00    +0.000 NA
ATOM      5  C   UNL     1       3.299   4.964  18.739  0.00  0.00    +0.000 C 
ENDROOT
BRANCH   4   6
ATOM      6  S   UNL     1       5.224   6.051  17.011  0.00  0.00    +0.000 S 
ATOM      7  O   UNL     1       4.800   5.819  15.645  0.00  0.00    +0.000 OA
ATOM      8  O   UNL     1       4.843   7.280  17.689  0.00  0.00    +0.000 OA
BRANCH   6   9
ATOM      9  C   UNL     1       7.072   5.968  17.054  0.00  0.00    +0.000 C 
ATOM     10  C   UNL     1       7.598   5.035  18.154  0.00  0.00    +0.000 C 
ATOM     11  C   UNL     1       7.546   5.376  15.707  0.00  0.00    +0.000 C 
ATOM     12  C   UNL     1       7.648   7.377  17.212  0.00  0.00    +0.000 C 
ENDBRANCH   6   9
ENDBRANCH   4   6
BRANCH   1  14
ATOM     13  C   UNL     1       0.590   2.231  18.665  0.00  0.00    +0.000 C 
ATOM     14  C   UNL     1       1.409   3.126  19.245  0.00  0.00    +0.000 C 
BRANCH  14  15
ATOM     15  C   UNL     1       1.081   3.629  20.652  0.00  0.00    +0.000 C 
BRANCH  15  16
ATOM     16  C   UNL     1       1.378   2.629  21.776  0.00  0.00    +0.000 C 
BRANCH  16  17
ATOM     17  O   UNL     1       2.777   2.491  21.997  0.00  0.00    +0.000 OA
ATOM     18  H   UNL     1       3.121   1.929  21.280  0.00  0.00    +0.000 HD
ENDBRANCH  16  17
ENDBRANCH  15  16
ENDBRANCH  14  15
ENDBRANCH   1  14
BRANCH   5  19
ATOM     19  C   UNL     1       2.437   6.146  18.242  0.00  0.00    +0.000 C 
BRANCH  19  20
ATOM     20  C   UNL     1       2.316   7.339  19.184  0.00  0.00    +0.000 C 
BRANCH  20  21
ATOM     21  O   UNL     1       2.331   6.901  20.541  0.00  0.00    +0.000 OA
ATOM     22  H   UNL     1       3.196   7.137  20.920  0.00  0.00    +0.000 HD
ENDBRANCH  20  21
ENDBRANCH  19  20
ENDBRANCH   5  19
TORSDOF 9
ENDMDL
MODEL 5
REMARK VINA RESULT:      -5.7      2.042      2.964
REMARK  Name = 
REMARK  12 active torsions:
REMARK  status: ('A' for Active; 'I' for Inactive)
REMARK    1  A    between atoms: C_2  and  C_3
REMARK    2  A    between atoms: C_2  and  C_6
REMARK    3  A    between atoms: C_3  and  C_4
REMARK    4  A    between atoms: C_4  and  O_5
REMARK    5  A    between atoms: N_9  and  S_10
REMARK    6  A    between atoms: S_10  and  C_13
REMARK    7  A    between atoms: C_13  and  C_14
REMARK    8  A    between atoms: C_13  and  C_15
REMARK    9  A    between atoms: C_13  and  C_16
REMARK   10  A    between atoms: C_17  and  C_18
REMARK   11  A    between atoms: C_18  and  C_19
REMARK   12  A    between atoms: C_19  and  O_20
REMARK                            x       y       z     vdW  Elec       q    Type
REMARK                         _______ _______ _______ _____ _____    ______ ____
ROOT
ATOM      1  C   UNL     1       2.624   3.629  18.601  0.00  0.00    +0.000 C 
ATOM      2  C   UNL     1       3.312   2.884  17.729  0.00  0.00    +0.000 C 
ATOM      3  C   UNL     1       4.529   3.547  17.232  0.00  0.00    +0.000 C 
ATOM      4  N   UNL     1       4.600   4.833  17.946  0.00  0.00    +0.000 NA
ATOM      5  C   UNL     1       3.310   4.986  18.790  0.00  0.00    +0.000 C 
ENDROOT
BRANCH   4   6
ATOM      6  S   UNL     1       5.203   6.143  17.073  0.00  0.00    +0.000 S 
ATOM      7  O   UNL     1       4.858   5.926  15.683  0.00  0.00    +0.000 OA
ATOM      8  O   UNL     1       4.740   7.341  17.755  0.00  0.00    +0.000 OA
BRANCH   6   9
ATOM      9  C   UNL     1       7.049   6.132  17.208  0.00  0.00    +0.000 C 
ATOM     10  C   UNL     1       7.648   7.545  17.265  0.00  0.00    +0.000 C 
ATOM     11  C   UNL     1       7.417   5.441  18.541  0.00  0.00    +0.000 C 
ATOM     12  C   UNL     1       7.646   5.334  16.047  0.00  0.00    +0.000 C 
ENDBRANCH   6   9
ENDBRANCH   4   6
BRANCH   1  14
ATOM     13  C   UNL     1       0.600   2.236  18.671  0.00  0.00    +0.000 C 
ATOM     14  C   UNL     1       1.405   3.150  19.242  0.00  0.00    +0.000 C 
BRANCH  14  15
ATOM     15  C   UNL     1       1.072   3.658  20.646  0.00  0.00    +0.000 C 
BRANCH  15  16
ATOM     16  C   UNL     1       1.434   2.690  21.780  0.00  0.00    +0.000 C 
BRANCH  16  17
ATOM     17  O   UNL     1       2.844   2.545  21.914  0.00  0.00    +0.000 OA
ATOM     18  H   UNL     1       3.010   2.236  22.822  0.00  0.00    +0.000 HD
ENDBRANCH  16  17
ENDBRANCH  15  16
ENDBRANCH  14  15
ENDBRANCH   1  14
BRANCH   5  19
ATOM     19  C   UNL     1       2.454   6.208  18.387  0.00  0.00    +0.000 C 
BRANCH  19  20
ATOM     20  C   UNL     1       2.126   7.200  19.498  0.00  0.00    +0.000 C 
BRANCH  20  21
ATOM     21  O   UNL     1       2.026   8.520  18.969  0.00  0.00    +0.000 OA
ATOM     22  H   UNL     1       1.937   9.134  19.719  0.00  0.00    +0.000 HD
ENDBRANCH  20  21
ENDBRANCH  19  20
ENDBRANCH   5  19
TORSDOF 9
ENDMDL
MODEL 6
REMARK VINA RESULT:      -5.5      1.494      1.778
REMARK  Name = 
REMARK  12 active torsions:
REMARK  status: ('A' for Active; 'I' for Inactive)
REMARK    1  A    between atoms: C_2  and  C_3
REMARK    2  A    between atoms: C_2  and  C_6
REMARK    3  A    between atoms: C_3  and  C_4
REMARK    4  A    between atoms: C_4  and  O_5
REMARK    5  A    between atoms: N_9  and  S_10
REMARK    6  A    between atoms: S_10  and  C_13
REMARK    7  A    between atoms: C_13  and  C_14
REMARK    8  A    between atoms: C_13  and  C_15
REMARK    9  A    between atoms: C_13  and  C_16
REMARK   10  A    between atoms: C_17  and  C_18
REMARK   11  A    between atoms: C_18  and  C_19
REMARK   12  A    between atoms: C_19  and  O_20
REMARK                            x       y       z     vdW  Elec       q    Type
REMARK                         _______ _______ _______ _____ _____    ______ ____
ROOT
ATOM      1  C   UNL     1       2.135   4.262  18.639  0.00  0.00    +0.000 C 
ATOM      2  C   UNL     1       1.820   5.545  18.428  0.00  0.00    +0.000 C 
ATOM      3  C   UNL     1       2.902   6.312  17.789  0.00  0.00    +0.000 C 
ATOM      4  N   UNL     1       3.982   5.342  17.539  0.00  0.00    +0.000 NA
ATOM      5  C   UNL     1       3.570   3.990  18.174  0.00  0.00    +0.000 C 
ENDROOT
BRANCH   4   6
ATOM      6  S   UNL     1       5.559   5.914  17.711  0.00  0.00    +0.000 S 
ATOM      7  O   UNL     1       5.572   7.280  17.232  0.00  0.00    +0.000 OA
ATOM      8  O   UNL     1       5.957   5.621  19.079  0.00  0.00    +0.000 OA
BRANCH   6   9
ATOM      9  C   UNL     1       6.662   4.915  16.609  0.00  0.00    +0.000 C 
ATOM     10  C   UNL     1       7.330   5.762  15.515  0.00  0.00    +0.000 C 
ATOM     11  C   UNL     1       7.801   4.341  17.483  0.00  0.00    +0.000 C 
ATOM     12  C   UNL     1       5.869   3.760  15.995  0.00  0.00    +0.000 C 
ENDBRANCH   6   9
ENDBRANCH   4   6
BRANCH   1  14
ATOM     13  C   UNL     1       0.733   2.245  18.561  0.00  0.00    +0.000 C 
ATOM     14  C   UNL     1       1.195   3.317  19.229  0.00  0.00    +0.000 C 
BRANCH  14  15
ATOM     15  C   UNL     1       0.774   3.520  20.686  0.00  0.00    +0.000 C 
BRANCH  15  16
ATOM     16  C   UNL     1       1.438   2.562  21.684  0.00  0.00    +0.000 C 
BRANCH  16  17
ATOM     17  O   UNL     1       2.513   3.188  22.375  0.00  0.00    +0.000 OA
ATOM     18  H   UNL     1       2.133   3.938  22.865  0.00  0.00    +0.000 HD
ENDBRANCH  16  17
ENDBRANCH  15  16
ENDBRANCH  14  15
ENDBRANCH   1  14
BRANCH   5  19
ATOM     19  C   UNL     1       4.532   3.515  19.286  0.00  0.00    +0.000 C 
BRANCH  19  20
ATOM     20  C   UNL     1       4.461   2.037  19.656  0.00  0.00    +0.000 C 
BRANCH  20  21
ATOM     21  O   UNL     1       4.159   1.252  18.506  0.00  0.00    +0.000 OA
ATOM     22  H   UNL     1       4.276   1.816  17.722  0.00  0.00    +0.000 HD
ENDBRANCH  20  21
ENDBRANCH  19  20
ENDBRANCH   5  19
TORSDOF 9
ENDMDL
MODEL 7
REMARK VINA RESULT:      -5.5      1.444      2.040
REMARK  Name = 
REMARK  12 active torsions:
REMARK  status: ('A' for Active; 'I' for Inactive)
REMARK    1  A    between atoms: C_2  and  C_3
REMARK    2  A    between atoms: C_2  and  C_6
REMARK    3  A    between atoms: C_3  and  C_4
REMARK    4  A    between atoms: C_4  and  O_5
REMARK    5  A    between atoms: N_9  and  S_10
REMARK    6  A    between atoms: S_10  and  C_13
REMARK    7  A    between atoms: C_13  and  C_14
REMARK    8  A    between atoms: C_13  and  C_15
REMARK    9  A    between atoms: C_13  and  C_16
REMARK   10  A    between atoms: C_17  and  C_18
REMARK   11  A    between atoms: C_18  and  C_19
REMARK   12  A    between atoms: C_19  and  O_20
REMARK                            x       y       z     vdW  Elec       q    Type
REMARK                         _______ _______ _______ _____ _____    ______ ____
ROOT
ATOM      1  C   UNL     1       2.674   5.345  18.999  0.00  0.00    +0.000 C 
ATOM      2  C   UNL     1       2.895   6.624  18.676  0.00  0.00    +0.000 C 
ATOM      3  C   UNL     1       3.773   6.785  17.506  0.00  0.00    +0.000 C 
ATOM      4  N   UNL     1       4.068   5.419  17.040  0.00  0.00    +0.000 NA
ATOM      5  C   UNL     1       3.449   4.423  18.052  0.00  0.00    +0.000 C 
ENDROOT
BRANCH   4   6
ATOM      6  S   UNL     1       5.615   5.153  16.426  0.00  0.00    +0.000 S 
ATOM      7  O   UNL     1       5.743   3.729  16.194  0.00  0.00    +0.000 OA
ATOM      8  O   UNL     1       5.786   6.085  15.323  0.00  0.00    +0.000 OA
BRANCH   6   9
ATOM      9  C   UNL     1       6.846   5.630  17.724  0.00  0.00    +0.000 C 
ATOM     10  C   UNL     1       6.244   5.636  19.137  0.00  0.00    +0.000 C 
ATOM     11  C   UNL     1       7.964   4.562  17.723  0.00  0.00    +0.000 C 
ATOM     12  C   UNL     1       7.453   6.992  17.384  0.00  0.00    +0.000 C 
ENDBRANCH   6   9
ENDBRANCH   4   6
BRANCH   1  14
ATOM     13  C   UNL     1       1.421   5.829  21.058  0.00  0.00    +0.000 C 
ATOM     14  C   UNL     1       1.804   4.961  20.105  0.00  0.00    +0.000 C 
BRANCH  14  15
ATOM     15  C   UNL     1       1.254   3.534  20.138  0.00  0.00    +0.000 C 
BRANCH  15  16
ATOM     16  C   UNL     1       1.369   2.834  21.498  0.00  0.00    +0.000 C 
BRANCH  16  17
ATOM     17  O   UNL     1       2.726   2.693  21.901  0.00  0.00    +0.000 OA
ATOM     18  H   UNL     1       3.274   2.945  21.137  0.00  0.00    +0.000 HD
ENDBRANCH  16  17
ENDBRANCH  15  16
ENDBRANCH  14  15
ENDBRANCH   1  14
BRANCH   5  19
ATOM     19  C   UNL     1       4.495   3.518  18.741  0.00  0.00    +0.000 C 
BRANCH  19  20
ATOM     20  C   UNL     1       4.117   2.050  18.905  0.00  0.00    +0.000 C 
BRANCH  20  21
ATOM     21  O   UNL     1       4.904   1.446  19.929  0.00  0.00    +0.000 OA
ATOM     22  H   UNL     1       5.838   1.641  19.740  0.00  0.00    +0.000 HD
ENDBRANCH  20  21
ENDBRANCH  19  20
ENDBRANCH   5  19
TORSDOF 9
ENDMDL
MODEL 8
REMARK VINA RESULT:      -5.4      1.378      1.833
REMARK  Name = 
REMARK  12 active torsions:
REMARK  status: ('A' for Active; 'I' for Inactive)
REMARK    1  A    between atoms: C_2  and  C_3
REMARK    2  A    between atoms: C_2  and  C_6
REMARK    3  A    between atoms: C_3  and  C_4
REMARK    4  A    between atoms: C_4  and  O_5
REMARK    5  A    between atoms: N_9  and  S_10
REMARK    6  A    between atoms: S_10  and  C_13
REMARK    7  A    between atoms: C_13  and  C_14
REMARK    8  A    between atoms: C_13  and  C_15
REMARK    9  A    between atoms: C_13  and  C_16
REMARK   10  A    between atoms: C_17  and  C_18
REMARK   11  A    between atoms: C_18  and  C_19
REMARK   12  A    between atoms: C_19  and  O_20
REMARK                            x       y       z     vdW  Elec       q    Type
REMARK                         _______ _______ _______ _____ _____    ______ ____
ROOT
ATOM      1  C   UNL     1       2.356   4.517  18.475  0.00  0.00    +0.000 C 
ATOM      2  C   UNL     1       2.649   5.790  18.764  0.00  0.00    +0.000 C 
ATOM      3  C   UNL     1       3.659   6.373  17.866  0.00  0.00    +0.000 C 
ATOM      4  N   UNL     1       3.966   5.322  16.880  0.00  0.00    +0.000 NA
ATOM      5  C   UNL     1       3.208   4.037  17.296  0.00  0.00    +0.000 C 
ENDROOT
BRANCH   4   6
ATOM      6  S   UNL     1       5.565   5.231  16.354  0.00  0.00    +0.000 S 
ATOM      7  O   UNL     1       5.786   3.877  15.891  0.00  0.00    +0.000 OA
ATOM      8  O   UNL     1       5.764   6.349  15.445  0.00  0.00    +0.000 OA
BRANCH   6   9
ATOM      9  C   UNL     1       6.673   5.522  17.808  0.00  0.00    +0.000 C 
ATOM     10  C   UNL     1       7.849   4.536  17.862  0.00  0.00    +0.000 C 
ATOM     11  C   UNL     1       7.285   6.934  17.656  0.00  0.00    +0.000 C 
ATOM     12  C   UNL     1       5.855   5.466  19.099  0.00  0.00    +0.000 C 
ENDBRANCH   6   9
ENDBRANCH   4   6
BRANCH   1  14
ATOM     13  C   UNL     1       0.688   2.724  18.683  0.00  0.00    +0.000 C 
ATOM     14  C   UNL     1       1.355   3.761  19.219  0.00  0.00    +0.000 C 
BRANCH  14  15
ATOM     15  C   UNL     1       1.111   4.122  20.686  0.00  0.00    +0.000 C 
BRANCH  15  16
ATOM     16  C   UNL     1       2.111   3.506  21.673  0.00  0.00    +0.000 C 
BRANCH  16  17
ATOM     17  O   UNL     1       1.558   2.379  22.342  0.00  0.00    +0.000 OA
ATOM     18  H   UNL     1       2.146   2.182  23.093  0.00  0.00    +0.000 HD
ENDBRANCH  16  17
ENDBRANCH  15  16
ENDBRANCH  14  15
ENDBRANCH   1  14
BRANCH   5  19
ATOM     19  C   UNL     1       4.143   2.848  17.613  0.00  0.00    +0.000 C 
BRANCH  19  20
ATOM     20  C   UNL     1       3.937   2.167  18.962  0.00  0.00    +0.000 C 
BRANCH  20  21
ATOM     21  O   UNL     1       5.118   2.270  19.754  0.00  0.00    +0.000 OA
ATOM     22  H   UNL     1       5.544   3.119  19.544  0.00  0.00    +0.000 HD
ENDBRANCH  20  21
ENDBRANCH  19  20
ENDBRANCH   5  19
TORSDOF 9
ENDMDL
MODEL 9
REMARK VINA RESULT:      -5.4      2.394      6.422
REMARK  Name = 
REMARK  12 active torsions:
REMARK  status: ('A' for Active; 'I' for Inactive)
REMARK    1  A    between atoms: C_2  and  C_3
REMARK    2  A    between atoms: C_2  and  C_6
REMARK    3  A    between atoms: C_3  and  C_4
REMARK    4  A    between atoms: C_4  and  O_5
REMARK    5  A    between atoms: N_9  and  S_10
REMARK    6  A    between atoms: S_10  and  C_13
REMARK    7  A    between atoms: C_13  and  C_14
REMARK    8  A    between atoms: C_13  and  C_15
REMARK    9  A    between atoms: C_13  and  C_16
REMARK   10  A    between atoms: C_17  and  C_18
REMARK   11  A    between atoms: C_18  and  C_19
REMARK   12  A    between atoms: C_19  and  O_20
REMARK                            x       y       z     vdW  Elec       q    Type
REMARK                         _______ _______ _______ _____ _____    ______ ____
ROOT
ATOM      1  C   UNL     1       5.416   4.404  15.634  0.00  0.00    +0.000 C 
ATOM      2  C   UNL     1       5.361   3.278  16.355  0.00  0.00    +0.000 C 
ATOM      3  C   UNL     1       4.520   3.398  17.558  0.00  0.00    +0.000 C 
ATOM      4  N   UNL     1       3.959   4.759  17.515  0.00  0.00    +0.000 NA
ATOM      5  C   UNL     1       4.599   5.506  16.318  0.00  0.00    +0.000 C 
ENDROOT
BRANCH   4   6
ATOM      6  S   UNL     1       3.771   5.540  18.998  0.00  0.00    +0.000 S 
ATOM      7  O   UNL     1       4.978   5.303  19.762  0.00  0.00    +0.000 OA
ATOM      8  O   UNL     1       3.358   6.902  18.697  0.00  0.00    +0.000 OA
BRANCH   6   9
ATOM      9  C   UNL     1       2.364   4.743  19.899  0.00  0.00    +0.000 C 
ATOM     10  C   UNL     1       2.832   3.710  20.935  0.00  0.00    +0.000 C 
ATOM     11  C   UNL     1       1.622   5.851  20.683  0.00  0.00    +0.000 C 
ATOM     12  C   UNL     1       1.400   4.109  18.894  0.00  0.00    +0.000 C 
ENDBRANCH   6   9
ENDBRANCH   4   6
BRANCH   1  14
ATOM     13  C   UNL     1       7.386   5.052  14.315  0.00  0.00    +0.000 C 
ATOM     14  C   UNL     1       6.164   4.492  14.386  0.00  0.00    +0.000 C 
BRANCH  14  15
ATOM     15  C   UNL     1       5.562   3.862  13.129  0.00  0.00    +0.000 C 
BRANCH  15  16
ATOM     16  C   UNL     1       6.592   3.376  12.100  0.00  0.00    +0.000 C 
BRANCH  16  17
ATOM     17  O   UNL     1       6.352   2.028  11.716  0.00  0.00    +0.000 OA
ATOM     18  H   UNL     1       5.564   1.732  12.206  0.00  0.00    +0.000 HD
ENDBRANCH  16  17
ENDBRANCH  15  16
ENDBRANCH  14  15
ENDBRANCH   1  14
BRANCH   5  19
ATOM     19  C   UNL     1       5.412   6.752  16.734  0.00  0.00    +0.000 C 
BRANCH  19  20
ATOM     20  C   UNL     1       6.814   6.494  17.277  0.00  0.00    +0.000 C 
BRANCH  20  21
ATOM     21  O   UNL     1       7.644   7.633  17.064  0.00  0.00    +0.000 OA
ATOM     22  H   UNL     1       7.098   8.328  16.658  0.00  0.00    +0.000 HD
ENDBRANCH  20  21
ENDBRANCH  19  20
ENDBRANCH   5  19
TORSDOF 9
ENDMDL
