MODEL 1
REMARK VINA RESULT:      -8.0      0.000      0.000
REMARK  Name = 
REMARK  9 active torsions:
REMARK  status: ('A' for Active; 'I' for Inactive)
REMARK    1  A    between atoms: C_1  and  O_2
REMARK    2  A    between atoms: O_2  and  C_3
REMARK    3  A    between atoms: C_3  and  C_5
REMARK    4  A    between atoms: C_10  and  C_11
REMARK    5  A    between atoms: C_11  and  N_12
REMARK    6  A    between atoms: C_15  and  O_16
REMARK    7  A    between atoms: C_15  and  C_17
REMARK    8  A    between atoms: C_17  and  N_18
REMARK    9  A    between atoms: N_25  and  C_26
REMARK                            x       y       z     vdW  Elec       q    Type
REMARK                         _______ _______ _______ _____ _____    ______ ____
ROOT
ATOM      1  N   UNL     1       0.987  14.395  19.152  0.00  0.00    +0.000 NA
ATOM      2  C   UNL     1      -0.414  14.122  18.923  0.00  0.00    +0.000 C 
ATOM      3  C   UNL     1      -0.932  12.692  18.887  0.00  0.00    +0.000 C 
ATOM      4  C   UNL     1      -0.059  11.570  19.460  0.00  0.00    +0.000 C 
ATOM      5  C   UNL     1       1.385  11.937  19.831  0.00  0.00    +0.000 C 
ATOM      6  C   UNL     1       1.828  13.396  19.770  0.00  0.00    +0.000 C 
ENDROOT
BRANCH   4   7
ATOM      7  O   UNL     1      -0.654  11.109  20.705  0.00  0.00    +0.000 OA
ATOM      8  H   UNL     1      -0.586  11.806  21.380  0.00  0.00    +0.000 HD
ENDBRANCH   4   7
BRANCH   1   9
ATOM      9  C   UNL     1       1.238  15.782  19.633  0.00  0.00    +0.000 C 
BRANCH   9  15
ATOM     10  C   UNL     1       2.295  17.097  17.663  0.00  0.00    +0.000 A 
ATOM     11  C   UNL     1       2.082  17.786  16.455  0.00  0.00    +0.000 A 
ATOM     12  C   UNL     1       0.834  18.338  16.174  0.00  0.00    +0.000 A 
ATOM     13  C   UNL     1      -0.192  18.249  17.113  0.00  0.00    +0.000 A 
ATOM     14  C   UNL     1       0.002  17.519  18.285  0.00  0.00    +0.000 A 
ATOM     15  C   UNL     1       1.211  16.846  18.533  0.00  0.00    +0.000 A 
BRANCH  10  16
ATOM     16  C   UNL     1       3.689  16.709  18.020  0.00  0.00    +0.000 C 
ATOM     17  O   UNL     1       4.419  17.280  18.809  0.00  0.00    +0.000 OA
BRANCH  16  19
ATOM     18  C   UNL     1       4.783  14.569  17.915  0.00  0.00    +0.000 C 
ATOM     19  O   UNL     1       3.922  15.557  17.348  0.00  0.00    +0.000 OA
ENDBRANCH  16  19
ENDBRANCH  10  16
ENDBRANCH   9  15
ENDBRANCH   1   9
BRANCH   4  20
ATOM     20  C   UNL     1      -0.157  10.291  18.545  0.00  0.00    +0.000 C 
BRANCH  20  21
ATOM     21  N   UNL     1       0.949   9.348  18.648  0.00  0.00    +0.000 N 
ATOM     22  C   UNL     1       1.915   9.307  17.660  0.00  0.00    +0.000 A 
ATOM     23  N   UNL     1       2.846   8.418  17.525  0.00  0.00    +0.000 NA
ATOM     24  C   UNL     1       2.843   7.476  18.498  0.00  0.00    +0.000 A 
ATOM     25  C   UNL     1       2.044   7.480  19.614  0.00  0.00    +0.000 A 
ATOM     26  C   UNL     1       2.478   6.395  20.380  0.00  0.00    +0.000 A 
ATOM     27  N   UNL     1       3.429   5.686  19.760  0.00  0.00    +0.000 NA
ATOM     28  N   UNL     1       3.631   6.335  18.568  0.00  0.00    +0.000 N 
ATOM     29  C   UNL     1       1.030   8.484  19.763  0.00  0.00    +0.000 A 
ATOM     30  O   UNL     1       0.317   8.564  20.757  0.00  0.00    +0.000 OA
BRANCH  28  31
ATOM     31  C   UNL     1       4.550   5.818  17.602  0.00  0.00    +0.000 A 
ATOM     32  C   UNL     1       5.781   6.469  17.411  0.00  0.00    +0.000 A 
ATOM     33  C   UNL     1       6.679   6.004  16.448  0.00  0.00    +0.000 A 
ATOM     34  C   UNL     1       6.355   4.890  15.685  0.00  0.00    +0.000 A 
ATOM     35  F   UNL     1       7.210   4.457  14.748  0.00  0.00    +0.000 F 
ATOM     36  C   UNL     1       5.158   4.218  15.875  0.00  0.00    +0.000 A 
ATOM     37  C   UNL     1       4.256   4.678  16.838  0.00  0.00    +0.000 A 
ENDBRANCH  28  31
ENDBRANCH  20  21
ENDBRANCH   4  20
TORSDOF 8
ENDMDL
MODEL 2
REMARK VINA RESULT:      -7.6      3.839      6.374
REMARK  Name = 
REMARK  9 active torsions:
REMARK  status: ('A' for Active; 'I' for Inactive)
REMARK    1  A    between atoms: C_1  and  O_2
REMARK    2  A    between atoms: O_2  and  C_3
REMARK    3  A    between atoms: C_3  and  C_5
REMARK    4  A    between atoms: C_10  and  C_11
REMARK    5  A    between atoms: C_11  and  N_12
REMARK    6  A    between atoms: C_15  and  O_16
REMARK    7  A    between atoms: C_15  and  C_17
REMARK    8  A    between atoms: C_17  and  N_18
REMARK    9  A    between atoms: N_25  and  C_26
REMARK                            x       y       z     vdW  Elec       q    Type
REMARK                         _______ _______ _______ _____ _____    ______ ____
ROOT
ATOM      1  N   UNL     1      -3.746  10.729  18.677  0.00  0.00    +0.000 NA
ATOM      2  C   UNL     1      -3.543  12.072  19.170  0.00  0.00    +0.000 C 
ATOM      3  C   UNL     1      -2.172  12.728  19.102  0.00  0.00    +0.000 C 
ATOM      4  C   UNL     1      -1.104  12.124  18.183  0.00  0.00    +0.000 C 
ATOM      5  C   UNL     1      -1.420  10.757  17.559  0.00  0.00    +0.000 C 
ATOM      6  C   UNL     1      -2.808  10.152  17.741  0.00  0.00    +0.000 C 
ENDROOT
BRANCH   4   7
ATOM      7  O   UNL     1      -0.913  13.013  17.048  0.00  0.00    +0.000 OA
ATOM      8  H   UNL     1      -1.750  13.113  16.564  0.00  0.00    +0.000 HD
ENDBRANCH   4   7
BRANCH   1   9
ATOM      9  C   UNL     1      -5.173  10.430  18.371  0.00  0.00    +0.000 C 
BRANCH   9  15
ATOM     10  C   UNL     1      -6.851  12.157  19.333  0.00  0.00    +0.000 A 
ATOM     11  C   UNL     1      -7.330  13.479  19.305  0.00  0.00    +0.000 A 
ATOM     12  C   UNL     1      -7.149  14.265  18.169  0.00  0.00    +0.000 A 
ATOM     13  C   UNL     1      -6.534  13.725  17.041  0.00  0.00    +0.000 A 
ATOM     14  C   UNL     1      -6.010  12.435  17.089  0.00  0.00    +0.000 A 
ATOM     15  C   UNL     1      -6.069  11.667  18.265  0.00  0.00    +0.000 A 
BRANCH  10  16
ATOM     16  C   UNL     1      -7.248  11.284  20.474  0.00  0.00    +0.000 C 
ATOM     17  O   UNL     1      -7.909  10.264  20.409  0.00  0.00    +0.000 OA
BRANCH  16  19
ATOM     18  C   UNL     1      -7.417  12.061  22.745  0.00  0.00    +0.000 C 
ATOM     19  O   UNL     1      -6.652  11.826  21.562  0.00  0.00    +0.000 OA
ENDBRANCH  16  19
ENDBRANCH  10  16
ENDBRANCH   9  15
ENDBRANCH   1   9
BRANCH   4  20
ATOM     20  C   UNL     1       0.304  12.171  18.890  0.00  0.00    +0.000 C 
BRANCH  20  21
ATOM     21  N   UNL     1       0.940  10.882  19.127  0.00  0.00    +0.000 N 
ATOM     22  C   UNL     1       1.826  10.369  18.198  0.00  0.00    +0.000 A 
ATOM     23  N   UNL     1       2.327   9.176  18.184  0.00  0.00    +0.000 NA
ATOM     24  C   UNL     1       1.933   8.408  19.229  0.00  0.00    +0.000 A 
ATOM     25  C   UNL     1       1.183   8.834  20.296  0.00  0.00    +0.000 A 
ATOM     26  C   UNL     1       1.135   7.744  21.168  0.00  0.00    +0.000 A 
ATOM     27  N   UNL     1       1.734   6.660  20.659  0.00  0.00    +0.000 NA
ATOM     28  N   UNL     1       2.199   7.060  19.431  0.00  0.00    +0.000 N 
ATOM     29  C   UNL     1       0.651  10.166  20.310  0.00  0.00    +0.000 A 
ATOM     30  O   UNL     1       0.012  10.615  21.256  0.00  0.00    +0.000 OA
BRANCH  28  31
ATOM     31  C   UNL     1       2.852   6.134  18.560  0.00  0.00    +0.000 A 
ATOM     32  C   UNL     1       4.122   6.451  18.050  0.00  0.00    +0.000 A 
ATOM     33  C   UNL     1       4.763   5.577  17.168  0.00  0.00    +0.000 A 
ATOM     34  C   UNL     1       4.144   4.389  16.804  0.00  0.00    +0.000 A 
ATOM     35  F   UNL     1       4.752   3.562  15.944  0.00  0.00    +0.000 F 
ATOM     36  C   UNL     1       2.903   4.045  17.316  0.00  0.00    +0.000 A 
ATOM     37  C   UNL     1       2.257   4.914  18.199  0.00  0.00    +0.000 A 
ENDBRANCH  28  31
ENDBRANCH  20  21
ENDBRANCH   4  20
TORSDOF 8
ENDMDL
MODEL 3
REMARK VINA RESULT:      -7.6      3.810     10.361
REMARK  Name = 
REMARK  9 active torsions:
REMARK  status: ('A' for Active; 'I' for Inactive)
REMARK    1  A    between atoms: C_1  and  O_2
REMARK    2  A    between atoms: O_2  and  C_3
REMARK    3  A    between atoms: C_3  and  C_5
REMARK    4  A    between atoms: C_10  and  C_11
REMARK    5  A    between atoms: C_11  and  N_12
REMARK    6  A    between atoms: C_15  and  O_16
REMARK    7  A    between atoms: C_15  and  C_17
REMARK    8  A    between atoms: C_17  and  N_18
REMARK    9  A    between atoms: N_25  and  C_26
REMARK                            x       y       z     vdW  Elec       q    Type
REMARK                         _______ _______ _______ _____ _____    ______ ____
ROOT
ATOM      1  N   UNL     1       2.213   6.827  18.755  0.00  0.00    +0.000 NA
ATOM      2  C   UNL     1       2.180   8.251  18.517  0.00  0.00    +0.000 C 
ATOM      3  C   UNL     1       1.450   9.184  19.472  0.00  0.00    +0.000 C 
ATOM      4  C   UNL     1       1.076   8.673  20.868  0.00  0.00    +0.000 C 
ATOM      5  C   UNL     1       1.264   7.173  21.130  0.00  0.00    +0.000 C 
ATOM      6  C   UNL     1       1.950   6.307  20.078  0.00  0.00    +0.000 C 
ENDROOT
BRANCH   4   7
ATOM      7  O   UNL     1       1.930   9.329  21.846  0.00  0.00    +0.000 OA
ATOM      8  H   UNL     1       2.257  10.171  21.485  0.00  0.00    +0.000 HD
ENDBRANCH   4   7
BRANCH   1   9
ATOM      9  C   UNL     1       3.328   6.142  18.044  0.00  0.00    +0.000 C 
BRANCH   9  15
ATOM     10  C   UNL     1       4.275   3.752  18.390  0.00  0.00    +0.000 A 
ATOM     11  C   UNL     1       4.004   2.413  18.720  0.00  0.00    +0.000 A 
ATOM     12  C   UNL     1       2.720   1.897  18.558  0.00  0.00    +0.000 A 
ATOM     13  C   UNL     1       1.712   2.698  18.022  0.00  0.00    +0.000 A 
ATOM     14  C   UNL     1       1.967   4.040  17.746  0.00  0.00    +0.000 A 
ATOM     15  C   UNL     1       3.220   4.616  18.020  0.00  0.00    +0.000 A 
BRANCH  10  16
ATOM     16  C   UNL     1       5.695   4.205  18.374  0.00  0.00    +0.000 C 
ATOM     17  O   UNL     1       6.357   4.541  19.338  0.00  0.00    +0.000 OA
BRANCH  16  19
ATOM     18  C   UNL     1       7.190   4.859  16.606  0.00  0.00    +0.000 C 
ATOM     19  O   UNL     1       6.095   4.078  17.087  0.00  0.00    +0.000 OA
ENDBRANCH  16  19
ENDBRANCH  10  16
ENDBRANCH   9  15
ENDBRANCH   1   9
BRANCH   4  20
ATOM     20  C   UNL     1      -0.357   9.197  21.266  0.00  0.00    +0.000 C 
BRANCH  20  21
ATOM     21  N   UNL     1      -0.554  10.637  21.181  0.00  0.00    +0.000 N 
ATOM     22  C   UNL     1      -0.562  11.261  19.947  0.00  0.00    +0.000 A 
ATOM     23  N   UNL     1      -0.550  12.536  19.725  0.00  0.00    +0.000 NA
ATOM     24  C   UNL     1      -0.563  13.285  20.854  0.00  0.00    +0.000 A 
ATOM     25  C   UNL     1      -0.707  12.804  22.131  0.00  0.00    +0.000 A 
ATOM     26  C   UNL     1      -0.788  13.938  22.943  0.00  0.00    +0.000 A 
ATOM     27  N   UNL     1      -0.617  15.070  22.250  0.00  0.00    +0.000 NA
ATOM     28  N   UNL     1      -0.436  14.664  20.952  0.00  0.00    +0.000 N 
ATOM     29  C   UNL     1      -0.742  11.389  22.363  0.00  0.00    +0.000 A 
ATOM     30  O   UNL     1      -0.912  10.903  23.475  0.00  0.00    +0.000 OA
BRANCH  28  31
ATOM     31  C   UNL     1      -0.161  15.615  19.921  0.00  0.00    +0.000 A 
ATOM     32  C   UNL     1      -1.198  16.440  19.454  0.00  0.00    +0.000 A 
ATOM     33  C   UNL     1      -0.960  17.352  18.422  0.00  0.00    +0.000 A 
ATOM     34  C   UNL     1       0.307  17.445  17.864  0.00  0.00    +0.000 A 
ATOM     35  F   UNL     1       0.528  18.306  16.862  0.00  0.00    +0.000 F 
ATOM     36  C   UNL     1       1.351  16.659  18.327  0.00  0.00    +0.000 A 
ATOM     37  C   UNL     1       1.120  15.747  19.359  0.00  0.00    +0.000 A 
ENDBRANCH  28  31
ENDBRANCH  20  21
ENDBRANCH   4  20
TORSDOF 8
ENDMDL
MODEL 4
REMARK VINA RESULT:      -7.6      5.080      7.767
REMARK  Name = 
REMARK  9 active torsions:
REMARK  status: ('A' for Active; 'I' for Inactive)
REMARK    1  A    between atoms: C_1  and  O_2
REMARK    2  A    between atoms: O_2  and  C_3
REMARK    3  A    between atoms: C_3  and  C_5
REMARK    4  A    between atoms: C_10  and  C_11
REMARK    5  A    between atoms: C_11  and  N_12
REMARK    6  A    between atoms: C_15  and  O_16
REMARK    7  A    between atoms: C_15  and  C_17
REMARK    8  A    between atoms: C_17  and  N_18
REMARK    9  A    between atoms: N_25  and  C_26
REMARK                            x       y       z     vdW  Elec       q    Type
REMARK                         _______ _______ _______ _____ _____    ______ ____
ROOT
ATOM      1  N   UNL     1       0.940  13.719  21.716  0.00  0.00    +0.000 NA
ATOM      2  C   UNL     1       0.753  15.061  22.218  0.00  0.00    +0.000 C 
ATOM      3  C   UNL     1       1.940  15.992  22.415  0.00  0.00    +0.000 C 
ATOM      4  C   UNL     1       3.272  15.650  21.737  0.00  0.00    +0.000 C 
ATOM      5  C   UNL     1       3.382  14.265  21.084  0.00  0.00    +0.000 C 
ATOM      6  C   UNL     1       2.145  13.378  20.995  0.00  0.00    +0.000 C 
ENDROOT
BRANCH   4   7
ATOM      7  O   UNL     1       3.492  16.590  20.649  0.00  0.00    +0.000 OA
ATOM      8  H   UNL     1       2.890  17.348  20.742  0.00  0.00    +0.000 HD
ENDBRANCH   4   7
BRANCH   1   9
ATOM      9  C   UNL     1      -0.302  13.136  21.136  0.00  0.00    +0.000 C 
BRANCH   9  15
ATOM     10  C   UNL     1      -0.267  10.610  20.547  0.00  0.00    +0.000 A 
ATOM     11  C   UNL     1      -0.105   9.293  21.012  0.00  0.00    +0.000 A 
ATOM     12  C   UNL     1      -0.321   8.992  22.355  0.00  0.00    +0.000 A 
ATOM     13  C   UNL     1      -0.744   9.990  23.231  0.00  0.00    +0.000 A 
ATOM     14  C   UNL     1      -0.851  11.305  22.783  0.00  0.00    +0.000 A 
ATOM     15  C   UNL     1      -0.516  11.656  21.463  0.00  0.00    +0.000 A 
BRANCH  10  16
ATOM     16  C   UNL     1      -0.236  10.851  19.077  0.00  0.00    +0.000 C 
ATOM     17  O   UNL     1       0.736  11.165  18.415  0.00  0.00    +0.000 OA
BRANCH  16  19
ATOM     18  C   UNL     1      -1.676  10.014  17.340  0.00  0.00    +0.000 C 
ATOM     19  O   UNL     1      -1.487  10.567  18.643  0.00  0.00    +0.000 OA
ENDBRANCH  16  19
ENDBRANCH  10  16
ENDBRANCH   9  15
ENDBRANCH   1   9
BRANCH   4  20
ATOM     20  C   UNL     1       4.469  15.973  22.710  0.00  0.00    +0.000 C 
BRANCH  20  21
ATOM     21  N   UNL     1       5.608  15.069  22.638  0.00  0.00    +0.000 N 
ATOM     22  C   UNL     1       6.614  15.297  21.717  0.00  0.00    +0.000 A 
ATOM     23  N   UNL     1       7.586  14.496  21.419  0.00  0.00    +0.000 NA
ATOM     24  C   UNL     1       7.584  13.348  22.137  0.00  0.00    +0.000 A 
ATOM     25  C   UNL     1       6.742  13.058  23.180  0.00  0.00    +0.000 A 
ATOM     26  C   UNL     1       7.190  11.835  23.685  0.00  0.00    +0.000 A 
ATOM     27  N   UNL     1       8.194  11.325  22.960  0.00  0.00    +0.000 NA
ATOM     28  N   UNL     1       8.416  12.248  21.969  0.00  0.00    +0.000 N 
ATOM     29  C   UNL     1       5.682  13.964  23.516  0.00  0.00    +0.000 A 
ATOM     30  O   UNL     1       4.927  13.780  24.465  0.00  0.00    +0.000 OA
BRANCH  28  31
ATOM     31  C   UNL     1       9.393  12.009  20.954  0.00  0.00    +0.000 A 
ATOM     32  C   UNL     1       9.101  11.102  19.921  0.00  0.00    +0.000 A 
ATOM     33  C   UNL     1      10.055  10.825  18.939  0.00  0.00    +0.000 A 
ATOM     34  C   UNL     1      11.291  11.456  18.982  0.00  0.00    +0.000 A 
ATOM     35  F   UNL     1      12.211  11.175  18.049  0.00  0.00    +0.000 F 
ATOM     36  C   UNL     1      11.590  12.373  19.976  0.00  0.00    +0.000 A 
ATOM     37  C   UNL     1      10.640  12.655  20.961  0.00  0.00    +0.000 A 
ENDBRANCH  28  31
ENDBRANCH  20  21
ENDBRANCH   4  20
TORSDOF 8
ENDMDL
MODEL 5
REMARK VINA RESULT:      -7.5      5.166     11.110
REMARK  Name = 
REMARK  9 active torsions:
REMARK  status: ('A' for Active; 'I' for Inactive)
REMARK    1  A    between atoms: C_1  and  O_2
REMARK    2  A    between atoms: O_2  and  C_3
REMARK    3  A    between atoms: C_3  and  C_5
REMARK    4  A    between atoms: C_10  and  C_11
REMARK    5  A    between atoms: C_11  and  N_12
REMARK    6  A    between atoms: C_15  and  O_16
REMARK    7  A    between atoms: C_15  and  C_17
REMARK    8  A    between atoms: C_17  and  N_18
REMARK    9  A    between atoms: N_25  and  C_26
REMARK                            x       y       z     vdW  Elec       q    Type
REMARK                         _______ _______ _______ _____ _____    ______ ____
ROOT
ATOM      1  N   UNL     1       2.771   6.864  18.793  0.00  0.00    +0.000 NA
ATOM      2  C   UNL     1       2.196   6.226  19.956  0.00  0.00    +0.000 C 
ATOM      3  C   UNL     1       1.508   7.049  21.035  0.00  0.00    +0.000 C 
ATOM      4  C   UNL     1       1.092   8.490  20.719  0.00  0.00    +0.000 C 
ATOM      5  C   UNL     1       1.603   9.084  19.399  0.00  0.00    +0.000 C 
ATOM      6  C   UNL     1       2.343   8.190  18.410  0.00  0.00    +0.000 C 
ENDROOT
BRANCH   4   7
ATOM      7  O   UNL     1      -0.358   8.541  20.610  0.00  0.00    +0.000 OA
ATOM      8  H   UNL     1      -0.699   7.667  20.355  0.00  0.00    +0.000 HD
ENDBRANCH   4   7
BRANCH   1   9
ATOM      9  C   UNL     1       2.956   5.930  17.648  0.00  0.00    +0.000 C 
BRANCH   9  15
ATOM     10  C   UNL     1       4.066   3.809  18.644  0.00  0.00    +0.000 A 
ATOM     11  C   UNL     1       3.885   2.588  19.318  0.00  0.00    +0.000 A 
ATOM     12  C   UNL     1       2.652   1.942  19.278  0.00  0.00    +0.000 A 
ATOM     13  C   UNL     1       1.609   2.482  18.527  0.00  0.00    +0.000 A 
ATOM     14  C   UNL     1       1.771   3.718  17.904  0.00  0.00    +0.000 A 
ATOM     15  C   UNL     1       2.965   4.449  18.035  0.00  0.00    +0.000 A 
BRANCH  10  16
ATOM     16  C   UNL     1       5.448   4.358  18.532  0.00  0.00    +0.000 C 
ATOM     17  O   UNL     1       6.135   4.775  19.446  0.00  0.00    +0.000 OA
BRANCH  16  19
ATOM     18  C   UNL     1       6.534   5.237  16.574  0.00  0.00    +0.000 C 
ATOM     19  O   UNL     1       5.785   4.212  17.229  0.00  0.00    +0.000 OA
ENDBRANCH  16  19
ENDBRANCH  10  16
ENDBRANCH   9  15
ENDBRANCH   1   9
BRANCH   4  20
ATOM     20  C   UNL     1       1.370   9.415  21.964  0.00  0.00    +0.000 C 
BRANCH  20  21
ATOM     21  N   UNL     1       0.382  10.455  22.216  0.00  0.00    +0.000 N 
ATOM     22  C   UNL     1      -0.714  10.187  23.016  0.00  0.00    +0.000 A 
ATOM     23  N   UNL     1      -1.751  10.942  23.185  0.00  0.00    +0.000 NA
ATOM     24  C   UNL     1      -1.684  12.116  22.513  0.00  0.00    +0.000 A 
ATOM     25  C   UNL     1      -0.600  12.575  21.810  0.00  0.00    +0.000 A 
ATOM     26  C   UNL     1      -0.946  13.865  21.401  0.00  0.00    +0.000 A 
ATOM     27  N   UNL     1      -2.202  14.182  21.737  0.00  0.00    +0.000 NA
ATOM     28  N   UNL     1      -2.680  13.078  22.397  0.00  0.00    +0.000 N 
ATOM     29  C   UNL     1       0.553  11.737  21.647  0.00  0.00    +0.000 A 
ATOM     30  O   UNL     1       1.568  12.109  21.067  0.00  0.00    +0.000 OA
BRANCH  28  31
ATOM     31  C   UNL     1      -4.032  13.030  22.858  0.00  0.00    +0.000 A 
ATOM     32  C   UNL     1      -4.286  12.722  24.205  0.00  0.00    +0.000 A 
ATOM     33  C   UNL     1      -5.600  12.634  24.670  0.00  0.00    +0.000 A 
ATOM     34  C   UNL     1      -6.656  12.862  23.797  0.00  0.00    +0.000 A 
ATOM     35  F   UNL     1      -7.916  12.758  24.240  0.00  0.00    +0.000 F 
ATOM     36  C   UNL     1      -6.427  13.193  22.471  0.00  0.00    +0.000 A 
ATOM     37  C   UNL     1      -5.115  13.283  22.000  0.00  0.00    +0.000 A 
ENDBRANCH  28  31
ENDBRANCH  20  21
ENDBRANCH   4  20
TORSDOF 8
ENDMDL
MODEL 6
REMARK VINA RESULT:      -7.5      3.784     10.290
REMARK  Name = 
REMARK  9 active torsions:
REMARK  status: ('A' for Active; 'I' for Inactive)
REMARK    1  A    between atoms: C_1  and  O_2
REMARK    2  A    between atoms: O_2  and  C_3
REMARK    3  A    between atoms: C_3  and  C_5
REMARK    4  A    between atoms: C_10  and  C_11
REMARK    5  A    between atoms: C_11  and  N_12
REMARK    6  A    between atoms: C_15  and  O_16
REMARK    7  A    between atoms: C_15  and  C_17
REMARK    8  A    between atoms: C_17  and  N_18
REMARK    9  A    between atoms: N_25  and  C_26
REMARK                            x       y       z     vdW  Elec       q    Type
REMARK                         _______ _______ _______ _____ _____    ______ ____
ROOT
ATOM      1  N   UNL     1       2.354   6.801  18.518  0.00  0.00    +0.000 NA
ATOM      2  C   UNL     1       2.292   8.231  18.325  0.00  0.00    +0.000 C 
ATOM      3  C   UNL     1       1.571   9.121  19.326  0.00  0.00    +0.000 C 
ATOM      4  C   UNL     1       1.240   8.562  20.714  0.00  0.00    +0.000 C 
ATOM      5  C   UNL     1       1.460   7.058  20.925  0.00  0.00    +0.000 C 
ATOM      6  C   UNL     1       2.134   6.237  19.830  0.00  0.00    +0.000 C 
ENDROOT
BRANCH   4   7
ATOM      7  O   UNL     1       2.107   9.203  21.690  0.00  0.00    +0.000 OA
ATOM      8  H   UNL     1       2.491  10.011  21.309  0.00  0.00    +0.000 HD
ENDBRANCH   4   7
BRANCH   1   9
ATOM      9  C   UNL     1       3.463   6.158  17.759  0.00  0.00    +0.000 C 
BRANCH   9  15
ATOM     10  C   UNL     1       4.566   3.848  18.177  0.00  0.00    +0.000 A 
ATOM     11  C   UNL     1       4.388   2.509  18.566  0.00  0.00    +0.000 A 
ATOM     12  C   UNL     1       3.136   1.908  18.455  0.00  0.00    +0.000 A 
ATOM     13  C   UNL     1       2.069   2.621  17.911  0.00  0.00    +0.000 A 
ATOM     14  C   UNL     1       2.232   3.964  17.577  0.00  0.00    +0.000 A 
ATOM     15  C   UNL     1       3.451   4.628  17.798  0.00  0.00    +0.000 A 
BRANCH  10  16
ATOM     16  C   UNL     1       5.954   4.387  18.110  0.00  0.00    +0.000 C 
ATOM     17  O   UNL     1       6.653   4.464  17.116  0.00  0.00    +0.000 OA
BRANCH  16  19
ATOM     18  C   UNL     1       7.373   5.653  19.585  0.00  0.00    +0.000 C 
ATOM     19  O   UNL     1       6.222   4.838  19.358  0.00  0.00    +0.000 OA
ENDBRANCH  16  19
ENDBRANCH  10  16
ENDBRANCH   9  15
ENDBRANCH   1   9
BRANCH   4  20
ATOM     20  C   UNL     1      -0.191   9.048  21.163  0.00  0.00    +0.000 C 
BRANCH  20  21
ATOM     21  N   UNL     1      -0.422  10.485  21.104  0.00  0.00    +0.000 N 
ATOM     22  C   UNL     1      -0.447  11.130  19.881  0.00  0.00    +0.000 A 
ATOM     23  N   UNL     1      -0.465  12.409  19.682  0.00  0.00    +0.000 NA
ATOM     24  C   UNL     1      -0.495  13.136  20.824  0.00  0.00    +0.000 A 
ATOM     25  C   UNL     1      -0.626  12.630  22.092  0.00  0.00    +0.000 A 
ATOM     26  C   UNL     1      -0.734  13.747  22.924  0.00  0.00    +0.000 A 
ATOM     27  N   UNL     1      -0.590  14.896  22.251  0.00  0.00    +0.000 NA
ATOM     28  N   UNL     1      -0.401  14.517  20.946  0.00  0.00    +0.000 N 
ATOM     29  C   UNL     1      -0.627  11.211  22.298  0.00  0.00    +0.000 A 
ATOM     30  O   UNL     1      -0.785  10.701  23.403  0.00  0.00    +0.000 OA
BRANCH  28  31
ATOM     31  C   UNL     1      -0.150  15.492  19.931  0.00  0.00    +0.000 A 
ATOM     32  C   UNL     1       1.147  15.614  19.404  0.00  0.00    +0.000 A 
ATOM     33  C   UNL     1       1.424  16.584  18.438  0.00  0.00    +0.000 A 
ATOM     34  C   UNL     1       0.411  17.424  17.995  0.00  0.00    +0.000 A 
ATOM     35  F   UNL     1       0.684  18.367  17.082  0.00  0.00    +0.000 F 
ATOM     36  C   UNL     1      -0.880  17.303  18.482  0.00  0.00    +0.000 A 
ATOM     37  C   UNL     1      -1.164  16.334  19.447  0.00  0.00    +0.000 A 
ENDBRANCH  28  31
ENDBRANCH  20  21
ENDBRANCH   4  20
TORSDOF 8
ENDMDL
MODEL 7
REMARK VINA RESULT:      -7.4      5.071     11.288
REMARK  Name = 
REMARK  9 active torsions:
REMARK  status: ('A' for Active; 'I' for Inactive)
REMARK    1  A    between atoms: C_1  and  O_2
REMARK    2  A    between atoms: O_2  and  C_3
REMARK    3  A    between atoms: C_3  and  C_5
REMARK    4  A    between atoms: C_10  and  C_11
REMARK    5  A    between atoms: C_11  and  N_12
REMARK    6  A    between atoms: C_15  and  O_16
REMARK    7  A    between atoms: C_15  and  C_17
REMARK    8  A    between atoms: C_17  and  N_18
REMARK    9  A    between atoms: N_25  and  C_26
REMARK                            x       y       z     vdW  Elec       q    Type
REMARK                         _______ _______ _______ _____ _____    ______ ____
ROOT
ATOM      1  N   UNL     1       1.988   7.480  19.209  0.00  0.00    +0.000 NA
ATOM      2  C   UNL     1       1.995   8.369  18.069  0.00  0.00    +0.000 C 
ATOM      3  C   UNL     1       1.227   9.681  18.101  0.00  0.00    +0.000 C 
ATOM      4  C   UNL     1       0.762  10.238  19.450  0.00  0.00    +0.000 C 
ATOM      5  C   UNL     1       0.907   9.315  20.668  0.00  0.00    +0.000 C 
ATOM      6  C   UNL     1       1.639   7.985  20.518  0.00  0.00    +0.000 C 
ENDROOT
BRANCH   4   7
ATOM      7  O   UNL     1       1.568  11.405  19.773  0.00  0.00    +0.000 OA
ATOM      8  H   UNL     1       1.973  11.760  18.963  0.00  0.00    +0.000 HD
ENDBRANCH   4   7
BRANCH   1   9
ATOM      9  C   UNL     1       3.131   6.526  19.211  0.00  0.00    +0.000 C 
BRANCH   9  15
ATOM     10  C   UNL     1       3.847   4.654  17.565  0.00  0.00    +0.000 A 
ATOM     11  C   UNL     1       3.715   3.309  17.179  0.00  0.00    +0.000 A 
ATOM     12  C   UNL     1       2.572   2.591  17.521  0.00  0.00    +0.000 A 
ATOM     13  C   UNL     1       1.535   3.221  18.206  0.00  0.00    +0.000 A 
ATOM     14  C   UNL     1       1.688   4.538  18.637  0.00  0.00    +0.000 A 
ATOM     15  C   UNL     1       2.884   5.243  18.413  0.00  0.00    +0.000 A 
BRANCH  10  16
ATOM     16  C   UNL     1       4.978   5.445  17.001  0.00  0.00    +0.000 C 
ATOM     17  O   UNL     1       4.905   6.295  16.134  0.00  0.00    +0.000 OA
BRANCH  16  19
ATOM     18  C   UNL     1       7.219   4.569  17.039  0.00  0.00    +0.000 C 
ATOM     19  O   UNL     1       6.066   5.070  17.716  0.00  0.00    +0.000 OA
ENDBRANCH  16  19
ENDBRANCH  10  16
ENDBRANCH   9  15
ENDBRANCH   1   9
BRANCH   4  20
ATOM     20  C   UNL     1      -0.682  10.855  19.310  0.00  0.00    +0.000 C 
BRANCH  20  21
ATOM     21  N   UNL     1      -0.887  12.148  19.947  0.00  0.00    +0.000 N 
ATOM     22  C   UNL     1      -1.404  12.212  21.228  0.00  0.00    +0.000 A 
ATOM     23  N   UNL     1      -1.801  13.275  21.850  0.00  0.00    +0.000 NA
ATOM     24  C   UNL     1      -1.639  14.415  21.135  0.00  0.00    +0.000 A 
ATOM     25  C   UNL     1      -1.005  14.516  19.923  0.00  0.00    +0.000 A 
ATOM     26  C   UNL     1      -0.971  15.883  19.639  0.00  0.00    +0.000 A 
ATOM     27  N   UNL     1      -1.619  16.608  20.559  0.00  0.00    +0.000 NA
ATOM     28  N   UNL     1      -2.072  15.690  21.474  0.00  0.00    +0.000 N 
ATOM     29  C   UNL     1      -0.549  13.332  19.254  0.00  0.00    +0.000 A 
ATOM     30  O   UNL     1       0.062  13.364  18.191  0.00  0.00    +0.000 OA
BRANCH  28  31
ATOM     31  C   UNL     1      -2.872  16.101  22.585  0.00  0.00    +0.000 A 
ATOM     32  C   UNL     1      -4.250  16.303  22.401  0.00  0.00    +0.000 A 
ATOM     33  C   UNL     1      -5.045  16.739  23.463  0.00  0.00    +0.000 A 
ATOM     34  C   UNL     1      -4.469  16.964  24.707  0.00  0.00    +0.000 A 
ATOM     35  F   UNL     1      -5.229  17.401  25.720  0.00  0.00    +0.000 F 
ATOM     36  C   UNL     1      -3.117  16.745  24.917  0.00  0.00    +0.000 A 
ATOM     37  C   UNL     1      -2.317  16.309  23.859  0.00  0.00    +0.000 A 
ENDBRANCH  28  31
ENDBRANCH  20  21
ENDBRANCH   4  20
TORSDOF 8
ENDMDL
MODEL 8
REMARK VINA RESULT:      -7.3      4.807     11.041
REMARK  Name = 
REMARK  9 active torsions:
REMARK  status: ('A' for Active; 'I' for Inactive)
REMARK    1  A    between atoms: C_1  and  O_2
REMARK    2  A    between atoms: O_2  and  C_3
REMARK    3  A    between atoms: C_3  and  C_5
REMARK    4  A    between atoms: C_10  and  C_11
REMARK    5  A    between atoms: C_11  and  N_12
REMARK    6  A    between atoms: C_15  and  O_16
REMARK    7  A    between atoms: C_15  and  C_17
REMARK    8  A    between atoms: C_17  and  N_18
REMARK    9  A    between atoms: N_25  and  C_26
REMARK                            x       y       z     vdW  Elec       q    Type
REMARK                         _______ _______ _______ _____ _____    ______ ____
ROOT
ATOM      1  N   UNL     1       2.455   7.233  19.148  0.00  0.00    +0.000 NA
ATOM      2  C   UNL     1       1.917   7.275  20.488  0.00  0.00    +0.000 C 
ATOM      3  C   UNL     1       1.218   8.523  21.008  0.00  0.00    +0.000 C 
ATOM      4  C   UNL     1       0.755   9.586  20.006  0.00  0.00    +0.000 C 
ATOM      5  C   UNL     1       1.229   9.424  18.555  0.00  0.00    +0.000 C 
ATOM      6  C   UNL     1       1.982   8.162  18.148  0.00  0.00    +0.000 C 
ENDROOT
BRANCH   4   7
ATOM      7  O   UNL     1      -0.698   9.546  19.927  0.00  0.00    +0.000 OA
ATOM      8  H   UNL     1      -1.080   9.720  20.804  0.00  0.00    +0.000 HD
ENDBRANCH   4   7
BRANCH   1   9
ATOM      9  C   UNL     1       2.653   5.845  18.643  0.00  0.00    +0.000 C 
BRANCH   9  15
ATOM     10  C   UNL     1       4.522   4.420  17.547  0.00  0.00    +0.000 A 
ATOM     11  C   UNL     1       5.384   4.248  16.449  0.00  0.00    +0.000 A 
ATOM     12  C   UNL     1       5.721   5.336  15.646  0.00  0.00    +0.000 A 
ATOM     13  C   UNL     1       5.241   6.606  15.960  0.00  0.00    +0.000 A 
ATOM     14  C   UNL     1       4.344   6.767  17.014  0.00  0.00    +0.000 A 
ATOM     15  C   UNL     1       3.890   5.665  17.760  0.00  0.00    +0.000 A 
BRANCH  10  16
ATOM     16  C   UNL     1       4.357   3.288  18.502  0.00  0.00    +0.000 C 
ATOM     17  O   UNL     1       4.901   3.168  19.584  0.00  0.00    +0.000 OA
BRANCH  16  19
ATOM     18  C   UNL     1       2.294   2.067  18.712  0.00  0.00    +0.000 C 
ATOM     19  O   UNL     1       3.422   2.484  17.942  0.00  0.00    +0.000 OA
ENDBRANCH  16  19
ENDBRANCH  10  16
ENDBRANCH   9  15
ENDBRANCH   1   9
BRANCH   4  20
ATOM     20  C   UNL     1       1.021  11.027  20.588  0.00  0.00    +0.000 C 
BRANCH  20  21
ATOM     21  N   UNL     1      -0.161  11.838  20.844  0.00  0.00    +0.000 N 
ATOM     22  C   UNL     1      -0.758  12.534  19.809  0.00  0.00    +0.000 A 
ATOM     23  N   UNL     1      -1.693  13.422  19.912  0.00  0.00    +0.000 NA
ATOM     24  C   UNL     1      -2.112  13.625  21.184  0.00  0.00    +0.000 A 
ATOM     25  C   UNL     1      -1.718  12.902  22.281  0.00  0.00    +0.000 A 
ATOM     26  C   UNL     1      -2.497  13.382  23.337  0.00  0.00    +0.000 A 
ATOM     27  N   UNL     1      -3.275  14.407  22.966  0.00  0.00    +0.000 NA
ATOM     28  N   UNL     1      -3.008  14.587  21.633  0.00  0.00    +0.000 N 
ATOM     29  C   UNL     1      -0.696  11.904  22.150  0.00  0.00    +0.000 A 
ATOM     30  O   UNL     1      -0.335  11.198  23.085  0.00  0.00    +0.000 OA
BRANCH  28  31
ATOM     31  C   UNL     1      -3.622  15.651  20.902  0.00  0.00    +0.000 A 
ATOM     32  C   UNL     1      -4.973  15.537  20.531  0.00  0.00    +0.000 A 
ATOM     33  C   UNL     1      -5.584  16.548  19.786  0.00  0.00    +0.000 A 
ATOM     34  C   UNL     1      -4.854  17.671  19.420  0.00  0.00    +0.000 A 
ATOM     35  F   UNL     1      -5.437  18.631  18.688  0.00  0.00    +0.000 F 
ATOM     36  C   UNL     1      -3.529  17.815  19.797  0.00  0.00    +0.000 A 
ATOM     37  C   UNL     1      -2.912  16.808  20.543  0.00  0.00    +0.000 A 
ENDBRANCH  28  31
ENDBRANCH  20  21
ENDBRANCH   4  20
TORSDOF 8
ENDMDL
MODEL 9
REMARK VINA RESULT:      -7.2      3.435      6.842
REMARK  Name = 
REMARK  9 active torsions:
REMARK  status: ('A' for Active; 'I' for Inactive)
REMARK    1  A    between atoms: C_1  and  O_2
REMARK    2  A    between atoms: O_2  and  C_3
REMARK    3  A    between atoms: C_3  and  C_5
REMARK    4  A    between atoms: C_10  and  C_11
REMARK    5  A    between atoms: C_11  and  N_12
REMARK    6  A    between atoms: C_15  and  O_16
REMARK    7  A    between atoms: C_15  and  C_17
REMARK    8  A    between atoms: C_17  and  N_18
REMARK    9  A    between atoms: N_25  and  C_26
REMARK                            x       y       z     vdW  Elec       q    Type
REMARK                         _______ _______ _______ _____ _____    ______ ____
ROOT
ATOM      1  N   UNL     1       6.238  15.357  18.541  0.00  0.00    +0.000 NA
ATOM      2  C   UNL     1       5.165  14.807  17.745  0.00  0.00    +0.000 C 
ATOM      3  C   UNL     1       3.719  15.199  18.010  0.00  0.00    +0.000 C 
ATOM      4  C   UNL     1       3.430  16.444  18.856  0.00  0.00    +0.000 C 
ATOM      5  C   UNL     1       4.626  17.088  19.571  0.00  0.00    +0.000 C 
ATOM      6  C   UNL     1       6.035  16.578  19.287  0.00  0.00    +0.000 C 
ENDROOT
BRANCH   4   7
ATOM      7  O   UNL     1       2.915  17.488  17.984  0.00  0.00    +0.000 OA
ATOM      8  H   UNL     1       3.087  18.360  18.377  0.00  0.00    +0.000 HD
ENDBRANCH   4   7
BRANCH   1   9
ATOM      9  C   UNL     1       7.566  15.268  17.871  0.00  0.00    +0.000 C 
BRANCH   9  15
ATOM     10  C   UNL     1       9.165  13.985  19.458  0.00  0.00    +0.000 A 
ATOM     11  C   UNL     1       9.578  12.739  19.962  0.00  0.00    +0.000 A 
ATOM     12  C   UNL     1       9.345  11.576  19.231  0.00  0.00    +0.000 A 
ATOM     13  C   UNL     1       8.746  11.653  17.975  0.00  0.00    +0.000 A 
ATOM     14  C   UNL     1       8.288  12.880  17.500  0.00  0.00    +0.000 A 
ATOM     15  C   UNL     1       8.397  14.049  18.274  0.00  0.00    +0.000 A 
BRANCH  10  16
ATOM     16  C   UNL     1       9.618  15.219  20.162  0.00  0.00    +0.000 C 
ATOM     17  O   UNL     1      10.099  16.211  19.646  0.00  0.00    +0.000 OA
BRANCH  16  19
ATOM     18  C   UNL     1       8.098  15.581  21.992  0.00  0.00    +0.000 C 
ATOM     19  O   UNL     1       9.302  15.022  21.464  0.00  0.00    +0.000 OA
ENDBRANCH  16  19
ENDBRANCH  10  16
ENDBRANCH   9  15
ENDBRANCH   1   9
BRANCH   4  20
ATOM     20  C   UNL     1       2.209  16.171  19.814  0.00  0.00    +0.000 C 
BRANCH  20  21
ATOM     21  N   UNL     1       1.649  14.828  19.765  0.00  0.00    +0.000 N 
ATOM     22  C   UNL     1       2.287  13.790  20.420  0.00  0.00    +0.000 A 
ATOM     23  N   UNL     1       2.012  12.529  20.323  0.00  0.00    +0.000 NA
ATOM     24  C   UNL     1       0.962  12.263  19.509  0.00  0.00    +0.000 A 
ATOM     25  C   UNL     1       0.149  13.198  18.920  0.00  0.00    +0.000 A 
ATOM     26  C   UNL     1      -0.855  12.463  18.285  0.00  0.00    +0.000 A 
ATOM     27  N   UNL     1      -0.654  11.143  18.380  0.00  0.00    +0.000 NA
ATOM     28  N   UNL     1       0.502  11.015  19.109  0.00  0.00    +0.000 N 
ATOM     29  C   UNL     1       0.451  14.593  19.053  0.00  0.00    +0.000 A 
ATOM     30  O   UNL     1      -0.263  15.474  18.587  0.00  0.00    +0.000 OA
BRANCH  28  31
ATOM     31  C   UNL     1       1.066   9.727  19.363  0.00  0.00    +0.000 A 
ATOM     32  C   UNL     1       1.773   9.074  18.339  0.00  0.00    +0.000 A 
ATOM     33  C   UNL     1       2.302   7.799  18.553  0.00  0.00    +0.000 A 
ATOM     34  C   UNL     1       2.134   7.181  19.785  0.00  0.00    +0.000 A 
ATOM     35  F   UNL     1       2.626   5.951  19.982  0.00  0.00    +0.000 F 
ATOM     36  C   UNL     1       1.463   7.818  20.817  0.00  0.00    +0.000 A 
ATOM     37  C   UNL     1       0.932   9.093  20.610  0.00  0.00    +0.000 A 
ENDBRANCH  28  31
ENDBRANCH  20  21
ENDBRANCH   4  20
TORSDOF 8
ENDMDL
