MODEL 1
REMARK VINA RESULT:      -8.0      0.000      0.000
REMARK  Name = 
REMARK  8 active torsions:
REMARK  status: ('A' for Active; 'I' for Inactive)
REMARK    1  A    between atoms: C_1  and  O_2
REMARK    2  A    between atoms: O_2  and  C_3
REMARK    3  A    between atoms: C_7  and  C_8
REMARK    4  A    between atoms: C_9  and  C_10
REMARK    5  A    between atoms: C_22  and  O_23
REMARK    6  A    between atoms: O_23  and  C_24
REMARK    7  A    between atoms: C_25  and  O_26
REMARK    8  A    between atoms: O_26  and  C_27
REMARK                            x       y       z     vdW  Elec       q    Type
REMARK                         _______ _______ _______ _____ _____    ______ ____
ROOT
ATOM      1  C   UNL     1      -0.770  12.471  21.933  0.00  0.00    +0.000 C 
ATOM      2  O   UNL     1      -1.409  12.666  22.954  0.00  0.00    +0.000 OA
ATOM      3  N   UNL     1      -0.156  11.259  21.587  0.00  0.00    +0.000 N 
ATOM      4  C   UNL     1      -0.365  10.059  22.414  0.00  0.00    +0.000 C 
ATOM      5  C   UNL     1      -0.171   8.730  21.599  0.00  0.00    +0.000 C 
ATOM      6  N   UNL     1       1.047   8.785  20.750  0.00  0.00    +0.000 N 
ATOM      7  C   UNL     1       1.609   7.609  20.263  0.00  0.00    +0.000 A 
ATOM      8  N   UNL     1       1.398   6.496  20.969  0.00  0.00    +0.000 NA
ATOM      9  C   UNL     1       1.930   5.361  20.512  0.00  0.00    +0.000 A 
ATOM     10  N   UNL     1       1.821   4.251  21.371  0.00  0.00    +0.000 N 
ATOM     11  C   UNL     1       2.618   5.246  19.306  0.00  0.00    +0.000 A 
ATOM     12  C   UNL     1       2.992   4.001  18.768  0.00  0.00    +0.000 A 
ATOM     13  C   UNL     1       3.803   3.890  17.644  0.00  0.00    +0.000 A 
ATOM     14  C   UNL     1       4.299   5.059  17.064  0.00  0.00    +0.000 A 
ATOM     15  C   UNL     1       3.854   6.310  17.580  0.00  0.00    +0.000 A 
ATOM     16  C   UNL     1       2.950   6.441  18.684  0.00  0.00    +0.000 A 
ATOM     17  N   UNL     1       2.430   7.614  19.172  0.00  0.00    +0.000 NA
ATOM     18  C   UNL     1       1.096   9.962  19.887  0.00  0.00    +0.000 C 
ATOM     19  C   UNL     1       1.063  11.215  20.777  0.00  0.00    +0.000 C 
ATOM     20  H   UNL     1       1.404   4.587  22.231  0.00  0.00    +0.000 HD
ATOM     21  H   UNL     1       2.749   3.868  21.547  0.00  0.00    +0.000 HD
ENDROOT
BRANCH   1  23
ATOM     22  C   UNL     1      -0.204  14.750  21.059  0.00  0.00    +0.000 C 
ATOM     23  C   UNL     1      -0.683  13.512  20.864  0.00  0.00    +0.000 C 
BRANCH  22  28
ATOM     24  C   UNL     1       1.183  17.017  18.317  0.00  0.00    +0.000 A 
ATOM     25  C   UNL     1       0.021  17.674  17.916  0.00  0.00    +0.000 A 
ATOM     26  C   UNL     1      -1.194  17.398  18.541  0.00  0.00    +0.000 A 
ATOM     27  C   UNL     1      -1.257  16.451  19.568  0.00  0.00    +0.000 A 
ATOM     28  C   UNL     1      -0.107  15.758  19.974  0.00  0.00    +0.000 A 
ATOM     29  C   UNL     1       1.113  16.069  19.343  0.00  0.00    +0.000 A 
BRANCH  24  31
ATOM     30  C   UNL     1       3.472  16.583  17.829  0.00  0.00    +0.000 C 
ATOM     31  O   UNL     1       2.315  17.389  17.643  0.00  0.00    +0.000 OA
ENDBRANCH  24  31
ENDBRANCH  22  28
ENDBRANCH   1  23
BRANCH  13  32
ATOM     32  O   UNL     1       4.007   2.580  17.303  0.00  0.00    +0.000 OA
ATOM     33  C   UNL     1       3.636   1.534  18.187  0.00  0.00    +0.000 C 
ENDBRANCH  13  32
BRANCH  14  34
ATOM     34  O   UNL     1       5.135   4.868  16.006  0.00  0.00    +0.000 OA
ATOM     35  C   UNL     1       6.543   4.814  16.115  0.00  0.00    +0.000 C 
ENDBRANCH  14  34
TORSDOF 5
ENDMDL
MODEL 2
REMARK VINA RESULT:      -7.8      2.136     10.493
REMARK  Name = 
REMARK  8 active torsions:
REMARK  status: ('A' for Active; 'I' for Inactive)
REMARK    1  A    between atoms: C_1  and  O_2
REMARK    2  A    between atoms: O_2  and  C_3
REMARK    3  A    between atoms: C_7  and  C_8
REMARK    4  A    between atoms: C_9  and  C_10
REMARK    5  A    between atoms: C_22  and  O_23
REMARK    6  A    between atoms: O_23  and  C_24
REMARK    7  A    between atoms: C_25  and  O_26
REMARK    8  A    between atoms: O_26  and  C_27
REMARK                            x       y       z     vdW  Elec       q    Type
REMARK                         _______ _______ _______ _____ _____    ______ ____
ROOT
ATOM      1  C   UNL     1       3.618   3.406  18.394  0.00  0.00    +0.000 C 
ATOM      2  O   UNL     1       3.777   2.358  18.998  0.00  0.00    +0.000 OA
ATOM      3  N   UNL     1       2.990   4.547  18.913  0.00  0.00    +0.000 N 
ATOM      4  C   UNL     1       2.581   4.590  20.327  0.00  0.00    +0.000 C 
ATOM      5  C   UNL     1       2.502   6.057  20.881  0.00  0.00    +0.000 C 
ATOM      6  N   UNL     1       1.808   6.964  19.930  0.00  0.00    +0.000 N 
ATOM      7  C   UNL     1       1.294   8.178  20.373  0.00  0.00    +0.000 A 
ATOM      8  N   UNL     1       0.956   8.260  21.662  0.00  0.00    +0.000 NA
ATOM      9  C   UNL     1       0.463   9.419  22.101  0.00  0.00    +0.000 A 
ATOM     10  N   UNL     1      -0.031   9.408  23.420  0.00  0.00    +0.000 N 
ATOM     11  C   UNL     1       0.357  10.572  21.326  0.00  0.00    +0.000 A 
ATOM     12  C   UNL     1       0.017  11.821  21.877  0.00  0.00    +0.000 A 
ATOM     13  C   UNL     1      -0.232  12.939  21.087  0.00  0.00    +0.000 A 
ATOM     14  C   UNL     1      -0.189  12.794  19.698  0.00  0.00    +0.000 A 
ATOM     15  C   UNL     1       0.225  11.541  19.162  0.00  0.00    +0.000 A 
ATOM     16  C   UNL     1       0.568  10.406  19.965  0.00  0.00    +0.000 A 
ATOM     17  N   UNL     1       1.044   9.203  19.506  0.00  0.00    +0.000 NA
ATOM     18  C   UNL     1       2.369   6.923  18.582  0.00  0.00    +0.000 C 
ATOM     19  C   UNL     1       2.259   5.483  18.055  0.00  0.00    +0.000 C 
ATOM     20  H   UNL     1       0.030   8.451  23.747  0.00  0.00    +0.000 HD
ATOM     21  H   UNL     1      -0.999   9.727  23.421  0.00  0.00    +0.000 HD
ENDROOT
BRANCH   1  23
ATOM     22  C   UNL     1       5.456   4.057  16.819  0.00  0.00    +0.000 C 
ATOM     23  C   UNL     1       4.208   3.613  17.037  0.00  0.00    +0.000 C 
BRANCH  22  28
ATOM     24  C   UNL     1       6.113   3.674  13.077  0.00  0.00    +0.000 A 
ATOM     25  C   UNL     1       7.134   4.606  12.900  0.00  0.00    +0.000 A 
ATOM     26  C   UNL     1       7.617   5.336  13.986  0.00  0.00    +0.000 A 
ATOM     27  C   UNL     1       7.070   5.145  15.259  0.00  0.00    +0.000 A 
ATOM     28  C   UNL     1       6.025   4.232  15.460  0.00  0.00    +0.000 A 
ATOM     29  C   UNL     1       5.569   3.491  14.353  0.00  0.00    +0.000 A 
BRANCH  24  31
ATOM     30  C   UNL     1       4.419   3.227  11.466  0.00  0.00    +0.000 C 
ATOM     31  O   UNL     1       5.741   3.007  11.941  0.00  0.00    +0.000 OA
ENDBRANCH  24  31
ENDBRANCH  22  28
ENDBRANCH   1  23
BRANCH  13  32
ATOM     32  O   UNL     1      -0.521  14.036  21.852  0.00  0.00    +0.000 OA
ATOM     33  C   UNL     1       0.506  14.925  22.262  0.00  0.00    +0.000 C 
ENDBRANCH  13  32
BRANCH  14  34
ATOM     34  O   UNL     1      -0.503  13.916  18.993  0.00  0.00    +0.000 OA
ATOM     35  C   UNL     1       0.440  14.896  18.610  0.00  0.00    +0.000 C 
ENDBRANCH  14  34
TORSDOF 5
ENDMDL
MODEL 3
REMARK VINA RESULT:      -7.7      0.951      1.732
REMARK  Name = 
REMARK  8 active torsions:
REMARK  status: ('A' for Active; 'I' for Inactive)
REMARK    1  A    between atoms: C_1  and  O_2
REMARK    2  A    between atoms: O_2  and  C_3
REMARK    3  A    between atoms: C_7  and  C_8
REMARK    4  A    between atoms: C_9  and  C_10
REMARK    5  A    between atoms: C_22  and  O_23
REMARK    6  A    between atoms: O_23  and  C_24
REMARK    7  A    between atoms: C_25  and  O_26
REMARK    8  A    between atoms: O_26  and  C_27
REMARK                            x       y       z     vdW  Elec       q    Type
REMARK                         _______ _______ _______ _____ _____    ______ ____
ROOT
ATOM      1  C   UNL     1      -0.894  12.486  22.100  0.00  0.00    +0.000 C 
ATOM      2  O   UNL     1      -1.497  12.662  23.146  0.00  0.00    +0.000 OA
ATOM      3  N   UNL     1      -0.255  11.294  21.731  0.00  0.00    +0.000 N 
ATOM      4  C   UNL     1      -0.390  10.090  22.568  0.00  0.00    +0.000 C 
ATOM      5  C   UNL     1      -0.185   8.766  21.747  0.00  0.00    +0.000 C 
ATOM      6  N   UNL     1       0.994   8.859  20.848  0.00  0.00    +0.000 N 
ATOM      7  C   UNL     1       1.575   7.702  20.339  0.00  0.00    +0.000 A 
ATOM      8  N   UNL     1       1.430   6.584  21.055  0.00  0.00    +0.000 NA
ATOM      9  C   UNL     1       1.980   5.466  20.578  0.00  0.00    +0.000 A 
ATOM     10  N   UNL     1       1.945   4.355  21.442  0.00  0.00    +0.000 N 
ATOM     11  C   UNL     1       2.622   5.371  19.344  0.00  0.00    +0.000 A 
ATOM     12  C   UNL     1       3.014   4.137  18.793  0.00  0.00    +0.000 A 
ATOM     13  C   UNL     1       3.781   4.051  17.636  0.00  0.00    +0.000 A 
ATOM     14  C   UNL     1       4.214   5.234  17.035  0.00  0.00    +0.000 A 
ATOM     15  C   UNL     1       3.749   6.471  17.567  0.00  0.00    +0.000 A 
ATOM     16  C   UNL     1       2.887   6.574  18.707  0.00  0.00    +0.000 A 
ATOM     17  N   UNL     1       2.350   7.730  19.215  0.00  0.00    +0.000 NA
ATOM     18  C   UNL     1       0.969  10.035  19.982  0.00  0.00    +0.000 C 
ATOM     19  C   UNL     1       0.930  11.289  20.871  0.00  0.00    +0.000 C 
ATOM     20  H   UNL     1       1.552   4.679  22.318  0.00  0.00    +0.000 HD
ATOM     21  H   UNL     1       2.891   4.004  21.580  0.00  0.00    +0.000 HD
ENDROOT
BRANCH   1  23
ATOM     22  C   UNL     1      -0.186  14.669  21.095  0.00  0.00    +0.000 C 
ATOM     23  C   UNL     1      -0.886  13.526  21.028  0.00  0.00    +0.000 C 
BRANCH  22  28
ATOM     24  C   UNL     1      -1.254  17.455  18.712  0.00  0.00    +0.000 A 
ATOM     25  C   UNL     1      -0.108  17.574  17.928  0.00  0.00    +0.000 A 
ATOM     26  C   UNL     1       0.990  16.747  18.157  0.00  0.00    +0.000 A 
ATOM     27  C   UNL     1       0.954  15.800  19.185  0.00  0.00    +0.000 A 
ATOM     28  C   UNL     1      -0.178  15.676  20.005  0.00  0.00    +0.000 A 
ATOM     29  C   UNL     1      -1.283  16.507  19.740  0.00  0.00    +0.000 A 
BRANCH  24  31
ATOM     30  C   UNL     1      -3.503  18.149  19.070  0.00  0.00    +0.000 C 
ATOM     31  O   UNL     1      -2.271  18.307  18.376  0.00  0.00    +0.000 OA
ENDBRANCH  24  31
ENDBRANCH  22  28
ENDBRANCH   1  23
BRANCH  13  32
ATOM     32  O   UNL     1       4.015   2.748  17.289  0.00  0.00    +0.000 OA
ATOM     33  C   UNL     1       3.609   1.686  18.139  0.00  0.00    +0.000 C 
ENDBRANCH  13  32
BRANCH  14  34
ATOM     34  O   UNL     1       5.011   5.068  15.943  0.00  0.00    +0.000 OA
ATOM     35  C   UNL     1       6.371   4.693  16.012  0.00  0.00    +0.000 C 
ENDBRANCH  14  34
TORSDOF 5
ENDMDL
MODEL 4
REMARK VINA RESULT:      -7.5      2.064     10.628
REMARK  Name = 
REMARK  8 active torsions:
REMARK  status: ('A' for Active; 'I' for Inactive)
REMARK    1  A    between atoms: C_1  and  O_2
REMARK    2  A    between atoms: O_2  and  C_3
REMARK    3  A    between atoms: C_7  and  C_8
REMARK    4  A    between atoms: C_9  and  C_10
REMARK    5  A    between atoms: C_22  and  O_23
REMARK    6  A    between atoms: O_23  and  C_24
REMARK    7  A    between atoms: C_25  and  O_26
REMARK    8  A    between atoms: O_26  and  C_27
REMARK                            x       y       z     vdW  Elec       q    Type
REMARK                         _______ _______ _______ _____ _____    ______ ____
ROOT
ATOM      1  C   UNL     1       3.289   4.771  18.872  0.00  0.00    +0.000 C 
ATOM      2  O   UNL     1       3.204   3.711  19.471  0.00  0.00    +0.000 OA
ATOM      3  N   UNL     1       2.616   5.950  19.223  0.00  0.00    +0.000 N 
ATOM      4  C   UNL     1       1.831   6.014  20.467  0.00  0.00    +0.000 C 
ATOM      5  C   UNL     1       1.696   7.480  21.013  0.00  0.00    +0.000 C 
ATOM      6  N   UNL     1       1.357   8.437  19.928  0.00  0.00    +0.000 N 
ATOM      7  C   UNL     1       0.819   9.682  20.240  0.00  0.00    +0.000 A 
ATOM      8  N   UNL     1       0.139   9.781  21.385  0.00  0.00    +0.000 NA
ATOM      9  C   UNL     1      -0.380  10.969  21.697  0.00  0.00    +0.000 A 
ATOM     10  N   UNL     1      -1.223  10.985  22.824  0.00  0.00    +0.000 N 
ATOM     11  C   UNL     1      -0.190  12.130  20.951  0.00  0.00    +0.000 A 
ATOM     12  C   UNL     1      -0.588  13.397  21.415  0.00  0.00    +0.000 A 
ATOM     13  C   UNL     1      -0.532  14.533  20.614  0.00  0.00    +0.000 A 
ATOM     14  C   UNL     1      -0.111  14.393  19.290  0.00  0.00    +0.000 A 
ATOM     15  C   UNL     1       0.354  13.118  18.860  0.00  0.00    +0.000 A 
ATOM     16  C   UNL     1       0.384  11.957  19.699  0.00  0.00    +0.000 A 
ATOM     17  N   UNL     1       0.890  10.726  19.363  0.00  0.00    +0.000 NA
ATOM     18  C   UNL     1       2.269   8.365  18.790  0.00  0.00    +0.000 C 
ATOM     19  C   UNL     1       2.218   6.939  18.219  0.00  0.00    +0.000 C 
ATOM     20  H   UNL     1      -1.319  10.025  23.131  0.00  0.00    +0.000 HD
ATOM     21  H   UNL     1      -2.130  11.371  22.562  0.00  0.00    +0.000 HD
ENDROOT
BRANCH   1  23
ATOM     22  C   UNL     1       4.441   4.032  16.774  0.00  0.00    +0.000 C 
ATOM     23  C   UNL     1       4.248   4.944  17.739  0.00  0.00    +0.000 C 
BRANCH  22  28
ATOM     24  C   UNL     1       6.049   3.915  13.312  0.00  0.00    +0.000 A 
ATOM     25  C   UNL     1       7.201   4.667  13.539  0.00  0.00    +0.000 A 
ATOM     26  C   UNL     1       7.461   5.189  14.805  0.00  0.00    +0.000 A 
ATOM     27  C   UNL     1       6.562   4.972  15.853  0.00  0.00    +0.000 A 
ATOM     28  C   UNL     1       5.384   4.239  15.646  0.00  0.00    +0.000 A 
ATOM     29  C   UNL     1       5.152   3.703  14.364  0.00  0.00    +0.000 A 
BRANCH  24  31
ATOM     30  C   UNL     1       4.598   3.149  11.588  0.00  0.00    +0.000 C 
ATOM     31  O   UNL     1       5.916   3.439  12.035  0.00  0.00    +0.000 OA
ENDBRANCH  24  31
ENDBRANCH  22  28
ENDBRANCH   1  23
BRANCH  13  32
ATOM     32  O   UNL     1      -0.952  15.644  21.294  0.00  0.00    +0.000 OA
ATOM     33  C   UNL     1      -0.100  16.288  22.228  0.00  0.00    +0.000 C 
ENDBRANCH  13  32
BRANCH  14  34
ATOM     34  O   UNL     1      -0.142  15.537  18.552  0.00  0.00    +0.000 OA
ATOM     35  C   UNL     1       0.913  16.477  18.512  0.00  0.00    +0.000 C 
ENDBRANCH  14  34
TORSDOF 5
ENDMDL
MODEL 5
REMARK VINA RESULT:      -7.5      1.103      1.205
REMARK  Name = 
REMARK  8 active torsions:
REMARK  status: ('A' for Active; 'I' for Inactive)
REMARK    1  A    between atoms: C_1  and  O_2
REMARK    2  A    between atoms: O_2  and  C_3
REMARK    3  A    between atoms: C_7  and  C_8
REMARK    4  A    between atoms: C_9  and  C_10
REMARK    5  A    between atoms: C_22  and  O_23
REMARK    6  A    between atoms: O_23  and  C_24
REMARK    7  A    between atoms: C_25  and  O_26
REMARK    8  A    between atoms: O_26  and  C_27
REMARK                            x       y       z     vdW  Elec       q    Type
REMARK                         _______ _______ _______ _____ _____    ______ ____
ROOT
ATOM      1  C   UNL     1      -1.386  12.617  22.357  0.00  0.00    +0.000 C 
ATOM      2  O   UNL     1      -1.977  12.712  23.420  0.00  0.00    +0.000 OA
ATOM      3  N   UNL     1      -0.656  11.495  21.940  0.00  0.00    +0.000 N 
ATOM      4  C   UNL     1      -0.669  10.261  22.743  0.00  0.00    +0.000 C 
ATOM      5  C   UNL     1      -0.372   8.983  21.880  0.00  0.00    +0.000 C 
ATOM      6  N   UNL     1       0.774   9.201  20.960  0.00  0.00    +0.000 N 
ATOM      7  C   UNL     1       1.439   8.112  20.405  0.00  0.00    +0.000 A 
ATOM      8  N   UNL     1       1.406   6.966  21.091  0.00  0.00    +0.000 NA
ATOM      9  C   UNL     1       2.038   5.913  20.570  0.00  0.00    +0.000 A 
ATOM     10  N   UNL     1       2.117   4.780  21.401  0.00  0.00    +0.000 N 
ATOM     11  C   UNL     1       2.657   5.907  19.321  0.00  0.00    +0.000 A 
ATOM     12  C   UNL     1       3.139   4.727  18.725  0.00  0.00    +0.000 A 
ATOM     13  C   UNL     1       3.884   4.738  17.551  0.00  0.00    +0.000 A 
ATOM     14  C   UNL     1       4.200   5.971  16.976  0.00  0.00    +0.000 A 
ATOM     15  C   UNL     1       3.645   7.148  17.554  0.00  0.00    +0.000 A 
ATOM     16  C   UNL     1       2.804   7.146  18.714  0.00  0.00    +0.000 A 
ATOM     17  N   UNL     1       2.182   8.237  19.267  0.00  0.00    +0.000 NA
ATOM     18  C   UNL     1       0.629  10.393  20.130  0.00  0.00    +0.000 C 
ATOM     19  C   UNL     1       0.505  11.614  21.055  0.00  0.00    +0.000 C 
ATOM     20  H   UNL     1       1.719   5.045  22.294  0.00  0.00    +0.000 HD
ATOM     21  H   UNL     1       3.093   4.507  21.509  0.00  0.00    +0.000 HD
ENDROOT
BRANCH   1  23
ATOM     22  C   UNL     1      -1.255  14.984  21.546  0.00  0.00    +0.000 C 
ATOM     23  C   UNL     1      -1.492  13.683  21.316  0.00  0.00    +0.000 C 
BRANCH  22  28
ATOM     24  C   UNL     1      -0.396  17.244  18.590  0.00  0.00    +0.000 A 
ATOM     25  C   UNL     1      -1.567  17.994  18.493  0.00  0.00    +0.000 A 
ATOM     26  C   UNL     1      -2.614  17.782  19.388  0.00  0.00    +0.000 A 
ATOM     27  C   UNL     1      -2.502  16.805  20.383  0.00  0.00    +0.000 A 
ATOM     28  C   UNL     1      -1.344  16.020  20.487  0.00  0.00    +0.000 A 
ATOM     29  C   UNL     1      -0.291  16.267  19.586  0.00  0.00    +0.000 A 
BRANCH  24  31
ATOM     30  C   UNL     1       0.190  18.438  16.616  0.00  0.00    +0.000 C 
ATOM     31  O   UNL     1       0.566  17.559  17.669  0.00  0.00    +0.000 OA
ENDBRANCH  24  31
ENDBRANCH  22  28
ENDBRANCH   1  23
BRANCH  13  32
ATOM     32  O   UNL     1       4.219   3.470  17.161  0.00  0.00    +0.000 OA
ATOM     33  C   UNL     1       3.670   2.339  17.819  0.00  0.00    +0.000 C 
ENDBRANCH  13  32
BRANCH  14  34
ATOM     34  O   UNL     1       4.983   5.904  15.864  0.00  0.00    +0.000 OA
ATOM     35  C   UNL     1       6.346   5.532  15.882  0.00  0.00    +0.000 C 
ENDBRANCH  14  34
TORSDOF 5
ENDMDL
MODEL 6
REMARK VINA RESULT:      -7.3      2.093     10.452
REMARK  Name = 
REMARK  8 active torsions:
REMARK  status: ('A' for Active; 'I' for Inactive)
REMARK    1  A    between atoms: C_1  and  O_2
REMARK    2  A    between atoms: O_2  and  C_3
REMARK    3  A    between atoms: C_7  and  C_8
REMARK    4  A    between atoms: C_9  and  C_10
REMARK    5  A    between atoms: C_22  and  O_23
REMARK    6  A    between atoms: O_23  and  C_24
REMARK    7  A    between atoms: C_25  and  O_26
REMARK    8  A    between atoms: O_26  and  C_27
REMARK                            x       y       z     vdW  Elec       q    Type
REMARK                         _______ _______ _______ _____ _____    ______ ____
ROOT
ATOM      1  C   UNL     1       2.055   6.465  20.255  0.00  0.00    +0.000 C 
ATOM      2  O   UNL     1       1.789   5.523  20.984  0.00  0.00    +0.000 OA
ATOM      3  N   UNL     1       1.458   7.732  20.328  0.00  0.00    +0.000 N 
ATOM      4  C   UNL     1       0.525   8.051  21.422  0.00  0.00    +0.000 C 
ATOM      5  C   UNL     1       0.461   9.591  21.722  0.00  0.00    +0.000 C 
ATOM      6  N   UNL     1       0.362  10.387  20.470  0.00  0.00    +0.000 N 
ATOM      7  C   UNL     1      -0.089  11.702  20.515  0.00  0.00    +0.000 A 
ATOM      8  N   UNL     1      -0.902  12.032  21.522  0.00  0.00    +0.000 NA
ATOM      9  C   UNL     1      -1.341  13.290  21.578  0.00  0.00    +0.000 A 
ATOM     10  N   UNL     1      -2.320  13.548  22.556  0.00  0.00    +0.000 N 
ATOM     11  C   UNL     1      -0.943  14.301  20.706  0.00  0.00    +0.000 A 
ATOM     12  C   UNL     1      -1.275  15.652  20.916  0.00  0.00    +0.000 A 
ATOM     13  C   UNL     1      -1.005  16.639  19.975  0.00  0.00    +0.000 A 
ATOM     14  C   UNL     1      -0.428  16.260  18.761  0.00  0.00    +0.000 A 
ATOM     15  C   UNL     1      -0.035  14.901  18.594  0.00  0.00    +0.000 A 
ATOM     16  C   UNL     1      -0.229  13.888  19.590  0.00  0.00    +0.000 A 
ATOM     17  N   UNL     1       0.197  12.585  19.514  0.00  0.00    +0.000 NA
ATOM     18  C   UNL     1       1.406  10.067  19.500  0.00  0.00    +0.000 C 
ATOM     19  C   UNL     1       1.293   8.576  19.143  0.00  0.00    +0.000 C 
ATOM     20  H   UNL     1      -2.547  12.658  22.984  0.00  0.00    +0.000 HD
ATOM     21  H   UNL     1      -3.143  13.954  22.112  0.00  0.00    +0.000 HD
ENDROOT
BRANCH   1  23
ATOM     22  C   UNL     1       3.472   5.278  18.564  0.00  0.00    +0.000 C 
ATOM     23  C   UNL     1       3.167   6.383  19.261  0.00  0.00    +0.000 C 
BRANCH  22  28
ATOM     24  C   UNL     1       6.667   6.080  16.633  0.00  0.00    +0.000 A 
ATOM     25  C   UNL     1       6.626   5.094  15.649  0.00  0.00    +0.000 A 
ATOM     26  C   UNL     1       5.564   4.192  15.602  0.00  0.00    +0.000 A 
ATOM     27  C   UNL     1       4.538   4.263  16.550  0.00  0.00    +0.000 A 
ATOM     28  C   UNL     1       4.568   5.231  17.565  0.00  0.00    +0.000 A 
ATOM     29  C   UNL     1       5.639   6.144  17.580  0.00  0.00    +0.000 A 
BRANCH  24  31
ATOM     30  C   UNL     1       7.816   7.968  17.519  0.00  0.00    +0.000 C 
ATOM     31  O   UNL     1       7.748   6.917  16.562  0.00  0.00    +0.000 OA
ENDBRANCH  24  31
ENDBRANCH  22  28
ENDBRANCH   1  23
BRANCH  13  32
ATOM     32  O   UNL     1      -1.401  17.872  20.416  0.00  0.00    +0.000 OA
ATOM     33  C   UNL     1      -0.590  18.618  21.309  0.00  0.00    +0.000 C 
ENDBRANCH  13  32
BRANCH  14  34
ATOM     34  O   UNL     1      -0.250  17.271  17.866  0.00  0.00    +0.000 OA
ATOM     35  C   UNL     1       0.950  18.006  17.736  0.00  0.00    +0.000 C 
ENDBRANCH  14  34
TORSDOF 5
ENDMDL
MODEL 7
REMARK VINA RESULT:      -7.3      3.385     11.527
REMARK  Name = 
REMARK  8 active torsions:
REMARK  status: ('A' for Active; 'I' for Inactive)
REMARK    1  A    between atoms: C_1  and  O_2
REMARK    2  A    between atoms: O_2  and  C_3
REMARK    3  A    between atoms: C_7  and  C_8
REMARK    4  A    between atoms: C_9  and  C_10
REMARK    5  A    between atoms: C_22  and  O_23
REMARK    6  A    between atoms: O_23  and  C_24
REMARK    7  A    between atoms: C_25  and  O_26
REMARK    8  A    between atoms: O_26  and  C_27
REMARK                            x       y       z     vdW  Elec       q    Type
REMARK                         _______ _______ _______ _____ _____    ______ ____
ROOT
ATOM      1  C   UNL     1       2.466   8.660  18.027  0.00  0.00    +0.000 C 
ATOM      2  O   UNL     1       3.387   8.905  17.266  0.00  0.00    +0.000 OA
ATOM      3  N   UNL     1       1.625   9.620  18.609  0.00  0.00    +0.000 N 
ATOM      4  C   UNL     1       1.731  11.035  18.213  0.00  0.00    +0.000 C 
ATOM      5  C   UNL     1       0.388  11.819  18.437  0.00  0.00    +0.000 C 
ATOM      6  N   UNL     1      -0.209  11.510  19.763  0.00  0.00    +0.000 N 
ATOM      7  C   UNL     1      -1.159  12.363  20.314  0.00  0.00    +0.000 A 
ATOM      8  N   UNL     1      -1.116  13.644  19.940  0.00  0.00    +0.000 NA
ATOM      9  C   UNL     1      -2.022  14.473  20.460  0.00  0.00    +0.000 A 
ATOM     10  N   UNL     1      -1.837  15.838  20.165  0.00  0.00    +0.000 N 
ATOM     11  C   UNL     1      -3.060  14.076  21.301  0.00  0.00    +0.000 A 
ATOM     12  C   UNL     1      -4.105  14.942  21.669  0.00  0.00    +0.000 A 
ATOM     13  C   UNL     1      -5.058  14.595  22.620  0.00  0.00    +0.000 A 
ATOM     14  C   UNL     1      -4.938  13.361  23.262  0.00  0.00    +0.000 A 
ATOM     15  C   UNL     1      -3.915  12.470  22.827  0.00  0.00    +0.000 A 
ATOM     16  C   UNL     1      -2.979  12.779  21.788  0.00  0.00    +0.000 A 
ATOM     17  N   UNL     1      -2.025  11.934  21.278  0.00  0.00    +0.000 NA
ATOM     18  C   UNL     1      -0.371  10.078  20.003  0.00  0.00    +0.000 C 
ATOM     19  C   UNL     1       1.014   9.415  19.923  0.00  0.00    +0.000 C 
ATOM     20  H   UNL     1      -0.965  15.910  19.654  0.00  0.00    +0.000 HD
ATOM     21  H   UNL     1      -1.788  16.367  21.035  0.00  0.00    +0.000 HD
ENDROOT
BRANCH   1  23
ATOM     22  C   UNL     1       2.784   6.175  17.978  0.00  0.00    +0.000 C 
ATOM     23  C   UNL     1       2.063   7.252  18.325  0.00  0.00    +0.000 C 
BRANCH  22  28
ATOM     24  C   UNL     1       1.399   3.138  19.833  0.00  0.00    +0.000 A 
ATOM     25  C   UNL     1       1.601   2.142  18.878  0.00  0.00    +0.000 A 
ATOM     26  C   UNL     1       2.196   2.449  17.656  0.00  0.00    +0.000 A 
ATOM     27  C   UNL     1       2.585   3.762  17.374  0.00  0.00    +0.000 A 
ATOM     28  C   UNL     1       2.371   4.788  18.307  0.00  0.00    +0.000 A 
ATOM     29  C   UNL     1       1.788   4.450  19.543  0.00  0.00    +0.000 A 
BRANCH  24  31
ATOM     30  C   UNL     1       1.683   2.561  22.125  0.00  0.00    +0.000 C 
ATOM     31  O   UNL     1       0.826   2.708  20.999  0.00  0.00    +0.000 OA
ENDBRANCH  24  31
ENDBRANCH  22  28
ENDBRANCH   1  23
BRANCH  13  32
ATOM     32  O   UNL     1      -5.980  15.592  22.789  0.00  0.00    +0.000 OA
ATOM     33  C   UNL     1      -7.054  15.751  21.875  0.00  0.00    +0.000 C 
ENDBRANCH  13  32
BRANCH  14  34
ATOM     34  O   UNL     1      -5.872  13.119  24.224  0.00  0.00    +0.000 OA
ATOM     35  C   UNL     1      -7.146  12.568  23.962  0.00  0.00    +0.000 C 
ENDBRANCH  14  34
TORSDOF 5
ENDMDL
MODEL 8
REMARK VINA RESULT:      -7.2      2.164     10.436
REMARK  Name = 
REMARK  8 active torsions:
REMARK  status: ('A' for Active; 'I' for Inactive)
REMARK    1  A    between atoms: C_1  and  O_2
REMARK    2  A    between atoms: O_2  and  C_3
REMARK    3  A    between atoms: C_7  and  C_8
REMARK    4  A    between atoms: C_9  and  C_10
REMARK    5  A    between atoms: C_22  and  O_23
REMARK    6  A    between atoms: O_23  and  C_24
REMARK    7  A    between atoms: C_25  and  O_26
REMARK    8  A    between atoms: O_26  and  C_27
REMARK                            x       y       z     vdW  Elec       q    Type
REMARK                         _______ _______ _______ _____ _____    ______ ____
ROOT
ATOM      1  C   UNL     1       3.936   3.906  18.334  0.00  0.00    +0.000 C 
ATOM      2  O   UNL     1       4.012   2.803  18.851  0.00  0.00    +0.000 OA
ATOM      3  N   UNL     1       3.206   4.987  18.849  0.00  0.00    +0.000 N 
ATOM      4  C   UNL     1       2.566   4.887  20.171  0.00  0.00    +0.000 C 
ATOM      5  C   UNL     1       2.366   6.292  20.845  0.00  0.00    +0.000 C 
ATOM      6  N   UNL     1       1.823   7.286  19.884  0.00  0.00    +0.000 N 
ATOM      7  C   UNL     1       1.218   8.448  20.351  0.00  0.00    +0.000 A 
ATOM      8  N   UNL     1       0.667   8.401  21.566  0.00  0.00    +0.000 NA
ATOM      9  C   UNL     1       0.085   9.509  22.027  0.00  0.00    +0.000 A 
ATOM     10  N   UNL     1      -0.623   9.365  23.236  0.00  0.00    +0.000 N 
ATOM     11  C   UNL     1       0.087  10.733  21.361  0.00  0.00    +0.000 A 
ATOM     12  C   UNL     1      -0.365  11.920  21.966  0.00  0.00    +0.000 A 
ATOM     13  C   UNL     1      -0.500  13.109  21.259  0.00  0.00    +0.000 A 
ATOM     14  C   UNL     1      -0.222  13.105  19.890  0.00  0.00    +0.000 A 
ATOM     15  C   UNL     1       0.300  11.913  19.311  0.00  0.00    +0.000 A 
ATOM     16  C   UNL     1       0.527  10.703  20.046  0.00  0.00    +0.000 A 
ATOM     17  N   UNL     1       1.097   9.554  19.558  0.00  0.00    +0.000 NA
ATOM     18  C   UNL     1       2.603   7.382  18.652  0.00  0.00    +0.000 C 
ATOM     19  C   UNL     1       2.612   6.002  17.976  0.00  0.00    +0.000 C 
ATOM     20  H   UNL     1      -0.598   8.380  23.473  0.00  0.00    +0.000 HD
ATOM     21  H   UNL     1      -1.583   9.679  23.104  0.00  0.00    +0.000 HD
ENDROOT
BRANCH   1  23
ATOM     22  C   UNL     1       4.863   3.450  16.052  0.00  0.00    +0.000 C 
ATOM     23  C   UNL     1       4.740   4.249  17.123  0.00  0.00    +0.000 C 
BRANCH  22  28
ATOM     24  C   UNL     1       7.493   5.029  13.777  0.00  0.00    +0.000 A 
ATOM     25  C   UNL     1       7.114   4.502  12.544  0.00  0.00    +0.000 A 
ATOM     26  C   UNL     1       6.008   3.660  12.449  0.00  0.00    +0.000 A 
ATOM     27  C   UNL     1       5.277   3.329  13.594  0.00  0.00    +0.000 A 
ATOM     28  C   UNL     1       5.650   3.826  14.851  0.00  0.00    +0.000 A 
ATOM     29  C   UNL     1       6.759   4.692  14.919  0.00  0.00    +0.000 A 
BRANCH  24  31
ATOM     30  C   UNL     1       9.051   6.248  12.453  0.00  0.00    +0.000 C 
ATOM     31  O   UNL     1       8.581   5.859  13.738  0.00  0.00    +0.000 OA
ENDBRANCH  24  31
ENDBRANCH  22  28
ENDBRANCH   1  23
BRANCH  13  32
ATOM     32  O   UNL     1      -0.935  14.124  22.068  0.00  0.00    +0.000 OA
ATOM     33  C   UNL     1      -2.088  13.962  22.879  0.00  0.00    +0.000 C 
ENDBRANCH  13  32
BRANCH  14  34
ATOM     34  O   UNL     1      -0.436  14.290  19.255  0.00  0.00    +0.000 OA
ATOM     35  C   UNL     1       0.581  15.232  18.983  0.00  0.00    +0.000 C 
ENDBRANCH  14  34
TORSDOF 5
ENDMDL
MODEL 9
REMARK VINA RESULT:      -7.1      3.404     11.595
REMARK  Name = 
REMARK  8 active torsions:
REMARK  status: ('A' for Active; 'I' for Inactive)
REMARK    1  A    between atoms: C_1  and  O_2
REMARK    2  A    between atoms: O_2  and  C_3
REMARK    3  A    between atoms: C_7  and  C_8
REMARK    4  A    between atoms: C_9  and  C_10
REMARK    5  A    between atoms: C_22  and  O_23
REMARK    6  A    between atoms: O_23  and  C_24
REMARK    7  A    between atoms: C_25  and  O_26
REMARK    8  A    between atoms: O_26  and  C_27
REMARK                            x       y       z     vdW  Elec       q    Type
REMARK                         _______ _______ _______ _____ _____    ______ ____
ROOT
ATOM      1  C   UNL     1       2.262   9.112  18.229  0.00  0.00    +0.000 C 
ATOM      2  O   UNL     1       3.205   9.378  17.503  0.00  0.00    +0.000 OA
ATOM      3  N   UNL     1       1.390  10.053  18.794  0.00  0.00    +0.000 N 
ATOM      4  C   UNL     1       1.491  11.475  18.422  0.00  0.00    +0.000 C 
ATOM      5  C   UNL     1       0.133  12.240  18.610  0.00  0.00    +0.000 C 
ATOM      6  N   UNL     1      -0.505  11.905  19.910  0.00  0.00    +0.000 N 
ATOM      7  C   UNL     1      -1.484  12.740  20.440  0.00  0.00    +0.000 A 
ATOM      8  N   UNL     1      -1.444  14.026  20.085  0.00  0.00    +0.000 NA
ATOM      9  C   UNL     1      -2.377  14.837  20.585  0.00  0.00    +0.000 A 
ATOM     10  N   UNL     1      -2.198  16.208  20.316  0.00  0.00    +0.000 N 
ATOM     11  C   UNL     1      -3.438  14.416  21.384  0.00  0.00    +0.000 A 
ATOM     12  C   UNL     1      -4.506  15.265  21.727  0.00  0.00    +0.000 A 
ATOM     13  C   UNL     1      -5.487  14.894  22.640  0.00  0.00    +0.000 A 
ATOM     14  C   UNL     1      -5.374  13.653  23.270  0.00  0.00    +0.000 A 
ATOM     15  C   UNL     1      -4.326  12.780  22.858  0.00  0.00    +0.000 A 
ATOM     16  C   UNL     1      -3.358  13.114  21.856  0.00  0.00    +0.000 A 
ATOM     17  N   UNL     1      -2.378  12.287  21.368  0.00  0.00    +0.000 NA
ATOM     18  C   UNL     1      -0.658  10.469  20.125  0.00  0.00    +0.000 C 
ATOM     19  C   UNL     1       0.736   9.823  20.084  0.00  0.00    +0.000 C 
ATOM     20  H   UNL     1      -1.310  16.297  19.835  0.00  0.00    +0.000 HD
ATOM     21  H   UNL     1      -2.186  16.726  21.193  0.00  0.00    +0.000 HD
ENDROOT
BRANCH   1  23
ATOM     22  C   UNL     1       2.675   6.780  19.048  0.00  0.00    +0.000 C 
ATOM     23  C   UNL     1       1.865   7.695  18.493  0.00  0.00    +0.000 C 
BRANCH  22  28
ATOM     24  C   UNL     1       2.160   3.009  18.736  0.00  0.00    +0.000 A 
ATOM     25  C   UNL     1       1.420   2.756  19.889  0.00  0.00    +0.000 A 
ATOM     26  C   UNL     1       1.075   3.799  20.747  0.00  0.00    +0.000 A 
ATOM     27  C   UNL     1       1.481   5.106  20.462  0.00  0.00    +0.000 A 
ATOM     28  C   UNL     1       2.248   5.385  19.321  0.00  0.00    +0.000 A 
ATOM     29  C   UNL     1       2.566   4.319  18.458  0.00  0.00    +0.000 A 
BRANCH  24  31
ATOM     30  C   UNL     1       3.708   1.323  18.083  0.00  0.00    +0.000 C 
ATOM     31  O   UNL     1       2.417   1.908  17.965  0.00  0.00    +0.000 OA
ENDBRANCH  24  31
ENDBRANCH  22  28
ENDBRANCH   1  23
BRANCH  13  32
ATOM     32  O   UNL     1      -6.426  15.878  22.792  0.00  0.00    +0.000 OA
ATOM     33  C   UNL     1      -7.578  15.915  21.963  0.00  0.00    +0.000 C 
ENDBRANCH  13  32
BRANCH  14  34
ATOM     34  O   UNL     1      -6.337  13.386  24.195  0.00  0.00    +0.000 OA
ATOM     35  C   UNL     1      -7.528  12.680  23.910  0.00  0.00    +0.000 C 
ENDBRANCH  14  34
TORSDOF 5
ENDMDL
