MODEL 1
REMARK VINA RESULT:      -7.7      0.000      0.000
REMARK  Name = 
REMARK  9 active torsions:
REMARK  status: ('A' for Active; 'I' for Inactive)
REMARK    1  A    between atoms: C_1  and  C_2
REMARK    2  A    between atoms: C_5  and  C_6
REMARK    3  A    between atoms: C_6  and  C_7
REMARK    4  A    between atoms: C_6  and  N_8
REMARK    5  A    between atoms: N_8  and  C_9
REMARK    6  A    between atoms: N_15  and  C_16
REMARK    7  A    between atoms: C_19  and  C_20
REMARK    8  A    between atoms: N_23  and  C_24
REMARK    9  A    between atoms: C_25  and  C_26
REMARK                            x       y       z     vdW  Elec       q    Type
REMARK                         _______ _______ _______ _____ _____    ______ ____
ROOT
ATOM      1  C   UNL     1      -1.686  11.851  18.309  0.00  0.00    +0.000 A 
ATOM      2  C   UNL     1      -2.617  11.478  17.341  0.00  0.00    +0.000 A 
ATOM      3  C   UNL     1      -3.984  11.472  17.621  0.00  0.00    +0.000 A 
ATOM      4  C   UNL     1      -4.471  11.859  18.876  0.00  0.00    +0.000 A 
ATOM      5  C   UNL     1      -3.558  12.267  19.878  0.00  0.00    +0.000 A 
ATOM      6  C   UNL     1      -2.178  12.294  19.546  0.00  0.00    +0.000 A 
ATOM      7  N   UNL     1      -4.030  12.570  21.198  0.00  0.00    +0.000 N 
ATOM      8  C   UNL     1      -5.408  13.114  21.184  0.00  0.00    +0.000 C 
ATOM      9  C   UNL     1      -5.996  13.395  22.569  0.00  0.00    +0.000 C 
ATOM     10  C   UNL     1      -6.357  12.191  20.400  0.00  0.00    +0.000 C 
ATOM     11  O   UNL     1      -7.502  11.930  20.778  0.00  0.00    +0.000 OA
ATOM     12  N   UNL     1      -5.870  11.801  19.155  0.00  0.00    +0.000 N 
ATOM     13  C   UNL     1      -6.813  11.330  18.158  0.00  0.00    +0.000 C 
ENDROOT
BRANCH   7  14
ATOM     14  C   UNL     1      -3.093  12.973  22.263  0.00  0.00    +0.000 C 
ATOM     15  C   UNL     1      -3.298  12.572  23.705  0.00  0.00    +0.000 C 
ATOM     16  C   UNL     1      -2.203  11.939  22.912  0.00  0.00    +0.000 C 
ENDBRANCH   7  14
BRANCH   1  17
ATOM     17  N   UNL     1      -0.303  11.970  18.030  0.00  0.00    +0.000 N 
ATOM     18  H   UNL     1      -0.109  11.372  17.226  0.00  0.00    +0.000 HD
BRANCH  17  19
ATOM     19  C   UNL     1       0.651  11.649  19.121  0.00  0.00    +0.000 C 
ATOM     20  C   UNL     1       1.839  12.612  19.080  0.00  0.00    +0.000 C 
BRANCH  19  25
ATOM     21  C   UNL     1       2.904   6.227  18.927  0.00  0.00    +0.000 C 
ATOM     22  C   UNL     1       2.275   7.589  18.939  0.00  0.00    +0.000 A 
ATOM     23  C   UNL     1       2.355   8.442  17.840  0.00  0.00    +0.000 A 
ATOM     24  C   UNL     1       1.811   9.730  17.906  0.00  0.00    +0.000 A 
ATOM     25  C   UNL     1       1.153  10.203  19.059  0.00  0.00    +0.000 A 
ATOM     26  C   UNL     1       1.048   9.324  20.165  0.00  0.00    +0.000 A 
ATOM     27  C   UNL     1       0.434   9.691  21.493  0.00  0.00    +0.000 C 
ATOM     28  C   UNL     1       1.624   8.038  20.090  0.00  0.00    +0.000 A 
ENDBRANCH  19  25
ENDBRANCH  17  19
ENDBRANCH   1  17
TORSDOF 4
ENDMDL
MODEL 2
REMARK VINA RESULT:      -7.5      3.611      6.011
REMARK  Name = 
REMARK  9 active torsions:
REMARK  status: ('A' for Active; 'I' for Inactive)
REMARK    1  A    between atoms: C_1  and  C_2
REMARK    2  A    between atoms: C_5  and  C_6
REMARK    3  A    between atoms: C_6  and  C_7
REMARK    4  A    between atoms: C_6  and  N_8
REMARK    5  A    between atoms: N_8  and  C_9
REMARK    6  A    between atoms: N_15  and  C_16
REMARK    7  A    between atoms: C_19  and  C_20
REMARK    8  A    between atoms: N_23  and  C_24
REMARK    9  A    between atoms: C_25  and  C_26
REMARK                            x       y       z     vdW  Elec       q    Type
REMARK                         _______ _______ _______ _____ _____    ______ ____
ROOT
ATOM      1  C   UNL     1       2.064   8.308  18.824  0.00  0.00    +0.000 A 
ATOM      2  C   UNL     1       1.827   7.607  20.006  0.00  0.00    +0.000 A 
ATOM      3  C   UNL     1       1.184   8.213  21.086  0.00  0.00    +0.000 A 
ATOM      4  C   UNL     1       0.736   9.538  21.016  0.00  0.00    +0.000 A 
ATOM      5  C   UNL     1       0.938  10.275  19.824  0.00  0.00    +0.000 A 
ATOM      6  C   UNL     1       1.564   9.616  18.734  0.00  0.00    +0.000 A 
ATOM      7  N   UNL     1       0.577  11.662  19.769  0.00  0.00    +0.000 N 
ATOM      8  C   UNL     1      -0.576  11.971  20.647  0.00  0.00    +0.000 C 
ATOM      9  C   UNL     1      -0.970  13.450  20.686  0.00  0.00    +0.000 C 
ATOM     10  C   UNL     1      -0.329  11.468  22.079  0.00  0.00    +0.000 C 
ATOM     11  O   UNL     1      -0.632  12.121  23.081  0.00  0.00    +0.000 OA
ATOM     12  N   UNL     1       0.122  10.152  22.149  0.00  0.00    +0.000 N 
ATOM     13  C   UNL     1      -0.039   9.428  23.396  0.00  0.00    +0.000 C 
ENDROOT
BRANCH   7  14
ATOM     14  C   UNL     1       0.801  12.455  18.546  0.00  0.00    +0.000 C 
ATOM     15  C   UNL     1       1.175  13.918  18.596  0.00  0.00    +0.000 C 
ATOM     16  C   UNL     1       2.197  12.909  18.190  0.00  0.00    +0.000 C 
ENDBRANCH   7  14
BRANCH   1  17
ATOM     17  N   UNL     1       2.618   7.697  17.674  0.00  0.00    +0.000 N 
ATOM     18  H   UNL     1       1.928   7.028  17.330  0.00  0.00    +0.000 HD
BRANCH  17  19
ATOM     19  C   UNL     1       3.930   7.017  17.818  0.00  0.00    +0.000 C 
ATOM     20  C   UNL     1       4.764   7.211  16.550  0.00  0.00    +0.000 C 
BRANCH  19  25
ATOM     21  C   UNL     1       3.471   1.220  18.649  0.00  0.00    +0.000 C 
ATOM     22  C   UNL     1       3.545   2.709  18.490  0.00  0.00    +0.000 A 
ATOM     23  C   UNL     1       2.531   3.429  17.859  0.00  0.00    +0.000 A 
ATOM     24  C   UNL     1       2.659   4.811  17.671  0.00  0.00    +0.000 A 
ATOM     25  C   UNL     1       3.789   5.523  18.123  0.00  0.00    +0.000 A 
ATOM     26  C   UNL     1       4.805   4.793  18.789  0.00  0.00    +0.000 A 
ATOM     27  C   UNL     1       6.102   5.387  19.277  0.00  0.00    +0.000 C 
ATOM     28  C   UNL     1       4.670   3.398  18.947  0.00  0.00    +0.000 A 
ENDBRANCH  19  25
ENDBRANCH  17  19
ENDBRANCH   1  17
TORSDOF 4
ENDMDL
MODEL 3
REMARK VINA RESULT:      -7.3      2.415      4.860
REMARK  Name = 
REMARK  9 active torsions:
REMARK  status: ('A' for Active; 'I' for Inactive)
REMARK    1  A    between atoms: C_1  and  C_2
REMARK    2  A    between atoms: C_5  and  C_6
REMARK    3  A    between atoms: C_6  and  C_7
REMARK    4  A    between atoms: C_6  and  N_8
REMARK    5  A    between atoms: N_8  and  C_9
REMARK    6  A    between atoms: N_15  and  C_16
REMARK    7  A    between atoms: C_19  and  C_20
REMARK    8  A    between atoms: N_23  and  C_24
REMARK    9  A    between atoms: C_25  and  C_26
REMARK                            x       y       z     vdW  Elec       q    Type
REMARK                         _______ _______ _______ _____ _____    ______ ____
ROOT
ATOM      1  C   UNL     1       1.432   9.648  17.882  0.00  0.00    +0.000 A 
ATOM      2  C   UNL     1       2.319  10.642  18.293  0.00  0.00    +0.000 A 
ATOM      3  C   UNL     1       1.856  11.827  18.865  0.00  0.00    +0.000 A 
ATOM      4  C   UNL     1       0.489  12.054  19.065  0.00  0.00    +0.000 A 
ATOM      5  C   UNL     1      -0.442  11.058  18.681  0.00  0.00    +0.000 A 
ATOM      6  C   UNL     1       0.067   9.850  18.134  0.00  0.00    +0.000 A 
ATOM      7  N   UNL     1      -1.849  11.314  18.785  0.00  0.00    +0.000 N 
ATOM      8  C   UNL     1      -2.166  12.234  19.902  0.00  0.00    +0.000 C 
ATOM      9  C   UNL     1      -3.647  12.601  20.025  0.00  0.00    +0.000 C 
ATOM     10  C   UNL     1      -1.324  13.518  19.813  0.00  0.00    +0.000 C 
ATOM     11  O   UNL     1      -1.786  14.640  20.038  0.00  0.00    +0.000 OA
ATOM     12  N   UNL     1       0.035  13.293  19.608  0.00  0.00    +0.000 N 
ATOM     13  C   UNL     1       0.972  14.347  19.953  0.00  0.00    +0.000 C 
ENDROOT
BRANCH   7  14
ATOM     14  C   UNL     1      -2.835  10.299  18.367  0.00  0.00    +0.000 C 
ATOM     15  C   UNL     1      -4.088  10.665  17.606  0.00  0.00    +0.000 C 
ATOM     16  C   UNL     1      -2.981   9.950  16.905  0.00  0.00    +0.000 C 
ENDBRANCH   7  14
BRANCH   1  17
ATOM     17  N   UNL     1       1.868   8.392  17.395  0.00  0.00    +0.000 N 
ATOM     18  H   UNL     1       1.043   7.796  17.327  0.00  0.00    +0.000 HD
BRANCH  17  19
ATOM     19  C   UNL     1       2.923   7.683  18.162  0.00  0.00    +0.000 C 
ATOM     20  C   UNL     1       4.084   7.310  17.237  0.00  0.00    +0.000 C 
BRANCH  19  25
ATOM     21  C   UNL     1       1.243   2.789  20.943  0.00  0.00    +0.000 C 
ATOM     22  C   UNL     1       1.614   4.036  20.195  0.00  0.00    +0.000 A 
ATOM     23  C   UNL     1       2.151   3.986  18.910  0.00  0.00    +0.000 A 
ATOM     24  C   UNL     1       2.545   5.163  18.264  0.00  0.00    +0.000 A 
ATOM     25  C   UNL     1       2.398   6.430  18.867  0.00  0.00    +0.000 A 
ATOM     26  C   UNL     1       1.826   6.480  20.162  0.00  0.00    +0.000 A 
ATOM     27  C   UNL     1       1.656   7.741  20.972  0.00  0.00    +0.000 C 
ATOM     28  C   UNL     1       1.457   5.281  20.808  0.00  0.00    +0.000 A 
ENDBRANCH  19  25
ENDBRANCH  17  19
ENDBRANCH   1  17
TORSDOF 4
ENDMDL
MODEL 4
REMARK VINA RESULT:      -7.3      1.219      1.487
REMARK  Name = 
REMARK  9 active torsions:
REMARK  status: ('A' for Active; 'I' for Inactive)
REMARK    1  A    between atoms: C_1  and  C_2
REMARK    2  A    between atoms: C_5  and  C_6
REMARK    3  A    between atoms: C_6  and  C_7
REMARK    4  A    between atoms: C_6  and  N_8
REMARK    5  A    between atoms: N_8  and  C_9
REMARK    6  A    between atoms: N_15  and  C_16
REMARK    7  A    between atoms: C_19  and  C_20
REMARK    8  A    between atoms: N_23  and  C_24
REMARK    9  A    between atoms: C_25  and  C_26
REMARK                            x       y       z     vdW  Elec       q    Type
REMARK                         _______ _______ _______ _____ _____    ______ ____
ROOT
ATOM      1  C   UNL     1      -1.227  10.449  17.863  0.00  0.00    +0.000 A 
ATOM      2  C   UNL     1      -2.319  10.249  17.019  0.00  0.00    +0.000 A 
ATOM      3  C   UNL     1      -3.575  10.771  17.330  0.00  0.00    +0.000 A 
ATOM      4  C   UNL     1      -3.781  11.529  18.490  0.00  0.00    +0.000 A 
ATOM      5  C   UNL     1      -2.691  11.773  19.361  0.00  0.00    +0.000 A 
ATOM      6  C   UNL     1      -1.421  11.256  18.994  0.00  0.00    +0.000 A 
ATOM      7  N   UNL     1      -2.906  12.460  20.601  0.00  0.00    +0.000 N 
ATOM      8  C   UNL     1      -4.017  13.436  20.511  0.00  0.00    +0.000 C 
ATOM      9  C   UNL     1      -4.340  14.156  21.823  0.00  0.00    +0.000 C 
ATOM     10  C   UNL     1      -5.290  12.772  19.962  0.00  0.00    +0.000 C 
ATOM     11  O   UNL     1      -6.415  12.999  20.416  0.00  0.00    +0.000 OA
ATOM     12  N   UNL     1      -5.084  12.013  18.812  0.00  0.00    +0.000 N 
ATOM     13  C   UNL     1      -6.222  11.723  17.960  0.00  0.00    +0.000 C 
ENDROOT
BRANCH   7  14
ATOM     14  C   UNL     1      -1.789  12.703  21.534  0.00  0.00    +0.000 C 
ATOM     15  C   UNL     1      -1.977  12.678  23.033  0.00  0.00    +0.000 C 
ATOM     16  C   UNL     1      -1.242  11.565  22.364  0.00  0.00    +0.000 C 
ENDBRANCH   7  14
BRANCH   1  17
ATOM     17  N   UNL     1       0.081  10.025  17.530  0.00  0.00    +0.000 N 
ATOM     18  H   UNL     1       0.001   9.082  17.148  0.00  0.00    +0.000 HD
BRANCH  17  19
ATOM     19  C   UNL     1       1.105  10.035  18.604  0.00  0.00    +0.000 C 
ATOM     20  C   UNL     1       2.170  11.093  18.307  0.00  0.00    +0.000 C 
BRANCH  19  25
ATOM     21  C   UNL     1       3.967   4.965  19.386  0.00  0.00    +0.000 C 
ATOM     22  C   UNL     1       3.189   6.225  19.150  0.00  0.00    +0.000 A 
ATOM     23  C   UNL     1       3.266   6.917  17.942  0.00  0.00    +0.000 A 
ATOM     24  C   UNL     1       2.576   8.124  17.775  0.00  0.00    +0.000 A 
ATOM     25  C   UNL     1       1.771   8.670  18.796  0.00  0.00    +0.000 A 
ATOM     26  C   UNL     1       1.672   7.949  20.012  0.00  0.00    +0.000 A 
ATOM     27  C   UNL     1       0.907   8.421  21.223  0.00  0.00    +0.000 C 
ATOM     28  C   UNL     1       2.394   6.748  20.171  0.00  0.00    +0.000 A 
ENDBRANCH  19  25
ENDBRANCH  17  19
ENDBRANCH   1  17
TORSDOF 4
ENDMDL
MODEL 5
REMARK VINA RESULT:      -7.3      4.413      9.355
REMARK  Name = 
REMARK  9 active torsions:
REMARK  status: ('A' for Active; 'I' for Inactive)
REMARK    1  A    between atoms: C_1  and  C_2
REMARK    2  A    between atoms: C_5  and  C_6
REMARK    3  A    between atoms: C_6  and  C_7
REMARK    4  A    between atoms: C_6  and  N_8
REMARK    5  A    between atoms: N_8  and  C_9
REMARK    6  A    between atoms: N_15  and  C_16
REMARK    7  A    between atoms: C_19  and  C_20
REMARK    8  A    between atoms: N_23  and  C_24
REMARK    9  A    between atoms: C_25  and  C_26
REMARK                            x       y       z     vdW  Elec       q    Type
REMARK                         _______ _______ _______ _____ _____    ______ ____
ROOT
ATOM      1  C   UNL     1       1.594   7.522  20.058  0.00  0.00    +0.000 A 
ATOM      2  C   UNL     1       2.256   8.234  19.057  0.00  0.00    +0.000 A 
ATOM      3  C   UNL     1       3.068   7.584  18.128  0.00  0.00    +0.000 A 
ATOM      4  C   UNL     1       3.232   6.193  18.151  0.00  0.00    +0.000 A 
ATOM      5  C   UNL     1       2.558   5.433  19.138  0.00  0.00    +0.000 A 
ATOM      6  C   UNL     1       1.714   6.124  20.046  0.00  0.00    +0.000 A 
ATOM      7  N   UNL     1       2.794   4.022  19.240  0.00  0.00    +0.000 N 
ATOM      8  C   UNL     1       3.116   3.415  17.927  0.00  0.00    +0.000 C 
ATOM      9  C   UNL     1       3.444   1.921  17.978  0.00  0.00    +0.000 C 
ATOM     10  C   UNL     1       4.265   4.171  17.238  0.00  0.00    +0.000 C 
ATOM     11  O   UNL     1       5.178   3.599  16.637  0.00  0.00    +0.000 OA
ATOM     12  N   UNL     1       4.105   5.554  17.220  0.00  0.00    +0.000 N 
ATOM     13  C   UNL     1       4.847   6.325  16.240  0.00  0.00    +0.000 C 
ENDROOT
BRANCH   7  14
ATOM     14  C   UNL     1       2.121   3.215  20.275  0.00  0.00    +0.000 C 
ATOM     15  C   UNL     1       2.894   2.373  21.264  0.00  0.00    +0.000 C 
ATOM     16  C   UNL     1       2.220   3.622  21.727  0.00  0.00    +0.000 C 
ENDBRANCH   7  14
BRANCH   1  17
ATOM     17  N   UNL     1       0.682   8.132  20.951  0.00  0.00    +0.000 N 
ATOM     18  H   UNL     1      -0.208   8.213  20.459  0.00  0.00    +0.000 HD
BRANCH  17  19
ATOM     19  C   UNL     1       1.051   9.454  21.518  0.00  0.00    +0.000 C 
ATOM     20  C   UNL     1       1.728   9.272  22.878  0.00  0.00    +0.000 C 
BRANCH  19  25
ATOM     21  C   UNL     1      -3.347  13.285  22.213  0.00  0.00    +0.000 C 
ATOM     22  C   UNL     1      -2.271  12.255  22.035  0.00  0.00    +0.000 A 
ATOM     23  C   UNL     1      -1.810  11.487  23.102  0.00  0.00    +0.000 A 
ATOM     24  C   UNL     1      -0.761  10.578  22.916  0.00  0.00    +0.000 A 
ATOM     25  C   UNL     1      -0.151  10.391  21.658  0.00  0.00    +0.000 A 
ATOM     26  C   UNL     1      -0.641  11.153  20.569  0.00  0.00    +0.000 A 
ATOM     27  C   UNL     1      -0.062  11.121  19.177  0.00  0.00    +0.000 C 
ATOM     28  C   UNL     1      -1.682  12.081  20.781  0.00  0.00    +0.000 A 
ENDBRANCH  19  25
ENDBRANCH  17  19
ENDBRANCH   1  17
TORSDOF 4
ENDMDL
MODEL 6
REMARK VINA RESULT:      -7.1      2.654      4.912
REMARK  Name = 
REMARK  9 active torsions:
REMARK  status: ('A' for Active; 'I' for Inactive)
REMARK    1  A    between atoms: C_1  and  C_2
REMARK    2  A    between atoms: C_5  and  C_6
REMARK    3  A    between atoms: C_6  and  C_7
REMARK    4  A    between atoms: C_6  and  N_8
REMARK    5  A    between atoms: N_8  and  C_9
REMARK    6  A    between atoms: N_15  and  C_16
REMARK    7  A    between atoms: C_19  and  C_20
REMARK    8  A    between atoms: N_23  and  C_24
REMARK    9  A    between atoms: C_25  and  C_26
REMARK                            x       y       z     vdW  Elec       q    Type
REMARK                         _______ _______ _______ _____ _____    ______ ____
ROOT
ATOM      1  C   UNL     1       1.574   8.475  18.906  0.00  0.00    +0.000 A 
ATOM      2  C   UNL     1       1.042   8.618  17.624  0.00  0.00    +0.000 A 
ATOM      3  C   UNL     1      -0.036   9.470  17.384  0.00  0.00    +0.000 A 
ATOM      4  C   UNL     1      -0.611  10.226  18.413  0.00  0.00    +0.000 A 
ATOM      5  C   UNL     1      -0.084  10.125  19.724  0.00  0.00    +0.000 A 
ATOM      6  C   UNL     1       1.035   9.275  19.925  0.00  0.00    +0.000 A 
ATOM      7  N   UNL     1      -0.723  10.813  20.808  0.00  0.00    +0.000 N 
ATOM      8  C   UNL     1      -1.371  12.069  20.364  0.00  0.00    +0.000 C 
ATOM      9  C   UNL     1      -2.129  12.818  21.462  0.00  0.00    +0.000 C 
ATOM     10  C   UNL     1      -2.312  11.812  19.174  0.00  0.00    +0.000 C 
ATOM     11  O   UNL     1      -3.422  12.341  19.070  0.00  0.00    +0.000 OA
ATOM     12  N   UNL     1      -1.743  11.055  18.153  0.00  0.00    +0.000 N 
ATOM     13  C   UNL     1      -2.330  11.125  16.828  0.00  0.00    +0.000 C 
ENDROOT
BRANCH   7  14
ATOM     14  C   UNL     1      -0.205  10.702  22.184  0.00  0.00    +0.000 C 
ATOM     15  C   UNL     1      -1.122  10.566  23.377  0.00  0.00    +0.000 C 
ATOM     16  C   UNL     1      -0.319   9.391  22.927  0.00  0.00    +0.000 C 
ENDBRANCH   7  14
BRANCH   1  17
ATOM     17  N   UNL     1       2.730   7.703  19.169  0.00  0.00    +0.000 N 
ATOM     18  H   UNL     1       3.498   8.129  18.649  0.00  0.00    +0.000 HD
BRANCH  17  19
ATOM     19  C   UNL     1       2.676   6.252  18.862  0.00  0.00    +0.000 C 
ATOM     20  C   UNL     1       2.939   5.436  20.130  0.00  0.00    +0.000 C 
BRANCH  19  25
ATOM     21  C   UNL     1       6.718   4.636  14.917  0.00  0.00    +0.000 C 
ATOM     22  C   UNL     1       5.653   5.084  15.874  0.00  0.00    +0.000 A 
ATOM     23  C   UNL     1       5.666   6.359  16.438  0.00  0.00    +0.000 A 
ATOM     24  C   UNL     1       4.693   6.725  17.376  0.00  0.00    +0.000 A 
ATOM     25  C   UNL     1       3.666   5.843  17.768  0.00  0.00    +0.000 A 
ATOM     26  C   UNL     1       3.639   4.558  17.172  0.00  0.00    +0.000 A 
ATOM     27  C   UNL     1       2.650   3.475  17.524  0.00  0.00    +0.000 C 
ATOM     28  C   UNL     1       4.641   4.197  16.247  0.00  0.00    +0.000 A 
ENDBRANCH  19  25
ENDBRANCH  17  19
ENDBRANCH   1  17
TORSDOF 4
ENDMDL
MODEL 7
REMARK VINA RESULT:      -7.0      4.514      9.103
REMARK  Name = 
REMARK  9 active torsions:
REMARK  status: ('A' for Active; 'I' for Inactive)
REMARK    1  A    between atoms: C_1  and  C_2
REMARK    2  A    between atoms: C_5  and  C_6
REMARK    3  A    between atoms: C_6  and  C_7
REMARK    4  A    between atoms: C_6  and  N_8
REMARK    5  A    between atoms: N_8  and  C_9
REMARK    6  A    between atoms: N_15  and  C_16
REMARK    7  A    between atoms: C_19  and  C_20
REMARK    8  A    between atoms: N_23  and  C_24
REMARK    9  A    between atoms: C_25  and  C_26
REMARK                            x       y       z     vdW  Elec       q    Type
REMARK                         _______ _______ _______ _____ _____    ______ ____
ROOT
ATOM      1  C   UNL     1       1.826   8.004  19.457  0.00  0.00    +0.000 A 
ATOM      2  C   UNL     1       2.572   8.578  18.427  0.00  0.00    +0.000 A 
ATOM      3  C   UNL     1       3.372   7.793  17.596  0.00  0.00    +0.000 A 
ATOM      4  C   UNL     1       3.440   6.403  17.751  0.00  0.00    +0.000 A 
ATOM      5  C   UNL     1       2.679   5.782  18.771  0.00  0.00    +0.000 A 
ATOM      6  C   UNL     1       1.850   6.607  19.576  0.00  0.00    +0.000 A 
ATOM      7  N   UNL     1       2.814   4.374  19.009  0.00  0.00    +0.000 N 
ATOM      8  C   UNL     1       3.143   3.630  17.770  0.00  0.00    +0.000 C 
ATOM      9  C   UNL     1       3.367   2.129  17.969  0.00  0.00    +0.000 C 
ATOM     10  C   UNL     1       4.366   4.243  17.068  0.00  0.00    +0.000 C 
ATOM     11  O   UNL     1       5.260   3.561  16.560  0.00  0.00    +0.000 OA
ATOM     12  N   UNL     1       4.301   5.626  16.919  0.00  0.00    +0.000 N 
ATOM     13  C   UNL     1       5.131   6.255  15.908  0.00  0.00    +0.000 C 
ENDROOT
BRANCH   7  14
ATOM     14  C   UNL     1       2.050   3.711  20.082  0.00  0.00    +0.000 C 
ATOM     15  C   UNL     1       2.673   2.677  20.990  0.00  0.00    +0.000 C 
ATOM     16  C   UNL     1       2.351   4.031  21.527  0.00  0.00    +0.000 C 
ENDBRANCH   7  14
BRANCH   1  17
ATOM     17  N   UNL     1       0.925   8.752  20.252  0.00  0.00    +0.000 N 
ATOM     18  H   UNL     1       0.010   8.310  20.161  0.00  0.00    +0.000 HD
BRANCH  17  19
ATOM     19  C   UNL     1       0.798  10.204  19.972  0.00  0.00    +0.000 C 
ATOM     20  C   UNL     1       0.628  10.979  21.280  0.00  0.00    +0.000 C 
BRANCH  19  25
ATOM     21  C   UNL     1      -3.866  11.455  16.626  0.00  0.00    +0.000 C 
ATOM     22  C   UNL     1      -2.647  11.103  17.427  0.00  0.00    +0.000 A 
ATOM     23  C   UNL     1      -2.476   9.834  17.979  0.00  0.00    +0.000 A 
ATOM     24  C   UNL     1      -1.357   9.556  18.773  0.00  0.00    +0.000 A 
ATOM     25  C   UNL     1      -0.363  10.523  19.026  0.00  0.00    +0.000 A 
ATOM     26  C   UNL     1      -0.525  11.803  18.440  0.00  0.00    +0.000 A 
ATOM     27  C   UNL     1       0.409  12.966  18.659  0.00  0.00    +0.000 C 
ATOM     28  C   UNL     1      -1.671  12.073  17.662  0.00  0.00    +0.000 A 
ENDBRANCH  19  25
ENDBRANCH  17  19
ENDBRANCH   1  17
TORSDOF 4
ENDMDL
MODEL 8
REMARK VINA RESULT:      -7.0      2.113      3.589
REMARK  Name = 
REMARK  9 active torsions:
REMARK  status: ('A' for Active; 'I' for Inactive)
REMARK    1  A    between atoms: C_1  and  C_2
REMARK    2  A    between atoms: C_5  and  C_6
REMARK    3  A    between atoms: C_6  and  C_7
REMARK    4  A    between atoms: C_6  and  N_8
REMARK    5  A    between atoms: N_8  and  C_9
REMARK    6  A    between atoms: N_15  and  C_16
REMARK    7  A    between atoms: C_19  and  C_20
REMARK    8  A    between atoms: N_23  and  C_24
REMARK    9  A    between atoms: C_25  and  C_26
REMARK                            x       y       z     vdW  Elec       q    Type
REMARK                         _______ _______ _______ _____ _____    ______ ____
ROOT
ATOM      1  C   UNL     1       0.430   9.484  18.430  0.00  0.00    +0.000 A 
ATOM      2  C   UNL     1      -0.400   9.423  17.311  0.00  0.00    +0.000 A 
ATOM      3  C   UNL     1      -1.614  10.109  17.277  0.00  0.00    +0.000 A 
ATOM      4  C   UNL     1      -2.035  10.899  18.354  0.00  0.00    +0.000 A 
ATOM      5  C   UNL     1      -1.208  11.004  19.500  0.00  0.00    +0.000 A 
ATOM      6  C   UNL     1       0.036  10.321  19.485  0.00  0.00    +0.000 A 
ATOM      7  N   UNL     1      -1.668  11.726  20.651  0.00  0.00    +0.000 N 
ATOM      8  C   UNL     1      -2.573  12.839  20.284  0.00  0.00    +0.000 C 
ATOM      9  C   UNL     1      -3.153  13.608  21.474  0.00  0.00    +0.000 C 
ATOM     10  C   UNL     1      -3.719  12.344  19.385  0.00  0.00    +0.000 C 
ATOM     11  O   UNL     1      -4.886  12.723  19.516  0.00  0.00    +0.000 OA
ATOM     12  N   UNL     1      -3.302  11.554  18.317  0.00  0.00    +0.000 N 
ATOM     13  C   UNL     1      -4.186  11.408  17.175  0.00  0.00    +0.000 C 
ENDROOT
BRANCH   7  14
ATOM     14  C   UNL     1      -0.833  11.828  21.863  0.00  0.00    +0.000 C 
ATOM     15  C   UNL     1      -1.433  11.861  23.249  0.00  0.00    +0.000 C 
ATOM     16  C   UNL     1      -0.706  10.641  22.790  0.00  0.00    +0.000 C 
ENDBRANCH   7  14
BRANCH   1  17
ATOM     17  N   UNL     1       1.714   8.888  18.460  0.00  0.00    +0.000 N 
ATOM     18  H   UNL     1       2.113   8.993  17.526  0.00  0.00    +0.000 HD
BRANCH  17  19
ATOM     19  C   UNL     1       1.805   7.466  18.875  0.00  0.00    +0.000 C 
ATOM     20  C   UNL     1       2.151   7.375  20.363  0.00  0.00    +0.000 C 
BRANCH  19  25
ATOM     21  C   UNL     1       5.952   4.454  16.007  0.00  0.00    +0.000 C 
ATOM     22  C   UNL     1       4.868   5.244  16.678  0.00  0.00    +0.000 A 
ATOM     23  C   UNL     1       4.960   6.626  16.833  0.00  0.00    +0.000 A 
ATOM     24  C   UNL     1       3.960   7.326  17.520  0.00  0.00    +0.000 A 
ATOM     25  C   UNL     1       2.829   6.677  18.055  0.00  0.00    +0.000 A 
ATOM     26  C   UNL     1       2.725   5.276  17.871  0.00  0.00    +0.000 A 
ATOM     27  C   UNL     1       1.616   4.422  18.432  0.00  0.00    +0.000 C 
ATOM     28  C   UNL     1       3.753   4.583  17.198  0.00  0.00    +0.000 A 
ENDBRANCH  19  25
ENDBRANCH  17  19
ENDBRANCH   1  17
TORSDOF 4
ENDMDL
MODEL 9
REMARK VINA RESULT:      -7.0      4.338      9.183
REMARK  Name = 
REMARK  9 active torsions:
REMARK  status: ('A' for Active; 'I' for Inactive)
REMARK    1  A    between atoms: C_1  and  C_2
REMARK    2  A    between atoms: C_5  and  C_6
REMARK    3  A    between atoms: C_6  and  C_7
REMARK    4  A    between atoms: C_6  and  N_8
REMARK    5  A    between atoms: N_8  and  C_9
REMARK    6  A    between atoms: N_15  and  C_16
REMARK    7  A    between atoms: C_19  and  C_20
REMARK    8  A    between atoms: N_23  and  C_24
REMARK    9  A    between atoms: C_25  and  C_26
REMARK                            x       y       z     vdW  Elec       q    Type
REMARK                         _______ _______ _______ _____ _____    ______ ____
ROOT
ATOM      1  C   UNL     1       2.007   8.229  18.787  0.00  0.00    +0.000 A 
ATOM      2  C   UNL     1       2.977   8.585  17.850  0.00  0.00    +0.000 A 
ATOM      3  C   UNL     1       3.748   7.615  17.209  0.00  0.00    +0.000 A 
ATOM      4  C   UNL     1       3.564   6.251  17.467  0.00  0.00    +0.000 A 
ATOM      5  C   UNL     1       2.573   5.849  18.396  0.00  0.00    +0.000 A 
ATOM      6  C   UNL     1       1.784   6.861  19.003  0.00  0.00    +0.000 A 
ATOM      7  N   UNL     1       2.440   4.465  18.748  0.00  0.00    +0.000 N 
ATOM      8  C   UNL     1       2.816   3.568  17.630  0.00  0.00    +0.000 C 
ATOM      9  C   UNL     1       2.759   2.076  17.963  0.00  0.00    +0.000 C 
ATOM     10  C   UNL     1       4.211   3.921  17.087  0.00  0.00    +0.000 C 
ATOM     11  O   UNL     1       5.044   3.067  16.773  0.00  0.00    +0.000 OA
ATOM     12  N   UNL     1       4.396   5.278  16.835  0.00  0.00    +0.000 N 
ATOM     13  C   UNL     1       5.454   5.677  15.926  0.00  0.00    +0.000 C 
ENDROOT
BRANCH   7  14
ATOM     14  C   UNL     1       1.431   4.028  19.731  0.00  0.00    +0.000 C 
ATOM     15  C   UNL     1       1.570   2.738  20.504  0.00  0.00    +0.000 C 
ATOM     16  C   UNL     1       1.762   4.041  21.205  0.00  0.00    +0.000 C 
ENDBRANCH   7  14
BRANCH   1  17
ATOM     17  N   UNL     1       1.137   9.176  19.378  0.00  0.00    +0.000 N 
ATOM     18  H   UNL     1       0.304   8.668  19.678  0.00  0.00    +0.000 HD
BRANCH  17  19
ATOM     19  C   UNL     1       0.729  10.345  18.559  0.00  0.00    +0.000 C 
ATOM     20  C   UNL     1       1.787  11.447  18.654  0.00  0.00    +0.000 C 
BRANCH  19  25
ATOM     21  C   UNL     1      -4.410  12.799  19.999  0.00  0.00    +0.000 C 
ATOM     22  C   UNL     1      -3.108  12.125  19.680  0.00  0.00    +0.000 A 
ATOM     23  C   UNL     1      -1.972  12.321  20.464  0.00  0.00    +0.000 A 
ATOM     24  C   UNL     1      -0.756  11.727  20.104  0.00  0.00    +0.000 A 
ATOM     25  C   UNL     1      -0.637  10.902  18.966  0.00  0.00    +0.000 A 
ATOM     26  C   UNL     1      -1.801  10.682  18.188  0.00  0.00    +0.000 A 
ATOM     27  C   UNL     1      -1.834   9.881  16.911  0.00  0.00    +0.000 C 
ATOM     28  C   UNL     1      -3.011  11.308  18.552  0.00  0.00    +0.000 A 
ENDBRANCH  19  25
ENDBRANCH  17  19
ENDBRANCH   1  17
TORSDOF 4
ENDMDL
