MODEL 1
REMARK VINA RESULT:      -6.8      0.000      0.000
REMARK  Name = 
REMARK  5 active torsions:
REMARK  status: ('A' for Active; 'I' for Inactive)
REMARK    1  A    between atoms: C_1  and  C_2
REMARK    2  A    between atoms: N_5  and  C_6
REMARK    3  A    between atoms: N_5  and  C_7
REMARK    4  A    between atoms: C_7  and  C_8
REMARK    5  A    between atoms: C_13  and  C_14
REMARK                            x       y       z     vdW  Elec       q    Type
REMARK                         _______ _______ _______ _____ _____    ______ ____
ROOT
ATOM      1  C   UNL     1       7.810   8.437  17.768  0.00  0.00    +0.000 C 
ATOM      2  C   UNL     1       7.028   7.260  17.278  0.00  0.00    +0.000 A 
ATOM      3  N   UNL     1       5.821   7.045  17.826  0.00  0.00    +0.000 NA
ATOM      4  C   UNL     1       4.999   6.035  17.412  0.00  0.00    +0.000 A 
ATOM      5  N   UNL     1       3.736   5.958  18.023  0.00  0.00    +0.000 N 
ATOM      6  C   UNL     1       3.623   6.711  19.281  0.00  0.00    +0.000 C 
ATOM      7  C   UNL     1       5.517   5.245  16.351  0.00  0.00    +0.000 A 
ATOM      8  S   UNL     1       4.847   3.923  15.450  0.00  0.00    +0.000 S 
ATOM      9  C   UNL     1       6.249   3.707  14.510  0.00  0.00    +0.000 A 
ATOM     10  C   UNL     1       7.205   4.643  14.810  0.00  0.00    +0.000 A 
ATOM     11  C   UNL     1       6.796   5.524  15.855  0.00  0.00    +0.000 A 
ATOM     12  N   UNL     1       7.574   6.531  16.309  0.00  0.00    +0.000 NA
ENDROOT
BRANCH   5  13
ATOM     13  C   UNL     1       2.951   4.729  18.014  0.00  0.00    +0.000 C 
BRANCH  13  14
ATOM     14  C   UNL     1       3.071   3.816  19.228  0.00  0.00    +0.000 A 
ATOM     15  C   UNL     1       4.241   3.027  19.246  0.00  0.00    +0.000 A 
ATOM     16  C   UNL     1       4.482   2.153  20.296  0.00  0.00    +0.000 A 
ATOM     17  N   UNL     1       3.643   1.995  21.331  0.00  0.00    +0.000 NA
ATOM     18  C   UNL     1       2.522   2.749  21.307  0.00  0.00    +0.000 A 
ATOM     19  C   UNL     1       2.175   3.667  20.306  0.00  0.00    +0.000 A 
ATOM     20  C   UNL     1       0.892   4.420  20.475  0.00  0.00    +0.000 C 
ENDBRANCH  13  14
ENDBRANCH   5  13
TORSDOF 2
ENDMDL
MODEL 2
REMARK VINA RESULT:      -6.7      0.746      1.609
REMARK  Name = 
REMARK  5 active torsions:
REMARK  status: ('A' for Active; 'I' for Inactive)
REMARK    1  A    between atoms: C_1  and  C_2
REMARK    2  A    between atoms: N_5  and  C_6
REMARK    3  A    between atoms: N_5  and  C_7
REMARK    4  A    between atoms: C_7  and  C_8
REMARK    5  A    between atoms: C_13  and  C_14
REMARK                            x       y       z     vdW  Elec       q    Type
REMARK                         _______ _______ _______ _____ _____    ______ ____
ROOT
ATOM      1  C   UNL     1       7.818   8.287  17.841  0.00  0.00    +0.000 C 
ATOM      2  C   UNL     1       7.006   7.173  17.258  0.00  0.00    +0.000 A 
ATOM      3  N   UNL     1       5.767   6.989  17.742  0.00  0.00    +0.000 NA
ATOM      4  C   UNL     1       4.920   6.041  17.241  0.00  0.00    +0.000 A 
ATOM      5  N   UNL     1       3.630   5.994  17.793  0.00  0.00    +0.000 N 
ATOM      6  C   UNL     1       3.494   6.688  19.083  0.00  0.00    +0.000 C 
ATOM      7  C   UNL     1       5.450   5.281  16.164  0.00  0.00    +0.000 A 
ATOM      8  S   UNL     1       4.762   4.039  15.168  0.00  0.00    +0.000 S 
ATOM      9  C   UNL     1       6.193   3.804  14.279  0.00  0.00    +0.000 A 
ATOM     10  C   UNL     1       7.176   4.678  14.667  0.00  0.00    +0.000 A 
ATOM     11  C   UNL     1       6.761   5.523  15.738  0.00  0.00    +0.000 A 
ATOM     12  N   UNL     1       7.562   6.469  16.277  0.00  0.00    +0.000 NA
ENDROOT
BRANCH   5  13
ATOM     13  C   UNL     1       2.790   4.805  17.688  0.00  0.00    +0.000 C 
BRANCH  13  14
ATOM     14  C   UNL     1       2.541   4.012  18.963  0.00  0.00    +0.000 A 
ATOM     15  C   UNL     1       1.199   4.023  19.400  0.00  0.00    +0.000 A 
ATOM     16  C   UNL     1       0.828   3.337  20.548  0.00  0.00    +0.000 A 
ATOM     17  N   UNL     1       1.693   2.644  21.304  0.00  0.00    +0.000 NA
ATOM     18  C   UNL     1       2.978   2.640  20.885  0.00  0.00    +0.000 A 
ATOM     19  C   UNL     1       3.467   3.289  19.743  0.00  0.00    +0.000 A 
ATOM     20  C   UNL     1       4.927   3.147  19.441  0.00  0.00    +0.000 C 
ENDBRANCH  13  14
ENDBRANCH   5  13
TORSDOF 2
ENDMDL
MODEL 3
REMARK VINA RESULT:      -6.5      1.965      3.499
REMARK  Name = 
REMARK  5 active torsions:
REMARK  status: ('A' for Active; 'I' for Inactive)
REMARK    1  A    between atoms: C_1  and  C_2
REMARK    2  A    between atoms: N_5  and  C_6
REMARK    3  A    between atoms: N_5  and  C_7
REMARK    4  A    between atoms: C_7  and  C_8
REMARK    5  A    between atoms: C_13  and  C_14
REMARK                            x       y       z     vdW  Elec       q    Type
REMARK                         _______ _______ _______ _____ _____    ______ ____
ROOT
ATOM      1  C   UNL     1       5.529   4.194  13.719  0.00  0.00    +0.000 C 
ATOM      2  C   UNL     1       5.779   4.541  15.152  0.00  0.00    +0.000 A 
ATOM      3  N   UNL     1       5.151   3.809  16.086  0.00  0.00    +0.000 NA
ATOM      4  C   UNL     1       5.352   4.002  17.424  0.00  0.00    +0.000 A 
ATOM      5  N   UNL     1       4.682   3.127  18.295  0.00  0.00    +0.000 N 
ATOM      6  C   UNL     1       3.565   2.394  17.681  0.00  0.00    +0.000 C 
ATOM      7  C   UNL     1       6.286   5.024  17.742  0.00  0.00    +0.000 A 
ATOM      8  S   UNL     1       6.922   5.589  19.254  0.00  0.00    +0.000 S 
ATOM      9  C   UNL     1       7.872   6.800  18.529  0.00  0.00    +0.000 A 
ATOM     10  C   UNL     1       7.777   6.764  17.162  0.00  0.00    +0.000 A 
ATOM     11  C   UNL     1       6.878   5.754  16.705  0.00  0.00    +0.000 A 
ATOM     12  N   UNL     1       6.634   5.530  15.395  0.00  0.00    +0.000 NA
ENDROOT
BRANCH   5  13
ATOM     13  C   UNL     1       4.449   3.465  19.696  0.00  0.00    +0.000 C 
BRANCH  13  14
ATOM     14  C   UNL     1       3.246   4.345  20.009  0.00  0.00    +0.000 A 
ATOM     15  C   UNL     1       3.397   5.694  19.622  0.00  0.00    +0.000 A 
ATOM     16  C   UNL     1       2.376   6.607  19.843  0.00  0.00    +0.000 A 
ATOM     17  N   UNL     1       1.214   6.284  20.430  0.00  0.00    +0.000 NA
ATOM     18  C   UNL     1       1.075   4.993  20.804  0.00  0.00    +0.000 A 
ATOM     19  C   UNL     1       2.032   3.984  20.628  0.00  0.00    +0.000 A 
ATOM     20  C   UNL     1       1.676   2.607  21.097  0.00  0.00    +0.000 C 
ENDBRANCH  13  14
ENDBRANCH   5  13
TORSDOF 2
ENDMDL
MODEL 4
REMARK VINA RESULT:      -6.4      2.248      6.037
REMARK  Name = 
REMARK  5 active torsions:
REMARK  status: ('A' for Active; 'I' for Inactive)
REMARK    1  A    between atoms: C_1  and  C_2
REMARK    2  A    between atoms: N_5  and  C_6
REMARK    3  A    between atoms: N_5  and  C_7
REMARK    4  A    between atoms: C_7  and  C_8
REMARK    5  A    between atoms: C_13  and  C_14
REMARK                            x       y       z     vdW  Elec       q    Type
REMARK                         _______ _______ _______ _____ _____    ______ ____
ROOT
ATOM      1  C   UNL     1       1.591   2.495  21.975  0.00  0.00    +0.000 C 
ATOM      2  C   UNL     1       1.903   3.549  20.961  0.00  0.00    +0.000 A 
ATOM      3  N   UNL     1       2.299   3.143  19.744  0.00  0.00    +0.000 NA
ATOM      4  C   UNL     1       2.552   4.019  18.727  0.00  0.00    +0.000 A 
ATOM      5  N   UNL     1       2.898   3.461  17.485  0.00  0.00    +0.000 N 
ATOM      6  C   UNL     1       3.324   2.055  17.548  0.00  0.00    +0.000 C 
ATOM      7  C   UNL     1       2.348   5.386  19.056  0.00  0.00    +0.000 A 
ATOM      8  S   UNL     1       2.463   6.839  18.116  0.00  0.00    +0.000 S 
ATOM      9  C   UNL     1       2.082   7.852  19.429  0.00  0.00    +0.000 A 
ATOM     10  C   UNL     1       1.810   7.127  20.561  0.00  0.00    +0.000 A 
ATOM     11  C   UNL     1       1.957   5.723  20.357  0.00  0.00    +0.000 A 
ATOM     12  N   UNL     1       1.730   4.815  21.332  0.00  0.00    +0.000 NA
ENDROOT
BRANCH   5  13
ATOM     13  C   UNL     1       3.601   4.232  16.465  0.00  0.00    +0.000 C 
BRANCH  13  14
ATOM     14  C   UNL     1       5.114   4.342  16.594  0.00  0.00    +0.000 A 
ATOM     15  C   UNL     1       5.569   4.567  17.911  0.00  0.00    +0.000 A 
ATOM     16  C   UNL     1       6.926   4.683  18.175  0.00  0.00    +0.000 A 
ATOM     17  N   UNL     1       7.871   4.602  17.227  0.00  0.00    +0.000 NA
ATOM     18  C   UNL     1       7.431   4.391  15.966  0.00  0.00    +0.000 A 
ATOM     19  C   UNL     1       6.090   4.253  15.581  0.00  0.00    +0.000 A 
ATOM     20  C   UNL     1       5.812   4.007  14.130  0.00  0.00    +0.000 C 
ENDBRANCH  13  14
ENDBRANCH   5  13
TORSDOF 2
ENDMDL
MODEL 5
REMARK VINA RESULT:      -6.3      2.135      6.041
REMARK  Name = 
REMARK  5 active torsions:
REMARK  status: ('A' for Active; 'I' for Inactive)
REMARK    1  A    between atoms: C_1  and  C_2
REMARK    2  A    between atoms: N_5  and  C_6
REMARK    3  A    between atoms: N_5  and  C_7
REMARK    4  A    between atoms: C_7  and  C_8
REMARK    5  A    between atoms: C_13  and  C_14
REMARK                            x       y       z     vdW  Elec       q    Type
REMARK                         _______ _______ _______ _____ _____    ______ ____
ROOT
ATOM      1  C   UNL     1       1.368   8.241  20.915  0.00  0.00    +0.000 C 
ATOM      2  C   UNL     1       1.778   6.890  20.420  0.00  0.00    +0.000 A 
ATOM      3  N   UNL     1       2.654   6.841  19.404  0.00  0.00    +0.000 NA
ATOM      4  C   UNL     1       3.141   5.662  18.914  0.00  0.00    +0.000 A 
ATOM      5  N   UNL     1       4.099   5.752  17.891  0.00  0.00    +0.000 N 
ATOM      6  C   UNL     1       4.155   7.060  17.222  0.00  0.00    +0.000 C 
ATOM      7  C   UNL     1       2.658   4.501  19.574  0.00  0.00    +0.000 A 
ATOM      8  S   UNL     1       3.019   2.816  19.377  0.00  0.00    +0.000 S 
ATOM      9  C   UNL     1       1.913   2.324  20.573  0.00  0.00    +0.000 A 
ATOM     10  C   UNL     1       1.308   3.399  21.171  0.00  0.00    +0.000 A 
ATOM     11  C   UNL     1       1.727   4.642  20.610  0.00  0.00    +0.000 A 
ATOM     12  N   UNL     1       1.269   5.835  21.049  0.00  0.00    +0.000 NA
ENDROOT
BRANCH   5  13
ATOM     13  C   UNL     1       4.375   4.634  16.995  0.00  0.00    +0.000 C 
BRANCH  13  14
ATOM     14  C   UNL     1       5.583   4.758  16.077  0.00  0.00    +0.000 A 
ATOM     15  C   UNL     1       5.294   4.568  14.708  0.00  0.00    +0.000 A 
ATOM     16  C   UNL     1       6.301   4.658  13.758  0.00  0.00    +0.000 A 
ATOM     17  N   UNL     1       7.582   4.914  14.065  0.00  0.00    +0.000 NA
ATOM     18  C   UNL     1       7.856   5.090  15.376  0.00  0.00    +0.000 A 
ATOM     19  C   UNL     1       6.923   5.029  16.421  0.00  0.00    +0.000 A 
ATOM     20  C   UNL     1       7.427   5.271  17.810  0.00  0.00    +0.000 C 
ENDBRANCH  13  14
ENDBRANCH   5  13
TORSDOF 2
ENDMDL
MODEL 6
REMARK VINA RESULT:      -6.3      1.928      3.291
REMARK  Name = 
REMARK  5 active torsions:
REMARK  status: ('A' for Active; 'I' for Inactive)
REMARK    1  A    between atoms: C_1  and  C_2
REMARK    2  A    between atoms: N_5  and  C_6
REMARK    3  A    between atoms: N_5  and  C_7
REMARK    4  A    between atoms: C_7  and  C_8
REMARK    5  A    between atoms: C_13  and  C_14
REMARK                            x       y       z     vdW  Elec       q    Type
REMARK                         _______ _______ _______ _____ _____    ______ ____
ROOT
ATOM      1  C   UNL     1       5.569   4.110  13.544  0.00  0.00    +0.000 C 
ATOM      2  C   UNL     1       5.819   4.526  14.959  0.00  0.00    +0.000 A 
ATOM      3  N   UNL     1       5.286   3.770  15.932  0.00  0.00    +0.000 NA
ATOM      4  C   UNL     1       5.501   4.025  17.257  0.00  0.00    +0.000 A 
ATOM      5  N   UNL     1       4.937   3.121  18.172  0.00  0.00    +0.000 N 
ATOM      6  C   UNL     1       3.879   2.267  17.611  0.00  0.00    +0.000 C 
ATOM      7  C   UNL     1       6.341   5.140  17.518  0.00  0.00    +0.000 A 
ATOM      8  S   UNL     1       6.957   5.812  18.994  0.00  0.00    +0.000 S 
ATOM      9  C   UNL     1       7.772   7.081  18.207  0.00  0.00    +0.000 A 
ATOM     10  C   UNL     1       7.647   6.991  16.845  0.00  0.00    +0.000 A 
ATOM     11  C   UNL     1       6.837   5.888  16.444  0.00  0.00    +0.000 A 
ATOM     12  N   UNL     1       6.584   5.598  15.148  0.00  0.00    +0.000 NA
ENDROOT
BRANCH   5  13
ATOM     13  C   UNL     1       4.706   3.482  19.567  0.00  0.00    +0.000 C 
BRANCH  13  14
ATOM     14  C   UNL     1       3.262   3.518  20.049  0.00  0.00    +0.000 A 
ATOM     15  C   UNL     1       2.952   2.545  21.024  0.00  0.00    +0.000 A 
ATOM     16  C   UNL     1       1.673   2.466  21.556  0.00  0.00    +0.000 A 
ATOM     17  N   UNL     1       0.670   3.277  21.186  0.00  0.00    +0.000 NA
ATOM     18  C   UNL     1       0.970   4.203  20.249  0.00  0.00    +0.000 A 
ATOM     19  C   UNL     1       2.223   4.381  19.646  0.00  0.00    +0.000 A 
ATOM     20  C   UNL     1       2.354   5.480  18.638  0.00  0.00    +0.000 C 
ENDBRANCH  13  14
ENDBRANCH   5  13
TORSDOF 2
ENDMDL
MODEL 7
REMARK VINA RESULT:      -6.0      2.265      6.009
REMARK  Name = 
REMARK  5 active torsions:
REMARK  status: ('A' for Active; 'I' for Inactive)
REMARK    1  A    between atoms: C_1  and  C_2
REMARK    2  A    between atoms: N_5  and  C_6
REMARK    3  A    between atoms: N_5  and  C_7
REMARK    4  A    between atoms: C_7  and  C_8
REMARK    5  A    between atoms: C_13  and  C_14
REMARK                            x       y       z     vdW  Elec       q    Type
REMARK                         _______ _______ _______ _____ _____    ______ ____
ROOT
ATOM      1  C   UNL     1       1.679   2.498  21.958  0.00  0.00    +0.000 C 
ATOM      2  C   UNL     1       1.938   3.628  21.013  0.00  0.00    +0.000 A 
ATOM      3  N   UNL     1       2.371   3.319  19.780  0.00  0.00    +0.000 NA
ATOM      4  C   UNL     1       2.582   4.268  18.820  0.00  0.00    +0.000 A 
ATOM      5  N   UNL     1       2.974   3.807  17.552  0.00  0.00    +0.000 N 
ATOM      6  C   UNL     1       3.482   2.427  17.538  0.00  0.00    +0.000 C 
ATOM      7  C   UNL     1       2.294   5.598  19.227  0.00  0.00    +0.000 A 
ATOM      8  S   UNL     1       2.331   7.109  18.376  0.00  0.00    +0.000 S 
ATOM      9  C   UNL     1       1.877   8.018  19.741  0.00  0.00    +0.000 A 
ATOM     10  C   UNL     1       1.636   7.212  20.823  0.00  0.00    +0.000 A 
ATOM     11  C   UNL     1       1.868   5.834  20.539  0.00  0.00    +0.000 A 
ATOM     12  N   UNL     1       1.686   4.857  21.455  0.00  0.00    +0.000 NA
ENDROOT
BRANCH   5  13
ATOM     13  C   UNL     1       3.640   4.677  16.589  0.00  0.00    +0.000 C 
BRANCH  13  14
ATOM     14  C   UNL     1       5.163   4.644  16.557  0.00  0.00    +0.000 A 
ATOM     15  C   UNL     1       5.710   4.385  15.282  0.00  0.00    +0.000 A 
ATOM     16  C   UNL     1       7.085   4.331  15.105  0.00  0.00    +0.000 A 
ATOM     17  N   UNL     1       7.963   4.508  16.104  0.00  0.00    +0.000 NA
ATOM     18  C   UNL     1       7.435   4.751  17.323  0.00  0.00    +0.000 A 
ATOM     19  C   UNL     1       6.068   4.833  17.621  0.00  0.00    +0.000 A 
ATOM     20  C   UNL     1       5.687   5.130  19.038  0.00  0.00    +0.000 C 
ENDBRANCH  13  14
ENDBRANCH   5  13
TORSDOF 2
ENDMDL
MODEL 8
REMARK VINA RESULT:      -5.9      1.164      1.459
REMARK  Name = 
REMARK  5 active torsions:
REMARK  status: ('A' for Active; 'I' for Inactive)
REMARK    1  A    between atoms: C_1  and  C_2
REMARK    2  A    between atoms: N_5  and  C_6
REMARK    3  A    between atoms: N_5  and  C_7
REMARK    4  A    between atoms: C_7  and  C_8
REMARK    5  A    between atoms: C_13  and  C_14
REMARK                            x       y       z     vdW  Elec       q    Type
REMARK                         _______ _______ _______ _____ _____    ______ ____
ROOT
ATOM      1  C   UNL     1       8.065   8.249  17.652  0.00  0.00    +0.000 C 
ATOM      2  C   UNL     1       7.376   7.017  17.156  0.00  0.00    +0.000 A 
ATOM      3  N   UNL     1       6.436   6.472  17.943  0.00  0.00    +0.000 NA
ATOM      4  C   UNL     1       5.705   5.382  17.563  0.00  0.00    +0.000 A 
ATOM      5  N   UNL     1       4.709   4.948  18.453  0.00  0.00    +0.000 N 
ATOM      6  C   UNL     1       4.849   5.465  19.822  0.00  0.00    +0.000 C 
ATOM      7  C   UNL     1       6.010   4.886  16.267  0.00  0.00    +0.000 A 
ATOM      8  S   UNL     1       5.329   3.599  15.324  0.00  0.00    +0.000 S 
ATOM      9  C   UNL     1       6.408   3.828  14.028  0.00  0.00    +0.000 A 
ATOM     10  C   UNL     1       7.243   4.892  14.251  0.00  0.00    +0.000 A 
ATOM     11  C   UNL     1       7.022   5.501  15.522  0.00  0.00    +0.000 A 
ATOM     12  N   UNL     1       7.724   6.573  15.951  0.00  0.00    +0.000 NA
ENDROOT
BRANCH   5  13
ATOM     13  C   UNL     1       4.167   3.594  18.401  0.00  0.00    +0.000 C 
BRANCH  13  14
ATOM     14  C   UNL     1       2.977   3.284  19.299  0.00  0.00    +0.000 A 
ATOM     15  C   UNL     1       3.323   2.719  20.546  0.00  0.00    +0.000 A 
ATOM     16  C   UNL     1       2.337   2.391  21.466  0.00  0.00    +0.000 A 
ATOM     17  N   UNL     1       1.028   2.575  21.240  0.00  0.00    +0.000 NA
ATOM     18  C   UNL     1       0.701   3.112  20.044  0.00  0.00    +0.000 A 
ATOM     19  C   UNL     1       1.606   3.487  19.041  0.00  0.00    +0.000 A 
ATOM     20  C   UNL     1       1.041   4.083  17.789  0.00  0.00    +0.000 C 
ENDBRANCH  13  14
ENDBRANCH   5  13
TORSDOF 2
ENDMDL
MODEL 9
REMARK VINA RESULT:      -5.8      4.041      6.398
REMARK  Name = 
REMARK  5 active torsions:
REMARK  status: ('A' for Active; 'I' for Inactive)
REMARK    1  A    between atoms: C_1  and  C_2
REMARK    2  A    between atoms: N_5  and  C_6
REMARK    3  A    between atoms: N_5  and  C_7
REMARK    4  A    between atoms: C_7  and  C_8
REMARK    5  A    between atoms: C_13  and  C_14
REMARK                            x       y       z     vdW  Elec       q    Type
REMARK                         _______ _______ _______ _____ _____    ______ ____
ROOT
ATOM      1  C   UNL     1      -0.056   9.470  23.531  0.00  0.00    +0.000 C 
ATOM      2  C   UNL     1       0.537   9.526  22.158  0.00  0.00    +0.000 A 
ATOM      3  N   UNL     1       0.919   8.366  21.600  0.00  0.00    +0.000 NA
ATOM      4  C   UNL     1       1.416   8.295  20.329  0.00  0.00    +0.000 A 
ATOM      5  N   UNL     1       1.720   7.013  19.841  0.00  0.00    +0.000 N 
ATOM      6  C   UNL     1       1.836   5.979  20.880  0.00  0.00    +0.000 C 
ATOM      7  C   UNL     1       1.483   9.539  19.647  0.00  0.00    +0.000 A 
ATOM      8  S   UNL     1       1.962   9.957  18.034  0.00  0.00    +0.000 S 
ATOM      9  C   UNL     1       1.716  11.624  18.273  0.00  0.00    +0.000 A 
ATOM     10  C   UNL     1       1.223  11.885  19.525  0.00  0.00    +0.000 A 
ATOM     11  C   UNL     1       1.085  10.704  20.313  0.00  0.00    +0.000 A 
ATOM     12  N   UNL     1       0.609  10.720  21.578  0.00  0.00    +0.000 NA
ENDROOT
BRANCH   5  13
ATOM     13  C   UNL     1       2.635   6.812  18.723  0.00  0.00    +0.000 C 
BRANCH  13  14
ATOM     14  C   UNL     1       3.024   5.378  18.389  0.00  0.00    +0.000 A 
ATOM     15  C   UNL     1       1.988   4.618  17.804  0.00  0.00    +0.000 A 
ATOM     16  C   UNL     1       2.205   3.296  17.444  0.00  0.00    +0.000 A 
ATOM     17  N   UNL     1       3.374   2.664  17.630  0.00  0.00    +0.000 NA
ATOM     18  C   UNL     1       4.361   3.394  18.195  0.00  0.00    +0.000 A 
ATOM     19  C   UNL     1       4.261   4.734  18.593  0.00  0.00    +0.000 A 
ATOM     20  C   UNL     1       5.480   5.370  19.185  0.00  0.00    +0.000 C 
ENDBRANCH  13  14
ENDBRANCH   5  13
TORSDOF 2
ENDMDL
