MODEL 1
REMARK VINA RESULT:      -5.8      0.000      0.000
REMARK  Name = 
REMARK  3 active torsions:
REMARK  status: ('A' for Active; 'I' for Inactive)
REMARK    1  A    between atoms: C_2  and  O_3
REMARK    2  A    between atoms: C_2  and  C_4
REMARK    3  A    between atoms: C_11  and  O_12
REMARK                            x       y       z     vdW  Elec       q    Type
REMARK                         _______ _______ _______ _____ _____    ______ ____
ROOT
ATOM      1  C   UNL     1       4.784   4.583  18.661  0.00  0.00    +0.000 A 
ATOM      2  C   UNL     1       4.019   5.595  18.056  0.00  0.00    +0.000 A 
ATOM      3 CL   UNL     1       4.681   7.069  17.440  0.00  0.00    +0.000 Cl
ATOM      4  C   UNL     1       2.637   5.426  17.874  0.00  0.00    +0.000 A 
ATOM      5  C   UNL     1       2.001   4.257  18.291  0.00  0.00    +0.000 A 
ATOM      6  C   UNL     1       2.748   3.254  18.894  0.00  0.00    +0.000 A 
ATOM      7 CL   UNL     1       1.959   1.805  19.403  0.00  0.00    +0.000 Cl
ATOM      8  C   UNL     1       4.127   3.412  19.079  0.00  0.00    +0.000 A 
ENDROOT
BRANCH   1  10
ATOM      9  O   UNL     1       6.728   5.436  19.770  0.00  0.00    +0.000 OA
ATOM     10  C   UNL     1       6.248   4.755  18.884  0.00  0.00    +0.000 C 
BRANCH  10  11
ATOM     11  O   UNL     1       7.023   4.112  17.981  0.00  0.00    +0.000 OA
ATOM     12  H   UNL     1       7.934   4.477  17.928  0.00  0.00    +0.000 HD
ENDBRANCH  10  11
ENDBRANCH   1  10
BRANCH   8  13
ATOM     13  O   UNL     1       4.857   2.396  19.660  0.00  0.00    +0.000 OA
ATOM     14  H   UNL     1       5.154   1.798  18.941  0.00  0.00    +0.000 HD
ENDBRANCH   8  13
TORSDOF 3
ENDMDL
MODEL 2
REMARK VINA RESULT:      -5.7      1.046      3.556
REMARK  Name = 
REMARK  3 active torsions:
REMARK  status: ('A' for Active; 'I' for Inactive)
REMARK    1  A    between atoms: C_2  and  O_3
REMARK    2  A    between atoms: C_2  and  C_4
REMARK    3  A    between atoms: C_11  and  O_12
REMARK                            x       y       z     vdW  Elec       q    Type
REMARK                         _______ _______ _______ _____ _____    ______ ____
ROOT
ATOM      1  C   UNL     1       3.948   3.464  18.925  0.00  0.00    +0.000 A 
ATOM      2  C   UNL     1       2.603   3.870  18.880  0.00  0.00    +0.000 A 
ATOM      3 CL   UNL     1       1.287   2.920  19.477  0.00  0.00    +0.000 Cl
ATOM      4  C   UNL     1       2.260   5.135  18.374  0.00  0.00    +0.000 A 
ATOM      5  C   UNL     1       3.245   6.005  17.906  0.00  0.00    +0.000 A 
ATOM      6  C   UNL     1       4.576   5.611  17.942  0.00  0.00    +0.000 A 
ATOM      7 CL   UNL     1       5.792   6.693  17.369  0.00  0.00    +0.000 Cl
ATOM      8  C   UNL     1       4.928   4.353  18.446  0.00  0.00    +0.000 A 
ENDROOT
BRANCH   1  10
ATOM      9  O   UNL     1       4.896   1.922  20.493  0.00  0.00    +0.000 OA
ATOM     10  C   UNL     1       4.328   2.116  19.435  0.00  0.00    +0.000 C 
BRANCH  10  11
ATOM     11  O   UNL     1       4.023   1.101  18.595  0.00  0.00    +0.000 OA
ATOM     12  H   UNL     1       3.344   0.492  18.958  0.00  0.00    +0.000 HD
ENDBRANCH  10  11
ENDBRANCH   1  10
BRANCH   8  13
ATOM     13  O   UNL     1       6.257   3.986  18.493  0.00  0.00    +0.000 OA
ATOM     14  H   UNL     1       6.772   4.689  18.042  0.00  0.00    +0.000 HD
ENDBRANCH   8  13
TORSDOF 3
ENDMDL
MODEL 3
REMARK VINA RESULT:      -5.7      1.589      1.965
REMARK  Name = 
REMARK  3 active torsions:
REMARK  status: ('A' for Active; 'I' for Inactive)
REMARK    1  A    between atoms: C_2  and  O_3
REMARK    2  A    between atoms: C_2  and  C_4
REMARK    3  A    between atoms: C_11  and  O_12
REMARK                            x       y       z     vdW  Elec       q    Type
REMARK                         _______ _______ _______ _____ _____    ______ ____
ROOT
ATOM      1  C   UNL     1       6.246   5.309  18.239  0.00  0.00    +0.000 A 
ATOM      2  C   UNL     1       5.977   6.568  17.674  0.00  0.00    +0.000 A 
ATOM      3 CL   UNL     1       7.197   7.720  17.258  0.00  0.00    +0.000 Cl
ATOM      4  C   UNL     1       4.658   6.939  17.366  0.00  0.00    +0.000 A 
ATOM      5  C   UNL     1       3.596   6.070  17.617  0.00  0.00    +0.000 A 
ATOM      6  C   UNL     1       3.852   4.826  18.179  0.00  0.00    +0.000 A 
ATOM      7 CL   UNL     1       2.536   3.751  18.480  0.00  0.00    +0.000 Cl
ATOM      8  C   UNL     1       5.163   4.446  18.488  0.00  0.00    +0.000 A 
ENDROOT
BRANCH   1  10
ATOM      9  O   UNL     1       8.237   5.317  19.570  0.00  0.00    +0.000 OA
ATOM     10  C   UNL     1       7.636   4.907  18.595  0.00  0.00    +0.000 C 
BRANCH  10  11
ATOM     11  O   UNL     1       8.211   4.061  17.709  0.00  0.00    +0.000 OA
ATOM     12  H   UNL     1       8.889   3.480  18.117  0.00  0.00    +0.000 HD
ENDBRANCH  10  11
ENDBRANCH   1  10
BRANCH   8  13
ATOM     13  O   UNL     1       5.401   3.198  19.026  0.00  0.00    +0.000 OA
ATOM     14  H   UNL     1       5.141   3.232  19.972  0.00  0.00    +0.000 HD
ENDBRANCH   8  13
TORSDOF 3
ENDMDL
MODEL 4
REMARK VINA RESULT:      -5.6      1.214      3.664
REMARK  Name = 
REMARK  3 active torsions:
REMARK  status: ('A' for Active; 'I' for Inactive)
REMARK    1  A    between atoms: C_2  and  O_3
REMARK    2  A    between atoms: C_2  and  C_4
REMARK    3  A    between atoms: C_11  and  O_12
REMARK                            x       y       z     vdW  Elec       q    Type
REMARK                         _______ _______ _______ _____ _____    ______ ____
ROOT
ATOM      1  C   UNL     1       3.960   3.752  18.570  0.00  0.00    +0.000 A 
ATOM      2  C   UNL     1       2.697   4.367  18.523  0.00  0.00    +0.000 A 
ATOM      3 CL   UNL     1       1.224   3.582  18.974  0.00  0.00    +0.000 Cl
ATOM      4  C   UNL     1       2.577   5.713  18.140  0.00  0.00    +0.000 A 
ATOM      5  C   UNL     1       3.704   6.459  17.798  0.00  0.00    +0.000 A 
ATOM      6  C   UNL     1       4.956   5.859  17.836  0.00  0.00    +0.000 A 
ATOM      7 CL   UNL     1       6.350   6.788  17.420  0.00  0.00    +0.000 Cl
ATOM      8  C   UNL     1       5.087   4.518  18.219  0.00  0.00    +0.000 A 
ENDROOT
BRANCH   1  10
ATOM      9  O   UNL     1       3.511   1.405  18.409  0.00  0.00    +0.000 OA
ATOM     10  C   UNL     1       4.105   2.318  18.950  0.00  0.00    +0.000 C 
BRANCH  10  11
ATOM     11  O   UNL     1       4.936   2.106  19.996  0.00  0.00    +0.000 OA
ATOM     12  H   UNL     1       4.483   2.164  20.865  0.00  0.00    +0.000 HD
ENDBRANCH  10  11
ENDBRANCH   1  10
BRANCH   8  13
ATOM     13  O   UNL     1       6.340   3.945  18.272  0.00  0.00    +0.000 OA
ATOM     14  H   UNL     1       6.656   3.842  17.348  0.00  0.00    +0.000 HD
ENDBRANCH   8  13
TORSDOF 3
ENDMDL
MODEL 5
REMARK VINA RESULT:      -5.6      1.611      3.636
REMARK  Name = 
REMARK  3 active torsions:
REMARK  status: ('A' for Active; 'I' for Inactive)
REMARK    1  A    between atoms: C_2  and  O_3
REMARK    2  A    between atoms: C_2  and  C_4
REMARK    3  A    between atoms: C_11  and  O_12
REMARK                            x       y       z     vdW  Elec       q    Type
REMARK                         _______ _______ _______ _____ _____    ______ ____
ROOT
ATOM      1  C   UNL     1       3.879   3.478  19.585  0.00  0.00    +0.000 A 
ATOM      2  C   UNL     1       2.812   3.943  20.373  0.00  0.00    +0.000 A 
ATOM      3 CL   UNL     1       2.083   3.031  21.649  0.00  0.00    +0.000 Cl
ATOM      4  C   UNL     1       2.302   5.238  20.182  0.00  0.00    +0.000 A 
ATOM      5  C   UNL     1       2.843   6.080  19.211  0.00  0.00    +0.000 A 
ATOM      6  C   UNL     1       3.894   5.628  18.425  0.00  0.00    +0.000 A 
ATOM      7 CL   UNL     1       4.565   6.675  17.230  0.00  0.00    +0.000 Cl
ATOM      8  C   UNL     1       4.411   4.339  18.608  0.00  0.00    +0.000 A 
ENDROOT
BRANCH   1  10
ATOM      9  O   UNL     1       5.091   1.740  20.703  0.00  0.00    +0.000 OA
ATOM     10  C   UNL     1       4.416   2.098  19.756  0.00  0.00    +0.000 C 
BRANCH  10  11
ATOM     11  O   UNL     1       4.125   1.261  18.733  0.00  0.00    +0.000 OA
ATOM     12  H   UNL     1       4.186   1.693  17.854  0.00  0.00    +0.000 HD
ENDBRANCH  10  11
ENDBRANCH   1  10
BRANCH   8  13
ATOM     13  O   UNL     1       5.469   3.913  17.833  0.00  0.00    +0.000 OA
ATOM     14  H   UNL     1       5.952   4.713  17.531  0.00  0.00    +0.000 HD
ENDBRANCH   8  13
TORSDOF 3
ENDMDL
MODEL 6
REMARK VINA RESULT:      -5.6      1.993      2.469
REMARK  Name = 
REMARK  3 active torsions:
REMARK  status: ('A' for Active; 'I' for Inactive)
REMARK    1  A    between atoms: C_2  and  O_3
REMARK    2  A    between atoms: C_2  and  C_4
REMARK    3  A    between atoms: C_11  and  O_12
REMARK                            x       y       z     vdW  Elec       q    Type
REMARK                         _______ _______ _______ _____ _____    ______ ____
ROOT
ATOM      1  C   UNL     1       5.929   5.149  17.183  0.00  0.00    +0.000 A 
ATOM      2  C   UNL     1       5.749   6.525  17.411  0.00  0.00    +0.000 A 
ATOM      3 CL   UNL     1       7.018   7.694  17.311  0.00  0.00    +0.000 Cl
ATOM      4  C   UNL     1       4.471   7.035  17.694  0.00  0.00    +0.000 A 
ATOM      5  C   UNL     1       3.364   6.189  17.755  0.00  0.00    +0.000 A 
ATOM      6  C   UNL     1       3.533   4.829  17.536  0.00  0.00    +0.000 A 
ATOM      7 CL   UNL     1       2.159   3.786  17.605  0.00  0.00    +0.000 Cl
ATOM      8  C   UNL     1       4.802   4.310  17.251  0.00  0.00    +0.000 A 
ENDROOT
BRANCH   1  10
ATOM      9  O   UNL     1       7.818   4.606  15.815  0.00  0.00    +0.000 OA
ATOM     10  C   UNL     1       7.281   4.586  16.906  0.00  0.00    +0.000 C 
BRANCH  10  11
ATOM     11  O   UNL     1       7.865   4.000  17.977  0.00  0.00    +0.000 OA
ATOM     12  H   UNL     1       7.922   4.594  18.756  0.00  0.00    +0.000 HD
ENDBRANCH  10  11
ENDBRANCH   1  10
BRANCH   8  13
ATOM     13  O   UNL     1       4.948   2.959  17.015  0.00  0.00    +0.000 OA
ATOM     14  H   UNL     1       4.692   2.487  17.837  0.00  0.00    +0.000 HD
ENDBRANCH   8  13
TORSDOF 3
ENDMDL
MODEL 7
REMARK VINA RESULT:      -5.5      1.539      3.658
REMARK  Name = 
REMARK  3 active torsions:
REMARK  status: ('A' for Active; 'I' for Inactive)
REMARK    1  A    between atoms: C_2  and  O_3
REMARK    2  A    between atoms: C_2  and  C_4
REMARK    3  A    between atoms: C_11  and  O_12
REMARK                            x       y       z     vdW  Elec       q    Type
REMARK                         _______ _______ _______ _____ _____    ______ ____
ROOT
ATOM      1  C   UNL     1       4.525   4.234  18.404  0.00  0.00    +0.000 A 
ATOM      2  C   UNL     1       3.359   4.973  18.139  0.00  0.00    +0.000 A 
ATOM      3 CL   UNL     1       1.759   4.399  18.457  0.00  0.00    +0.000 Cl
ATOM      4  C   UNL     1       3.448   6.279  17.630  0.00  0.00    +0.000 A 
ATOM      5  C   UNL     1       4.689   6.862  17.377  0.00  0.00    +0.000 A 
ATOM      6  C   UNL     1       5.846   6.138  17.631  0.00  0.00    +0.000 A 
ATOM      7 CL   UNL     1       7.381   6.866  17.324  0.00  0.00    +0.000 Cl
ATOM      8  C   UNL     1       5.769   4.836  18.141  0.00  0.00    +0.000 A 
ENDROOT
BRANCH   1  10
ATOM      9  O   UNL     1       4.794   2.505  20.040  0.00  0.00    +0.000 OA
ATOM     10  C   UNL     1       4.451   2.838  18.921  0.00  0.00    +0.000 C 
BRANCH  10  11
ATOM     11  O   UNL     1       3.999   1.938  18.018  0.00  0.00    +0.000 OA
ATOM     12  H   UNL     1       4.376   2.071  17.121  0.00  0.00    +0.000 HD
ENDBRANCH  10  11
ENDBRANCH   1  10
BRANCH   8  13
ATOM     13  O   UNL     1       6.929   4.139  18.407  0.00  0.00    +0.000 OA
ATOM     14  H   UNL     1       7.568   4.348  17.692  0.00  0.00    +0.000 HD
ENDBRANCH   8  13
TORSDOF 3
ENDMDL
MODEL 8
REMARK VINA RESULT:      -5.5      1.881      3.885
REMARK  Name = 
REMARK  3 active torsions:
REMARK  status: ('A' for Active; 'I' for Inactive)
REMARK    1  A    between atoms: C_2  and  O_3
REMARK    2  A    between atoms: C_2  and  C_4
REMARK    3  A    between atoms: C_11  and  O_12
REMARK                            x       y       z     vdW  Elec       q    Type
REMARK                         _______ _______ _______ _____ _____    ______ ____
ROOT
ATOM      1  C   UNL     1       4.895   4.319  18.523  0.00  0.00    +0.000 A 
ATOM      2  C   UNL     1       4.268   4.393  17.268  0.00  0.00    +0.000 A 
ATOM      3 CL   UNL     1       2.860   3.486  16.837  0.00  0.00    +0.000 Cl
ATOM      4  C   UNL     1       4.746   5.277  16.287  0.00  0.00    +0.000 A 
ATOM      5  C   UNL     1       5.850   6.091  16.539  0.00  0.00    +0.000 A 
ATOM      6  C   UNL     1       6.479   6.022  17.775  0.00  0.00    +0.000 A 
ATOM      7 CL   UNL     1       7.840   7.037  18.086  0.00  0.00    +0.000 Cl
ATOM      8  C   UNL     1       6.009   5.146  18.760  0.00  0.00    +0.000 A 
ENDROOT
BRANCH   1  10
ATOM      9  O   UNL     1       3.388   3.512  20.200  0.00  0.00    +0.000 OA
ATOM     10  C   UNL     1       4.417   3.370  19.568  0.00  0.00    +0.000 C 
BRANCH  10  11
ATOM     11  O   UNL     1       5.254   2.331  19.795  0.00  0.00    +0.000 OA
ATOM     12  H   UNL     1       5.632   2.334  20.701  0.00  0.00    +0.000 HD
ENDBRANCH  10  11
ENDBRANCH   1  10
BRANCH   8  13
ATOM     13  O   UNL     1       6.634   5.105  19.989  0.00  0.00    +0.000 OA
ATOM     14  H   UNL     1       7.331   5.796  19.988  0.00  0.00    +0.000 HD
ENDBRANCH   8  13
TORSDOF 3
ENDMDL
MODEL 9
REMARK VINA RESULT:      -5.5      2.817      4.376
REMARK  Name = 
REMARK  3 active torsions:
REMARK  status: ('A' for Active; 'I' for Inactive)
REMARK    1  A    between atoms: C_2  and  O_3
REMARK    2  A    between atoms: C_2  and  C_4
REMARK    3  A    between atoms: C_11  and  O_12
REMARK                            x       y       z     vdW  Elec       q    Type
REMARK                         _______ _______ _______ _____ _____    ______ ____
ROOT
ATOM      1  C   UNL     1       2.574   3.799  19.883  0.00  0.00    +0.000 A 
ATOM      2  C   UNL     1       3.168   3.157  18.783  0.00  0.00    +0.000 A 
ATOM      3 CL   UNL     1       3.387   1.446  18.666  0.00  0.00    +0.000 Cl
ATOM      4  C   UNL     1       3.582   3.902  17.666  0.00  0.00    +0.000 A 
ATOM      5  C   UNL     1       3.414   5.286  17.631  0.00  0.00    +0.000 A 
ATOM      6  C   UNL     1       2.832   5.930  18.715  0.00  0.00    +0.000 A 
ATOM      7 CL   UNL     1       2.618   7.641  18.664  0.00  0.00    +0.000 Cl
ATOM      8  C   UNL     1       2.414   5.196  19.832  0.00  0.00    +0.000 A 
ENDROOT
BRANCH   1  10
ATOM      9  O   UNL     1       2.923   2.533  21.885  0.00  0.00    +0.000 OA
ATOM     10  C   UNL     1       2.151   3.029  21.087  0.00  0.00    +0.000 C 
BRANCH  10  11
ATOM     11  O   UNL     1       0.812   2.885  21.208  0.00  0.00    +0.000 OA
ATOM     12  H   UNL     1       0.306   3.485  20.617  0.00  0.00    +0.000 HD
ENDBRANCH  10  11
ENDBRANCH   1  10
BRANCH   8  13
ATOM     13  O   UNL     1       1.819   5.849  20.892  0.00  0.00    +0.000 OA
ATOM     14  H   UNL     1       1.402   5.167  21.461  0.00  0.00    +0.000 HD
ENDBRANCH   8  13
TORSDOF 3
ENDMDL
