MODEL 1
REMARK VINA RESULT:      -7.9      0.000      0.000
REMARK  Name = 
REMARK  10 active torsions:
REMARK  status: ('A' for Active; 'I' for Inactive)
REMARK    1  A    between atoms: C_1  and  C_2
REMARK    2  A    between atoms: N_4  and  C_5
REMARK    3  A    between atoms: C_7  and  N_8
REMARK    4  A    between atoms: C_11  and  C_12
REMARK    5  A    between atoms: C_12  and  O_13
REMARK    6  A    between atoms: O_13  and  C_14
REMARK    7  A    between atoms: C_14  and  C_16
REMARK    8  A    between atoms: C_16  and  N_17
REMARK    9  A    between atoms: C_16  and  C_18
REMARK   10  A    between atoms: C_18  and  C_19
REMARK                            x       y       z     vdW  Elec       q    Type
REMARK                         _______ _______ _______ _____ _____    ______ ____
ROOT
ATOM      1  C   UNL     1       2.538   4.900  17.520  0.00  0.00    +0.000 C 
ATOM      2  C   UNL     1       1.996   3.961  18.594  0.00  0.00    +0.000 C 
ATOM      3  C   UNL     1       2.152   4.797  19.843  0.00  0.00    +0.000 C 
ATOM      4  C   UNL     1       1.707   6.162  19.312  0.00  0.00    +0.000 C 
ATOM      5  O   UNL     1       2.116   6.218  17.929  0.00  0.00    +0.000 OA
ENDROOT
BRANCH   1   9
ATOM      6  C   UNL     1       6.933   7.244  17.375  0.00  0.00    +0.000 C 
ATOM      7  C   UNL     1       6.095   6.013  17.285  0.00  0.00    +0.000 A 
ATOM      8  C   UNL     1       4.763   6.010  17.406  0.00  0.00    +0.000 A 
ATOM      9  N   UNL     1       4.003   4.857  17.370  0.00  0.00    +0.000 N 
ATOM     10  C   UNL     1       4.591   3.624  17.105  0.00  0.00    +0.000 A 
ATOM     11  O   UNL     1       3.970   2.565  17.025  0.00  0.00    +0.000 OA
ATOM     12  N   UNL     1       5.953   3.635  16.947  0.00  0.00    +0.000 N 
ATOM     13  C   UNL     1       6.773   4.721  17.053  0.00  0.00    +0.000 A 
ATOM     14  O   UNL     1       7.992   4.633  16.961  0.00  0.00    +0.000 OA
ATOM     15  H   UNL     1       6.398   2.746  16.779  0.00  0.00    +0.000 HD
ENDBRANCH   1   9
BRANCH   3  16
ATOM     16  N   UNL     1       1.304   4.299  20.928  0.00  0.00    +0.000 NA
ATOM     17  N   UNL     1       1.754   3.319  21.562  0.00  0.00    +0.000 NA
ATOM     18  N   UNL     1       2.180   2.437  22.138  0.00  0.00    +0.000 NA
ENDBRANCH   3  16
BRANCH   4  19
ATOM     19  C   UNL     1       2.321   7.325  20.089  0.00  0.00    +0.000 C 
BRANCH  19  20
ATOM     20  O   UNL     1       1.587   8.528  19.864  0.00  0.00    +0.000 OA
BRANCH  20  21
ATOM     21  C   UNL     1       1.069   9.113  20.980  0.00  0.00    +0.000 C 
ATOM     22  O   UNL     1       1.286   8.743  22.127  0.00  0.00    +0.000 OA
BRANCH  21  23
ATOM     23  C   UNL     1       0.287  10.384  20.623  0.00  0.00    +0.000 C 
BRANCH  23  24
ATOM     24  N   UNL     1       0.855  11.545  21.351  0.00  0.00    +0.000 NA
ATOM     25  H   UNL     1       1.845  11.632  21.124  0.00  0.00    +0.000 HD
ATOM     26  H   UNL     1       0.820  11.345  22.353  0.00  0.00    +0.000 HD
ENDBRANCH  23  24
BRANCH  23  27
ATOM     27  C   UNL     1       0.276  10.636  19.103  0.00  0.00    +0.000 C 
BRANCH  27  28
ATOM     28  C   UNL     1      -1.122  10.715  18.524  0.00  0.00    +0.000 A 
ATOM     29  C   UNL     1      -2.068  11.604  19.052  0.00  0.00    +0.000 A 
ATOM     30  C   UNL     1      -3.365  11.643  18.538  0.00  0.00    +0.000 A 
ATOM     31  C   UNL     1      -3.728  10.805  17.487  0.00  0.00    +0.000 A 
ATOM     32  C   UNL     1      -2.795   9.924  16.946  0.00  0.00    +0.000 A 
ATOM     33  C   UNL     1      -1.498   9.880  17.461  0.00  0.00    +0.000 A 
ENDBRANCH  27  28
ENDBRANCH  23  27
ENDBRANCH  21  23
ENDBRANCH  20  21
ENDBRANCH  19  20
ENDBRANCH   4  19
TORSDOF 9
ENDMDL
MODEL 2
REMARK VINA RESULT:      -7.8      3.148      8.799
REMARK  Name = 
REMARK  10 active torsions:
REMARK  status: ('A' for Active; 'I' for Inactive)
REMARK    1  A    between atoms: C_1  and  C_2
REMARK    2  A    between atoms: N_4  and  C_5
REMARK    3  A    between atoms: C_7  and  N_8
REMARK    4  A    between atoms: C_11  and  C_12
REMARK    5  A    between atoms: C_12  and  O_13
REMARK    6  A    between atoms: O_13  and  C_14
REMARK    7  A    between atoms: C_14  and  C_16
REMARK    8  A    between atoms: C_16  and  N_17
REMARK    9  A    between atoms: C_16  and  C_18
REMARK   10  A    between atoms: C_18  and  C_19
REMARK                            x       y       z     vdW  Elec       q    Type
REMARK                         _______ _______ _______ _____ _____    ______ ____
ROOT
ATOM      1  C   UNL     1      -0.661  13.051  19.344  0.00  0.00    +0.000 C 
ATOM      2  C   UNL     1      -0.320  12.637  20.773  0.00  0.00    +0.000 C 
ATOM      3  C   UNL     1       0.381  11.318  20.555  0.00  0.00    +0.000 C 
ATOM      4  C   UNL     1       1.227  11.660  19.325  0.00  0.00    +0.000 C 
ATOM      5  O   UNL     1       0.460  12.606  18.550  0.00  0.00    +0.000 OA
ENDROOT
BRANCH   1   9
ATOM      6  C   UNL     1      -3.072  10.282  15.976  0.00  0.00    +0.000 C 
ATOM      7  C   UNL     1      -3.045  11.149  17.190  0.00  0.00    +0.000 A 
ATOM      8  C   UNL     1      -1.933  11.706  17.680  0.00  0.00    +0.000 A 
ATOM      9  N   UNL     1      -1.912  12.467  18.834  0.00  0.00    +0.000 N 
ATOM     10  C   UNL     1      -3.092  12.776  19.504  0.00  0.00    +0.000 A 
ATOM     11  O   UNL     1      -3.150  13.475  20.514  0.00  0.00    +0.000 OA
ATOM     12  N   UNL     1      -4.236  12.233  18.978  0.00  0.00    +0.000 N 
ATOM     13  C   UNL     1      -4.317  11.406  17.895  0.00  0.00    +0.000 A 
ATOM     14  O   UNL     1      -5.376  10.909  17.528  0.00  0.00    +0.000 OA
ATOM     15  H   UNL     1      -5.097  12.427  19.466  0.00  0.00    +0.000 HD
ENDBRANCH   1   9
BRANCH   3  16
ATOM     16  N   UNL     1       1.188  10.942  21.718  0.00  0.00    +0.000 NA
ATOM     17  N   UNL     1       0.567  10.383  22.649  0.00  0.00    +0.000 NA
ATOM     18  N   UNL     1      -0.006   9.863  23.483  0.00  0.00    +0.000 NA
ENDBRANCH   3  16
BRANCH   4  19
ATOM     19  C   UNL     1       1.560  10.434  18.479  0.00  0.00    +0.000 C 
BRANCH  19  20
ATOM     20  O   UNL     1       1.193   9.234  19.158  0.00  0.00    +0.000 OA
BRANCH  20  21
ATOM     21  C   UNL     1       1.930   8.133  18.838  0.00  0.00    +0.000 C 
ATOM     22  O   UNL     1       2.375   7.892  17.723  0.00  0.00    +0.000 OA
BRANCH  21  23
ATOM     23  C   UNL     1       2.247   7.302  20.088  0.00  0.00    +0.000 C 
BRANCH  23  24
ATOM     24  N   UNL     1       1.693   7.972  21.291  0.00  0.00    +0.000 NA
ATOM     25  H   UNL     1       2.460   8.272  21.891  0.00  0.00    +0.000 HD
ATOM     26  H   UNL     1       1.175   7.278  21.835  0.00  0.00    +0.000 HD
ENDBRANCH  23  24
BRANCH  23  27
ATOM     27  C   UNL     1       1.714   5.861  19.964  0.00  0.00    +0.000 C 
BRANCH  27  28
ATOM     28  C   UNL     1       2.548   4.997  19.041  0.00  0.00    +0.000 A 
ATOM     29  C   UNL     1       1.943   4.235  18.032  0.00  0.00    +0.000 A 
ATOM     30  C   UNL     1       2.714   3.412  17.210  0.00  0.00    +0.000 A 
ATOM     31  C   UNL     1       4.095   3.347  17.379  0.00  0.00    +0.000 A 
ATOM     32  C   UNL     1       4.709   4.107  18.372  0.00  0.00    +0.000 A 
ATOM     33  C   UNL     1       3.940   4.929  19.198  0.00  0.00    +0.000 A 
ENDBRANCH  27  28
ENDBRANCH  23  27
ENDBRANCH  21  23
ENDBRANCH  20  21
ENDBRANCH  19  20
ENDBRANCH   4  19
TORSDOF 9
ENDMDL
MODEL 3
REMARK VINA RESULT:      -7.8      1.774      2.574
REMARK  Name = 
REMARK  10 active torsions:
REMARK  status: ('A' for Active; 'I' for Inactive)
REMARK    1  A    between atoms: C_1  and  C_2
REMARK    2  A    between atoms: N_4  and  C_5
REMARK    3  A    between atoms: C_7  and  N_8
REMARK    4  A    between atoms: C_11  and  C_12
REMARK    5  A    between atoms: C_12  and  O_13
REMARK    6  A    between atoms: O_13  and  C_14
REMARK    7  A    between atoms: C_14  and  C_16
REMARK    8  A    between atoms: C_16  and  N_17
REMARK    9  A    between atoms: C_16  and  C_18
REMARK   10  A    between atoms: C_18  and  C_19
REMARK                            x       y       z     vdW  Elec       q    Type
REMARK                         _______ _______ _______ _____ _____    ______ ____
ROOT
ATOM      1  C   UNL     1       4.215   3.222  16.894  0.00  0.00    +0.000 C 
ATOM      2  C   UNL     1       4.227   2.288  18.101  0.00  0.00    +0.000 C 
ATOM      3  C   UNL     1       3.392   3.057  19.097  0.00  0.00    +0.000 C 
ATOM      4  C   UNL     1       2.284   3.578  18.177  0.00  0.00    +0.000 C 
ATOM      5  O   UNL     1       2.894   3.806  16.888  0.00  0.00    +0.000 OA
ENDROOT
BRANCH   1   9
ATOM      6  C   UNL     1       7.584   5.850  19.457  0.00  0.00    +0.000 C 
ATOM      7  C   UNL     1       6.836   5.536  18.206  0.00  0.00    +0.000 A 
ATOM      8  C   UNL     1       5.892   4.593  18.121  0.00  0.00    +0.000 A 
ATOM      9  N   UNL     1       5.240   4.278  16.943  0.00  0.00    +0.000 N 
ATOM     10  C   UNL     1       5.473   5.009  15.783  0.00  0.00    +0.000 A 
ATOM     11  O   UNL     1       4.904   4.805  14.712  0.00  0.00    +0.000 OA
ATOM     12  N   UNL     1       6.417   5.999  15.881  0.00  0.00    +0.000 N 
ATOM     13  C   UNL     1       7.157   6.307  16.987  0.00  0.00    +0.000 A 
ATOM     14  O   UNL     1       8.029   7.168  16.972  0.00  0.00    +0.000 OA
ATOM     15  H   UNL     1       6.616   6.522  15.043  0.00  0.00    +0.000 HD
ENDBRANCH   1   9
BRANCH   3  16
ATOM     16  N   UNL     1       2.890   2.184  20.161  0.00  0.00    +0.000 NA
ATOM     17  N   UNL     1       2.605   2.753  21.238  0.00  0.00    +0.000 NA
ATOM     18  N   UNL     1       2.338   3.284  22.208  0.00  0.00    +0.000 NA
ENDBRANCH   3  16
BRANCH   4  19
ATOM     19  C   UNL     1       1.647   4.866  18.692  0.00  0.00    +0.000 C 
BRANCH  19  20
ATOM     20  O   UNL     1       2.632   5.727  19.262  0.00  0.00    +0.000 OA
BRANCH  20  21
ATOM     21  C   UNL     1       2.740   6.955  18.681  0.00  0.00    +0.000 C 
ATOM     22  O   UNL     1       3.491   7.224  17.752  0.00  0.00    +0.000 OA
BRANCH  21  23
ATOM     23  C   UNL     1       1.697   7.925  19.251  0.00  0.00    +0.000 C 
BRANCH  23  24
ATOM     24  N   UNL     1       1.876   8.049  20.719  0.00  0.00    +0.000 NA
ATOM     25  H   UNL     1       2.864   7.953  20.947  0.00  0.00    +0.000 HD
ATOM     26  H   UNL     1       1.413   7.254  21.167  0.00  0.00    +0.000 HD
ENDBRANCH  23  24
BRANCH  23  27
ATOM     27  C   UNL     1       1.770   9.305  18.568  0.00  0.00    +0.000 C 
BRANCH  27  28
ATOM     28  C   UNL     1       0.459  10.063  18.621  0.00  0.00    +0.000 A 
ATOM     29  C   UNL     1       0.276  11.117  19.526  0.00  0.00    +0.000 A 
ATOM     30  C   UNL     1      -0.947  11.786  19.594  0.00  0.00    +0.000 A 
ATOM     31  C   UNL     1      -1.996  11.417  18.755  0.00  0.00    +0.000 A 
ATOM     32  C   UNL     1      -1.824  10.377  17.844  0.00  0.00    +0.000 A 
ATOM     33  C   UNL     1      -0.602   9.704  17.776  0.00  0.00    +0.000 A 
ENDBRANCH  27  28
ENDBRANCH  23  27
ENDBRANCH  21  23
ENDBRANCH  20  21
ENDBRANCH  19  20
ENDBRANCH   4  19
TORSDOF 9
ENDMDL
MODEL 4
REMARK VINA RESULT:      -7.8      2.026      2.580
REMARK  Name = 
REMARK  10 active torsions:
REMARK  status: ('A' for Active; 'I' for Inactive)
REMARK    1  A    between atoms: C_1  and  C_2
REMARK    2  A    between atoms: N_4  and  C_5
REMARK    3  A    between atoms: C_7  and  N_8
REMARK    4  A    between atoms: C_11  and  C_12
REMARK    5  A    between atoms: C_12  and  O_13
REMARK    6  A    between atoms: O_13  and  C_14
REMARK    7  A    between atoms: C_14  and  C_16
REMARK    8  A    between atoms: C_16  and  N_17
REMARK    9  A    between atoms: C_16  and  C_18
REMARK   10  A    between atoms: C_18  and  C_19
REMARK                            x       y       z     vdW  Elec       q    Type
REMARK                         _______ _______ _______ _____ _____    ______ ____
ROOT
ATOM      1  C   UNL     1       2.563   5.269  18.505  0.00  0.00    +0.000 C 
ATOM      2  C   UNL     1       1.941   5.526  19.875  0.00  0.00    +0.000 C 
ATOM      3  C   UNL     1       2.053   7.028  19.989  0.00  0.00    +0.000 C 
ATOM      4  C   UNL     1       1.672   7.437  18.563  0.00  0.00    +0.000 C 
ATOM      5  O   UNL     1       2.154   6.390  17.693  0.00  0.00    +0.000 OA
ENDROOT
BRANCH   1   9
ATOM      6  C   UNL     1       7.043   7.160  17.417  0.00  0.00    +0.000 C 
ATOM      7  C   UNL     1       6.167   6.086  17.970  0.00  0.00    +0.000 A 
ATOM      8  C   UNL     1       4.832   6.140  17.964  0.00  0.00    +0.000 A 
ATOM      9  N   UNL     1       4.032   5.162  18.525  0.00  0.00    +0.000 N 
ATOM     10  C   UNL     1       4.590   4.001  19.051  0.00  0.00    +0.000 A 
ATOM     11  O   UNL     1       3.937   3.078  19.534  0.00  0.00    +0.000 OA
ATOM     12  N   UNL     1       5.959   3.933  19.025  0.00  0.00    +0.000 N 
ATOM     13  C   UNL     1       6.811   4.897  18.565  0.00  0.00    +0.000 A 
ATOM     14  O   UNL     1       8.029   4.783  18.638  0.00  0.00    +0.000 OA
ATOM     15  H   UNL     1       6.381   3.109  19.425  0.00  0.00    +0.000 HD
ENDBRANCH   1   9
BRANCH   3  16
ATOM     16  N   UNL     1       1.135   7.557  21.001  0.00  0.00    +0.000 NA
ATOM     17  N   UNL     1       1.587   8.484  21.709  0.00  0.00    +0.000 NA
ATOM     18  N   UNL     1       2.005   9.335  22.337  0.00  0.00    +0.000 NA
ENDBRANCH   3  16
BRANCH   4  19
ATOM     19  C   UNL     1       2.273   8.779  18.154  0.00  0.00    +0.000 C 
BRANCH  19  20
ATOM     20  O   UNL     1       1.246   9.725  17.856  0.00  0.00    +0.000 OA
BRANCH  20  21
ATOM     21  C   UNL     1       1.015  10.658  18.822  0.00  0.00    +0.000 C 
ATOM     22  O   UNL     1       1.825  11.503  19.183  0.00  0.00    +0.000 OA
BRANCH  21  23
ATOM     23  C   UNL     1      -0.441  10.604  19.302  0.00  0.00    +0.000 C 
BRANCH  23  24
ATOM     24  N   UNL     1      -0.478  10.370  20.767  0.00  0.00    +0.000 NA
ATOM     25  H   UNL     1       0.099  11.069  21.233  0.00  0.00    +0.000 HD
ATOM     26  H   UNL     1      -0.029   9.471  20.961  0.00  0.00    +0.000 HD
ENDBRANCH  23  24
BRANCH  23  27
ATOM     27  C   UNL     1      -1.213  11.883  18.927  0.00  0.00    +0.000 C 
BRANCH  27  28
ATOM     28  C   UNL     1      -2.448  11.609  18.093  0.00  0.00    +0.000 A 
ATOM     29  C   UNL     1      -2.334  11.184  16.762  0.00  0.00    +0.000 A 
ATOM     30  C   UNL     1      -3.476  10.970  15.989  0.00  0.00    +0.000 A 
ATOM     31  C   UNL     1      -4.741  11.168  16.537  0.00  0.00    +0.000 A 
ATOM     32  C   UNL     1      -4.868  11.580  17.861  0.00  0.00    +0.000 A 
ATOM     33  C   UNL     1      -3.727  11.798  18.636  0.00  0.00    +0.000 A 
ENDBRANCH  27  28
ENDBRANCH  23  27
ENDBRANCH  21  23
ENDBRANCH  20  21
ENDBRANCH  19  20
ENDBRANCH   4  19
TORSDOF 9
ENDMDL
MODEL 5
REMARK VINA RESULT:      -7.7      0.944      1.214
REMARK  Name = 
REMARK  10 active torsions:
REMARK  status: ('A' for Active; 'I' for Inactive)
REMARK    1  A    between atoms: C_1  and  C_2
REMARK    2  A    between atoms: N_4  and  C_5
REMARK    3  A    between atoms: C_7  and  N_8
REMARK    4  A    between atoms: C_11  and  C_12
REMARK    5  A    between atoms: C_12  and  O_13
REMARK    6  A    between atoms: O_13  and  C_14
REMARK    7  A    between atoms: C_14  and  C_16
REMARK    8  A    between atoms: C_16  and  N_17
REMARK    9  A    between atoms: C_16  and  C_18
REMARK   10  A    between atoms: C_18  and  C_19
REMARK                            x       y       z     vdW  Elec       q    Type
REMARK                         _______ _______ _______ _____ _____    ______ ____
ROOT
ATOM      1  C   UNL     1       2.572   4.844  17.481  0.00  0.00    +0.000 C 
ATOM      2  C   UNL     1       2.091   4.053  18.695  0.00  0.00    +0.000 C 
ATOM      3  C   UNL     1       2.277   5.054  19.810  0.00  0.00    +0.000 C 
ATOM      4  C   UNL     1       1.784   6.327  19.117  0.00  0.00    +0.000 C 
ATOM      5  O   UNL     1       2.138   6.199  17.723  0.00  0.00    +0.000 OA
ENDROOT
BRANCH   1   9
ATOM      6  C   UNL     1       6.956   7.194  17.195  0.00  0.00    +0.000 C 
ATOM      7  C   UNL     1       6.117   5.963  17.127  0.00  0.00    +0.000 A 
ATOM      8  C   UNL     1       4.791   5.957  17.295  0.00  0.00    +0.000 A 
ATOM      9  N   UNL     1       4.030   4.803  17.279  0.00  0.00    +0.000 N 
ATOM     10  C   UNL     1       4.610   3.572  16.987  0.00  0.00    +0.000 A 
ATOM     11  O   UNL     1       3.988   2.514  16.923  0.00  0.00    +0.000 OA
ATOM     12  N   UNL     1       5.966   3.586  16.781  0.00  0.00    +0.000 N 
ATOM     13  C   UNL     1       6.788   4.673  16.864  0.00  0.00    +0.000 A 
ATOM     14  O   UNL     1       8.003   4.587  16.729  0.00  0.00    +0.000 OA
ATOM     15  H   UNL     1       6.406   2.699  16.592  0.00  0.00    +0.000 HD
ENDBRANCH   1   9
BRANCH   3  16
ATOM     16  N   UNL     1       1.480   4.697  20.986  0.00  0.00    +0.000 NA
ATOM     17  N   UNL     1       1.894   3.716  21.643  0.00  0.00    +0.000 NA
ATOM     18  N   UNL     1       2.288   2.831  22.238  0.00  0.00    +0.000 NA
ENDBRANCH   3  16
BRANCH   4  19
ATOM     19  C   UNL     1       2.401   7.595  19.702  0.00  0.00    +0.000 C 
BRANCH  19  20
ATOM     20  O   UNL     1       1.423   8.626  19.823  0.00  0.00    +0.000 OA
BRANCH  20  21
ATOM     21  C   UNL     1       1.491   9.609  18.881  0.00  0.00    +0.000 C 
ATOM     22  O   UNL     1       2.072   9.507  17.808  0.00  0.00    +0.000 OA
BRANCH  21  23
ATOM     23  C   UNL     1       0.627  10.812  19.279  0.00  0.00    +0.000 C 
BRANCH  23  24
ATOM     24  N   UNL     1       0.641  11.822  18.192  0.00  0.00    +0.000 NA
ATOM     25  H   UNL     1       1.093  12.672  18.528  0.00  0.00    +0.000 HD
ATOM     26  H   UNL     1      -0.325  12.088  17.987  0.00  0.00    +0.000 HD
ENDBRANCH  23  24
BRANCH  23  27
ATOM     27  C   UNL     1      -0.815  10.390  19.622  0.00  0.00    +0.000 C 
BRANCH  27  28
ATOM     28  C   UNL     1      -1.777  10.567  18.464  0.00  0.00    +0.000 A 
ATOM     29  C   UNL     1      -2.844  11.472  18.550  0.00  0.00    +0.000 A 
ATOM     30  C   UNL     1      -3.747  11.601  17.495  0.00  0.00    +0.000 A 
ATOM     31  C   UNL     1      -3.591  10.838  16.340  0.00  0.00    +0.000 A 
ATOM     32  C   UNL     1      -2.529   9.943  16.238  0.00  0.00    +0.000 A 
ATOM     33  C   UNL     1      -1.625   9.809  17.294  0.00  0.00    +0.000 A 
ENDBRANCH  27  28
ENDBRANCH  23  27
ENDBRANCH  21  23
ENDBRANCH  20  21
ENDBRANCH  19  20
ENDBRANCH   4  19
TORSDOF 9
ENDMDL
MODEL 6
REMARK VINA RESULT:      -7.6      1.838      2.671
REMARK  Name = 
REMARK  10 active torsions:
REMARK  status: ('A' for Active; 'I' for Inactive)
REMARK    1  A    between atoms: C_1  and  C_2
REMARK    2  A    between atoms: N_4  and  C_5
REMARK    3  A    between atoms: C_7  and  N_8
REMARK    4  A    between atoms: C_11  and  C_12
REMARK    5  A    between atoms: C_12  and  O_13
REMARK    6  A    between atoms: O_13  and  C_14
REMARK    7  A    between atoms: C_14  and  C_16
REMARK    8  A    between atoms: C_16  and  N_17
REMARK    9  A    between atoms: C_16  and  C_18
REMARK   10  A    between atoms: C_18  and  C_19
REMARK                            x       y       z     vdW  Elec       q    Type
REMARK                         _______ _______ _______ _____ _____    ______ ____
ROOT
ATOM      1  C   UNL     1       4.112   2.929  17.851  0.00  0.00    +0.000 C 
ATOM      2  C   UNL     1       4.353   2.238  19.191  0.00  0.00    +0.000 C 
ATOM      3  C   UNL     1       3.679   3.187  20.154  0.00  0.00    +0.000 C 
ATOM      4  C   UNL     1       2.418   3.532  19.356  0.00  0.00    +0.000 C 
ATOM      5  O   UNL     1       2.795   3.510  17.963  0.00  0.00    +0.000 OA
ENDROOT
BRANCH   1   9
ATOM      6  C   UNL     1       7.837   5.928  19.249  0.00  0.00    +0.000 C 
ATOM      7  C   UNL     1       6.875   5.411  18.233  0.00  0.00    +0.000 A 
ATOM      8  C   UNL     1       5.955   4.475  18.489  0.00  0.00    +0.000 A 
ATOM      9  N   UNL     1       5.103   3.968  17.526  0.00  0.00    +0.000 N 
ATOM     10  C   UNL     1       5.097   4.488  16.235  0.00  0.00    +0.000 A 
ATOM     11  O   UNL     1       4.343   4.107  15.341  0.00  0.00    +0.000 OA
ATOM     12  N   UNL     1       6.019   5.472  15.985  0.00  0.00    +0.000 N 
ATOM     13  C   UNL     1       6.944   5.959  16.862  0.00  0.00    +0.000 A 
ATOM     14  O   UNL     1       7.778   6.796  16.537  0.00  0.00    +0.000 OA
ATOM     15  H   UNL     1       6.045   5.842  15.047  0.00  0.00    +0.000 HD
ENDBRANCH   1   9
BRANCH   3  16
ATOM     16  N   UNL     1       3.387   2.533  21.432  0.00  0.00    +0.000 NA
ATOM     17  N   UNL     1       2.190   2.562  21.793  0.00  0.00    +0.000 NA
ATOM     18  N   UNL     1       1.096   2.584  22.104  0.00  0.00    +0.000 NA
ENDBRANCH   3  16
BRANCH   4  19
ATOM     19  C   UNL     1       1.843   4.898  19.724  0.00  0.00    +0.000 C 
BRANCH  19  20
ATOM     20  O   UNL     1       2.881   5.871  19.831  0.00  0.00    +0.000 OA
BRANCH  20  21
ATOM     21  C   UNL     1       2.869   6.845  18.877  0.00  0.00    +0.000 C 
ATOM     22  O   UNL     1       3.523   6.815  17.842  0.00  0.00    +0.000 OA
BRANCH  21  23
ATOM     23  C   UNL     1       1.824   7.920  19.202  0.00  0.00    +0.000 C 
BRANCH  23  24
ATOM     24  N   UNL     1       1.856   8.229  20.653  0.00  0.00    +0.000 NA
ATOM     25  H   UNL     1       2.040   7.374  21.175  0.00  0.00    +0.000 HD
ATOM     26  H   UNL     1       0.921   8.529  20.939  0.00  0.00    +0.000 HD
ENDBRANCH  23  24
BRANCH  23  27
ATOM     27  C   UNL     1       2.037   9.193  18.361  0.00  0.00    +0.000 C 
BRANCH  27  28
ATOM     28  C   UNL     1       0.854  10.140  18.407  0.00  0.00    +0.000 A 
ATOM     29  C   UNL     1      -0.414   9.724  17.979  0.00  0.00    +0.000 A 
ATOM     30  C   UNL     1      -1.490  10.612  17.988  0.00  0.00    +0.000 A 
ATOM     31  C   UNL     1      -1.314  11.921  18.433  0.00  0.00    +0.000 A 
ATOM     32  C   UNL     1      -0.062  12.344  18.870  0.00  0.00    +0.000 A 
ATOM     33  C   UNL     1       1.017  11.458  18.859  0.00  0.00    +0.000 A 
ENDBRANCH  27  28
ENDBRANCH  23  27
ENDBRANCH  21  23
ENDBRANCH  20  21
ENDBRANCH  19  20
ENDBRANCH   4  19
TORSDOF 9
ENDMDL
MODEL 7
REMARK VINA RESULT:      -7.5      2.462      7.494
REMARK  Name = 
REMARK  10 active torsions:
REMARK  status: ('A' for Active; 'I' for Inactive)
REMARK    1  A    between atoms: C_1  and  C_2
REMARK    2  A    between atoms: N_4  and  C_5
REMARK    3  A    between atoms: C_7  and  N_8
REMARK    4  A    between atoms: C_11  and  C_12
REMARK    5  A    between atoms: C_12  and  O_13
REMARK    6  A    between atoms: O_13  and  C_14
REMARK    7  A    between atoms: C_14  and  C_16
REMARK    8  A    between atoms: C_16  and  N_17
REMARK    9  A    between atoms: C_16  and  C_18
REMARK   10  A    between atoms: C_18  and  C_19
REMARK                            x       y       z     vdW  Elec       q    Type
REMARK                         _______ _______ _______ _____ _____    ______ ____
ROOT
ATOM      1  C   UNL     1       2.681   7.120  19.873  0.00  0.00    +0.000 C 
ATOM      2  C   UNL     1       2.059   6.217  20.935  0.00  0.00    +0.000 C 
ATOM      3  C   UNL     1       1.193   5.306  20.097  0.00  0.00    +0.000 C 
ATOM      4  C   UNL     1       2.131   5.052  18.914  0.00  0.00    +0.000 C 
ATOM      5  O   UNL     1       2.902   6.259  18.735  0.00  0.00    +0.000 OA
ENDROOT
BRANCH   1   9
ATOM      6  C   UNL     1      -0.715  10.565  21.065  0.00  0.00    +0.000 C 
ATOM      7  C   UNL     1       0.191   9.894  20.089  0.00  0.00    +0.000 A 
ATOM      8  C   UNL     1       0.965   8.847  20.392  0.00  0.00    +0.000 A 
ATOM      9  N   UNL     1       1.838   8.265  19.492  0.00  0.00    +0.000 N 
ATOM     10  C   UNL     1       1.885   8.692  18.168  0.00  0.00    +0.000 A 
ATOM     11  O   UNL     1       2.612   8.198  17.308  0.00  0.00    +0.000 OA
ATOM     12  N   UNL     1       1.065   9.744  17.852  0.00  0.00    +0.000 N 
ATOM     13  C   UNL     1       0.243  10.418  18.709  0.00  0.00    +0.000 A 
ATOM     14  O   UNL     1      -0.412  11.393  18.358  0.00  0.00    +0.000 OA
ATOM     15  H   UNL     1       1.105  10.082  16.902  0.00  0.00    +0.000 HD
ENDBRANCH   1   9
BRANCH   3  16
ATOM     16  N   UNL     1       0.844   4.083  20.825  0.00  0.00    +0.000 NA
ATOM     17  N   UNL     1       1.797   3.496  21.384  0.00  0.00    +0.000 NA
ATOM     18  N   UNL     1       2.669   2.979  21.898  0.00  0.00    +0.000 NA
ENDBRANCH   3  16
BRANCH   4  19
ATOM     19  C   UNL     1       1.381   4.710  17.629  0.00  0.00    +0.000 C 
BRANCH  19  20
ATOM     20  O   UNL     1       1.903   3.521  17.038  0.00  0.00    +0.000 OA
BRANCH  20  21
ATOM     21  C   UNL     1       2.247   2.536  17.915  0.00  0.00    +0.000 C 
ATOM     22  O   UNL     1       1.457   1.754  18.431  0.00  0.00    +0.000 OA
BRANCH  21  23
ATOM     23  C   UNL     1       3.770   2.442  18.068  0.00  0.00    +0.000 C 
BRANCH  23  24
ATOM     24  N   UNL     1       4.175   1.021  18.201  0.00  0.00    +0.000 NA
ATOM     25  H   UNL     1       4.230   0.778  19.190  0.00  0.00    +0.000 HD
ATOM     26  H   UNL     1       5.128   0.923  17.842  0.00  0.00    +0.000 HD
ENDBRANCH  23  24
BRANCH  23  27
ATOM     27  C   UNL     1       4.503   3.117  16.893  0.00  0.00    +0.000 C 
BRANCH  27  28
ATOM     28  C   UNL     1       5.446   4.218  17.334  0.00  0.00    +0.000 A 
ATOM     29  C   UNL     1       6.080   5.040  16.392  0.00  0.00    +0.000 A 
ATOM     30  C   UNL     1       6.976   6.026  16.804  0.00  0.00    +0.000 A 
ATOM     31  C   UNL     1       7.242   6.210  18.159  0.00  0.00    +0.000 A 
ATOM     32  C   UNL     1       6.611   5.407  19.106  0.00  0.00    +0.000 A 
ATOM     33  C   UNL     1       5.716   4.417  18.696  0.00  0.00    +0.000 A 
ENDBRANCH  27  28
ENDBRANCH  23  27
ENDBRANCH  21  23
ENDBRANCH  20  21
ENDBRANCH  19  20
ENDBRANCH   4  19
TORSDOF 9
ENDMDL
MODEL 8
REMARK VINA RESULT:      -7.5      1.957      2.829
REMARK  Name = 
REMARK  10 active torsions:
REMARK  status: ('A' for Active; 'I' for Inactive)
REMARK    1  A    between atoms: C_1  and  C_2
REMARK    2  A    between atoms: N_4  and  C_5
REMARK    3  A    between atoms: C_7  and  N_8
REMARK    4  A    between atoms: C_11  and  C_12
REMARK    5  A    between atoms: C_12  and  O_13
REMARK    6  A    between atoms: O_13  and  C_14
REMARK    7  A    between atoms: C_14  and  C_16
REMARK    8  A    between atoms: C_16  and  N_17
REMARK    9  A    between atoms: C_16  and  C_18
REMARK   10  A    between atoms: C_18  and  C_19
REMARK                            x       y       z     vdW  Elec       q    Type
REMARK                         _______ _______ _______ _____ _____    ______ ____
ROOT
ATOM      1  C   UNL     1       4.820   4.126  16.788  0.00  0.00    +0.000 C 
ATOM      2  C   UNL     1       4.637   2.985  17.785  0.00  0.00    +0.000 C 
ATOM      3  C   UNL     1       3.608   3.561  18.730  0.00  0.00    +0.000 C 
ATOM      4  C   UNL     1       2.675   4.247  17.728  0.00  0.00    +0.000 C 
ATOM      5  O   UNL     1       3.506   4.707  16.641  0.00  0.00    +0.000 OA
ENDROOT
BRANCH   1   9
ATOM      6  C   UNL     1       8.276   5.714  20.007  0.00  0.00    +0.000 C 
ATOM      7  C   UNL     1       7.426   5.894  18.794  0.00  0.00    +0.000 A 
ATOM      8  C   UNL     1       6.532   4.994  18.373  0.00  0.00    +0.000 A 
ATOM      9  N   UNL     1       5.785   5.150  17.220  0.00  0.00    +0.000 N 
ATOM     10  C   UNL     1       5.862   6.323  16.476  0.00  0.00    +0.000 A 
ATOM     11  O   UNL     1       5.203   6.542  15.461  0.00  0.00    +0.000 OA
ATOM     12  N   UNL     1       6.755   7.260  16.930  0.00  0.00    +0.000 N 
ATOM     13  C   UNL     1       7.582   7.135  18.009  0.00  0.00    +0.000 A 
ATOM     14  O   UNL     1       8.400   7.997  18.309  0.00  0.00    +0.000 OA
ATOM     15  H   UNL     1       6.841   8.106  16.388  0.00  0.00    +0.000 HD
ENDBRANCH   1   9
BRANCH   3  16
ATOM     16  N   UNL     1       2.945   2.509  19.503  0.00  0.00    +0.000 NA
ATOM     17  N   UNL     1       2.252   2.901  20.468  0.00  0.00    +0.000 NA
ATOM     18  N   UNL     1       1.615   3.272  21.334  0.00  0.00    +0.000 NA
ENDBRANCH   3  16
BRANCH   4  19
ATOM     19  C   UNL     1       1.914   5.420  18.341  0.00  0.00    +0.000 C 
BRANCH  19  20
ATOM     20  O   UNL     1       2.814   6.445  18.761  0.00  0.00    +0.000 OA
BRANCH  20  21
ATOM     21  C   UNL     1       2.509   7.702  18.333  0.00  0.00    +0.000 C 
ATOM     22  O   UNL     1       2.876   8.186  17.269  0.00  0.00    +0.000 OA
BRANCH  21  23
ATOM     23  C   UNL     1       1.529   8.387  19.294  0.00  0.00    +0.000 C 
BRANCH  23  24
ATOM     24  N   UNL     1       1.877   8.043  20.695  0.00  0.00    +0.000 NA
ATOM     25  H   UNL     1       2.565   7.291  20.696  0.00  0.00    +0.000 HD
ATOM     26  H   UNL     1       1.045   7.653  21.147  0.00  0.00    +0.000 HD
ENDBRANCH  23  24
BRANCH  23  27
ATOM     27  C   UNL     1       1.504   9.914  19.091  0.00  0.00    +0.000 C 
BRANCH  27  28
ATOM     28  C   UNL     1       0.185  10.419  18.543  0.00  0.00    +0.000 A 
ATOM     29  C   UNL     1      -0.623   9.596  17.746  0.00  0.00    +0.000 A 
ATOM     30  C   UNL     1      -1.818  10.081  17.215  0.00  0.00    +0.000 A 
ATOM     31  C   UNL     1      -2.225  11.387  17.479  0.00  0.00    +0.000 A 
ATOM     32  C   UNL     1      -1.436  12.211  18.277  0.00  0.00    +0.000 A 
ATOM     33  C   UNL     1      -0.238  11.730  18.808  0.00  0.00    +0.000 A 
ENDBRANCH  27  28
ENDBRANCH  23  27
ENDBRANCH  21  23
ENDBRANCH  20  21
ENDBRANCH  19  20
ENDBRANCH   4  19
TORSDOF 9
ENDMDL
MODEL 9
REMARK VINA RESULT:      -7.4      2.011      2.869
REMARK  Name = 
REMARK  10 active torsions:
REMARK  status: ('A' for Active; 'I' for Inactive)
REMARK    1  A    between atoms: C_1  and  C_2
REMARK    2  A    between atoms: N_4  and  C_5
REMARK    3  A    between atoms: C_7  and  N_8
REMARK    4  A    between atoms: C_11  and  C_12
REMARK    5  A    between atoms: C_12  and  O_13
REMARK    6  A    between atoms: O_13  and  C_14
REMARK    7  A    between atoms: C_14  and  C_16
REMARK    8  A    between atoms: C_16  and  N_17
REMARK    9  A    between atoms: C_16  and  C_18
REMARK   10  A    between atoms: C_18  and  C_19
REMARK                            x       y       z     vdW  Elec       q    Type
REMARK                         _______ _______ _______ _____ _____    ______ ____
ROOT
ATOM      1  C   UNL     1       4.287   3.058  17.500  0.00  0.00    +0.000 C 
ATOM      2  C   UNL     1       4.495   2.300  18.808  0.00  0.00    +0.000 C 
ATOM      3  C   UNL     1       3.748   3.169  19.791  0.00  0.00    +0.000 C 
ATOM      4  C   UNL     1       2.511   3.518  18.959  0.00  0.00    +0.000 C 
ATOM      5  O   UNL     1       2.947   3.588  17.585  0.00  0.00    +0.000 OA
ENDROOT
BRANCH   1   9
ATOM      6  C   UNL     1       7.834   6.100  19.229  0.00  0.00    +0.000 C 
ATOM      7  C   UNL     1       6.939   5.607  18.143  0.00  0.00    +0.000 A 
ATOM      8  C   UNL     1       6.043   4.629  18.305  0.00  0.00    +0.000 A 
ATOM      9  N   UNL     1       5.253   4.147  17.277  0.00  0.00    +0.000 N 
ATOM     10  C   UNL     1       5.287   4.736  16.017  0.00  0.00    +0.000 A 
ATOM     11  O   UNL     1       4.589   4.380  15.069  0.00  0.00    +0.000 OA
ATOM     12  N   UNL     1       6.183   5.763  15.863  0.00  0.00    +0.000 N 
ATOM     13  C   UNL     1       7.050   6.231  16.808  0.00  0.00    +0.000 A 
ATOM     14  O   UNL     1       7.866   7.113  16.568  0.00  0.00    +0.000 OA
ATOM     15  H   UNL     1       6.238   6.184  14.949  0.00  0.00    +0.000 HD
ENDBRANCH   1   9
BRANCH   3  16
ATOM     16  N   UNL     1       3.426   2.433  21.017  0.00  0.00    +0.000 NA
ATOM     17  N   UNL     1       2.291   2.651  21.496  0.00  0.00    +0.000 NA
ATOM     18  N   UNL     1       1.252   2.848  21.914  0.00  0.00    +0.000 NA
ENDBRANCH   3  16
BRANCH   4  19
ATOM     19  C   UNL     1       1.873   4.840  19.377  0.00  0.00    +0.000 C 
BRANCH  19  20
ATOM     20  O   UNL     1       2.854   5.874  19.453  0.00  0.00    +0.000 OA
BRANCH  20  21
ATOM     21  C   UNL     1       2.362   7.136  19.606  0.00  0.00    +0.000 C 
ATOM     22  O   UNL     1       1.821   7.556  20.621  0.00  0.00    +0.000 OA
BRANCH  21  23
ATOM     23  C   UNL     1       2.696   8.007  18.388  0.00  0.00    +0.000 C 
BRANCH  23  24
ATOM     24  N   UNL     1       3.623   7.278  17.488  0.00  0.00    +0.000 NA
ATOM     25  H   UNL     1       3.206   6.385  17.228  0.00  0.00    +0.000 HD
ATOM     26  H   UNL     1       4.466   7.042  18.017  0.00  0.00    +0.000 HD
ENDBRANCH  23  24
BRANCH  23  27
ATOM     27  C   UNL     1       1.425   8.444  17.635  0.00  0.00    +0.000 C 
BRANCH  27  28
ATOM     28  C   UNL     1       0.901   9.792  18.087  0.00  0.00    +0.000 A 
ATOM     29  C   UNL     1       1.780  10.802  18.499  0.00  0.00    +0.000 A 
ATOM     30  C   UNL     1       1.288  12.027  18.949  0.00  0.00    +0.000 A 
ATOM     31  C   UNL     1      -0.085  12.262  18.985  0.00  0.00    +0.000 A 
ATOM     32  C   UNL     1      -0.969  11.270  18.569  0.00  0.00    +0.000 A 
ATOM     33  C   UNL     1      -0.480  10.041  18.121  0.00  0.00    +0.000 A 
ENDBRANCH  27  28
ENDBRANCH  23  27
ENDBRANCH  21  23
ENDBRANCH  20  21
ENDBRANCH  19  20
ENDBRANCH   4  19
TORSDOF 9
ENDMDL
