MODEL 1
REMARK VINA RESULT:      -7.5      0.000      0.000
REMARK  Name = 
REMARK  4 active torsions:
REMARK  status: ('A' for Active; 'I' for Inactive)
REMARK    1  A    between atoms: C_1  and  C_2
REMARK    2  A    between atoms: C_5  and  C_6
REMARK    3  A    between atoms: C_8  and  C_9
REMARK    4  A    between atoms: N_16  and  C_17
REMARK                            x       y       z     vdW  Elec       q    Type
REMARK                         _______ _______ _______ _____ _____    ______ ____
ROOT
ATOM      1  C   UNL     1       3.448   3.103  17.746  0.00  0.00    +0.000 C 
ATOM      2  C   UNL     1       1.880   4.186  18.377  0.00  0.00    +0.000 C 
ATOM      3  C   UNL     1       1.060   2.915  18.520  0.00  0.00    +0.000 C 
ATOM      4  N   UNL     1       1.664   1.759  18.692  0.00  0.00    +0.000 NA
ATOM      5  N   UNL     1       3.112   1.890  18.558  0.00  0.00    +0.000 N 
ATOM      6  C   UNL     1       3.868   1.863  19.814  0.00  0.00    +0.000 C 
ENDROOT
BRANCH   1  11
ATOM      7  C   UNL     1       6.891   7.795  17.365  0.00  0.00    +0.000 C 
ATOM      8  C   UNL     1       6.372   6.376  17.416  0.00  0.00    +0.000 A 
ATOM      9  C   UNL     1       6.311   5.654  18.624  0.00  0.00    +0.000 A 
ATOM     10  C   UNL     1       5.555   4.433  18.726  0.00  0.00    +0.000 A 
ATOM     11  C   UNL     1       4.838   3.901  17.638  0.00  0.00    +0.000 A 
ATOM     12  C   UNL     1       5.130   4.517  16.382  0.00  0.00    +0.000 A 
ATOM     13  C   UNL     1       5.827   5.766  16.289  0.00  0.00    +0.000 A 
ENDBRANCH   1  11
BRANCH   3  14
ATOM     14  C   UNL     1       1.870   4.171  18.378  0.00  0.00    +0.000 A 
ATOM     15  C   UNL     1       2.346   5.834  17.682  0.00  0.00    +0.000 A 
ATOM     16  C   UNL     1       2.813   6.903  18.472  0.00  0.00    +0.000 A 
ATOM     17  C   UNL     1       2.575   6.930  19.882  0.00  0.00    +0.000 A 
ATOM     18  C   UNL     1       1.852   5.963  20.661  0.00  0.00    +0.000 A 
ATOM     19  C   UNL     1       1.502   4.702  20.131  0.00  0.00    +0.000 A 
ENDBRANCH   3  14
TORSDOF 2
ENDMDL
MODEL 2
REMARK VINA RESULT:      -7.0      2.136      4.799
REMARK  Name = 
REMARK  4 active torsions:
REMARK  status: ('A' for Active; 'I' for Inactive)
REMARK    1  A    between atoms: C_1  and  C_2
REMARK    2  A    between atoms: C_5  and  C_6
REMARK    3  A    between atoms: C_8  and  C_9
REMARK    4  A    between atoms: N_16  and  C_17
REMARK                            x       y       z     vdW  Elec       q    Type
REMARK                         _______ _______ _______ _____ _____    ______ ____
ROOT
ATOM      1  C   UNL     1       5.618   4.075  17.209  0.00  0.00    +0.000 C 
ATOM      2  C   UNL     1       5.607   5.953  17.916  0.00  0.00    +0.000 C 
ATOM      3  C   UNL     1       6.887   6.249  17.152  0.00  0.00    +0.000 C 
ATOM      4  N   UNL     1       7.197   5.538  16.090  0.00  0.00    +0.000 NA
ATOM      5  N   UNL     1       6.272   4.423  15.907  0.00  0.00    +0.000 N 
ATOM      6  C   UNL     1       5.280   4.594  14.841  0.00  0.00    +0.000 C 
ENDROOT
BRANCH   1  11
ATOM      7  C   UNL     1       0.605   2.726  19.866  0.00  0.00    +0.000 C 
ATOM      8  C   UNL     1       1.822   2.710  18.969  0.00  0.00    +0.000 A 
ATOM      9  C   UNL     1       1.796   3.272  17.677  0.00  0.00    +0.000 A 
ATOM     10  C   UNL     1       3.012   3.521  16.948  0.00  0.00    +0.000 A 
ATOM     11  C   UNL     1       4.281   3.227  17.480  0.00  0.00    +0.000 A 
ATOM     12  C   UNL     1       4.252   2.436  18.670  0.00  0.00    +0.000 A 
ATOM     13  C   UNL     1       3.051   2.243  19.429  0.00  0.00    +0.000 A 
ENDBRANCH   1  11
BRANCH   3  14
ATOM     14  C   UNL     1       5.622   5.957  17.907  0.00  0.00    +0.000 A 
ATOM     15  C   UNL     1       4.522   5.773  19.402  0.00  0.00    +0.000 A 
ATOM     16  C   UNL     1       3.172   6.175  19.428  0.00  0.00    +0.000 A 
ATOM     17  C   UNL     1       2.668   7.108  18.468  0.00  0.00    +0.000 A 
ATOM     18  C   UNL     1       3.402   7.761  17.420  0.00  0.00    +0.000 A 
ATOM     19  C   UNL     1       4.699   7.339  17.055  0.00  0.00    +0.000 A 
ENDBRANCH   3  14
TORSDOF 2
ENDMDL
MODEL 3
REMARK VINA RESULT:      -6.7      2.044      3.528
REMARK  Name = 
REMARK  4 active torsions:
REMARK  status: ('A' for Active; 'I' for Inactive)
REMARK    1  A    between atoms: C_1  and  C_2
REMARK    2  A    between atoms: C_5  and  C_6
REMARK    3  A    between atoms: C_8  and  C_9
REMARK    4  A    between atoms: N_16  and  C_17
REMARK                            x       y       z     vdW  Elec       q    Type
REMARK                         _______ _______ _______ _____ _____    ______ ____
ROOT
ATOM      1  C   UNL     1       4.029   5.477  19.378  0.00  0.00    +0.000 C 
ATOM      2  C   UNL     1       2.611   4.328  20.215  0.00  0.00    +0.000 C 
ATOM      3  C   UNL     1       1.958   5.566  20.807  0.00  0.00    +0.000 C 
ATOM      4  N   UNL     1       2.152   6.742  20.250  0.00  0.00    +0.000 NA
ATOM      5  N   UNL     1       3.141   6.666  19.179  0.00  0.00    +0.000 N 
ATOM      6  C   UNL     1       2.601   6.707  17.816  0.00  0.00    +0.000 C 
ENDROOT
BRANCH   1  11
ATOM      7  C   UNL     1       7.097   4.886  14.453  0.00  0.00    +0.000 C 
ATOM      8  C   UNL     1       6.423   4.632  15.783  0.00  0.00    +0.000 A 
ATOM      9  C   UNL     1       7.098   4.831  17.003  0.00  0.00    +0.000 A 
ATOM     10  C   UNL     1       6.383   4.877  18.252  0.00  0.00    +0.000 A 
ATOM     11  C   UNL     1       4.985   4.733  18.322  0.00  0.00    +0.000 A 
ATOM     12  C   UNL     1       4.377   4.285  17.109  0.00  0.00    +0.000 A 
ATOM     13  C   UNL     1       5.072   4.302  15.855  0.00  0.00    +0.000 A 
ENDBRANCH   1  11
BRANCH   3  14
ATOM     14  C   UNL     1       2.604   4.343  20.222  0.00  0.00    +0.000 A 
ATOM     15  C   UNL     1       3.489   2.701  20.230  0.00  0.00    +0.000 A 
ATOM     16  C   UNL     1       3.184   1.649  19.344  0.00  0.00    +0.000 A 
ATOM     17  C   UNL     1       1.930   1.610  18.658  0.00  0.00    +0.000 A 
ATOM     18  C   UNL     1       0.846   2.545  18.772  0.00  0.00    +0.000 A 
ATOM     19  C   UNL     1       1.013   3.793  19.411  0.00  0.00    +0.000 A 
ENDBRANCH   3  14
TORSDOF 2
ENDMDL
MODEL 4
REMARK VINA RESULT:      -6.4      1.463      4.216
REMARK  Name = 
REMARK  4 active torsions:
REMARK  status: ('A' for Active; 'I' for Inactive)
REMARK    1  A    between atoms: C_1  and  C_2
REMARK    2  A    between atoms: C_5  and  C_6
REMARK    3  A    between atoms: C_8  and  C_9
REMARK    4  A    between atoms: N_16  and  C_17
REMARK                            x       y       z     vdW  Elec       q    Type
REMARK                         _______ _______ _______ _____ _____    ______ ____
ROOT
ATOM      1  C   UNL     1       2.832   4.708  19.433  0.00  0.00    +0.000 C 
ATOM      2  C   UNL     1       4.488   3.865  18.674  0.00  0.00    +0.000 C 
ATOM      3  C   UNL     1       3.820   2.502  18.731  0.00  0.00    +0.000 C 
ATOM      4  N   UNL     1       2.508   2.412  18.722  0.00  0.00    +0.000 NA
ATOM      5  N   UNL     1       1.884   3.729  18.813  0.00  0.00    +0.000 N 
ATOM      6  C   UNL     1       1.321   4.249  17.563  0.00  0.00    +0.000 C 
ENDROOT
BRANCH   1  11
ATOM      7  C   UNL     1       0.597   9.979  18.318  0.00  0.00    +0.000 C 
ATOM      8  C   UNL     1       1.514   8.848  18.725  0.00  0.00    +0.000 A 
ATOM      9  C   UNL     1       1.567   8.381  20.054  0.00  0.00    +0.000 A 
ATOM     10  C   UNL     1       2.205   7.133  20.381  0.00  0.00    +0.000 A 
ATOM     11  C   UNL     1       2.800   6.314  19.402  0.00  0.00    +0.000 A 
ATOM     12  C   UNL     1       2.946   6.935  18.124  0.00  0.00    +0.000 A 
ATOM     13  C   UNL     1       2.258   8.145  17.780  0.00  0.00    +0.000 A 
ENDBRANCH   1  11
BRANCH   3  14
ATOM     14  C   UNL     1       4.480   3.849  18.675  0.00  0.00    +0.000 A 
ATOM     15  C   UNL     1       5.761   5.147  19.063  0.00  0.00    +0.000 A 
ATOM     16  C   UNL     1       6.259   6.058  18.110  0.00  0.00    +0.000 A 
ATOM     17  C   UNL     1       6.126   5.798  16.710  0.00  0.00    +0.000 A 
ATOM     18  C   UNL     1       5.538   4.643  16.092  0.00  0.00    +0.000 A 
ATOM     19  C   UNL     1       4.768   3.720  16.834  0.00  0.00    +0.000 A 
ENDBRANCH   3  14
TORSDOF 2
ENDMDL
MODEL 5
REMARK VINA RESULT:      -6.2      2.069      4.536
REMARK  Name = 
REMARK  4 active torsions:
REMARK  status: ('A' for Active; 'I' for Inactive)
REMARK    1  A    between atoms: C_1  and  C_2
REMARK    2  A    between atoms: C_5  and  C_6
REMARK    3  A    between atoms: C_8  and  C_9
REMARK    4  A    between atoms: N_16  and  C_17
REMARK                            x       y       z     vdW  Elec       q    Type
REMARK                         _______ _______ _______ _____ _____    ______ ____
ROOT
ATOM      1  C   UNL     1       3.769   5.803  17.561  0.00  0.00    +0.000 C 
ATOM      2  C   UNL     1       3.583   3.822  17.290  0.00  0.00    +0.000 C 
ATOM      3  C   UNL     1       5.008   3.761  16.766  0.00  0.00    +0.000 C 
ATOM      4  N   UNL     1       5.876   4.688  17.109  0.00  0.00    +0.000 NA
ATOM      5  N   UNL     1       5.236   5.762  17.863  0.00  0.00    +0.000 N 
ATOM      6  C   UNL     1       5.483   5.754  19.308  0.00  0.00    +0.000 C 
ENDROOT
BRANCH   1  11
ATOM      7  C   UNL     1       1.399   9.059  21.780  0.00  0.00    +0.000 C 
ATOM      8  C   UNL     1       1.601   8.139  20.596  0.00  0.00    +0.000 A 
ATOM      9  C   UNL     1       1.640   8.631  19.277  0.00  0.00    +0.000 A 
ATOM     10  C   UNL     1       2.122   7.817  18.192  0.00  0.00    +0.000 A 
ATOM     11  C   UNL     1       2.581   6.501  18.386  0.00  0.00    +0.000 A 
ATOM     12  C   UNL     1       2.291   5.961  19.677  0.00  0.00    +0.000 A 
ATOM     13  C   UNL     1       1.874   6.785  20.773  0.00  0.00    +0.000 A 
ENDBRANCH   1  11
BRANCH   3  14
ATOM     14  C   UNL     1       3.600   3.822  17.284  0.00  0.00    +0.000 A 
ATOM     15  C   UNL     1       1.743   3.665  17.222  0.00  0.00    +0.000 A 
ATOM     16  C   UNL     1       0.970   3.160  18.286  0.00  0.00    +0.000 A 
ATOM     17  C   UNL     1       1.569   2.366  19.314  0.00  0.00    +0.000 A 
ATOM     18  C   UNL     1       2.942   1.958  19.409  0.00  0.00    +0.000 A 
ATOM     19  C   UNL     1       3.941   2.535  18.595  0.00  0.00    +0.000 A 
ENDBRANCH   3  14
TORSDOF 2
ENDMDL
MODEL 6
REMARK VINA RESULT:      -6.0      2.099      3.682
REMARK  Name = 
REMARK  4 active torsions:
REMARK  status: ('A' for Active; 'I' for Inactive)
REMARK    1  A    between atoms: C_1  and  C_2
REMARK    2  A    between atoms: C_5  and  C_6
REMARK    3  A    between atoms: C_8  and  C_9
REMARK    4  A    between atoms: N_16  and  C_17
REMARK                            x       y       z     vdW  Elec       q    Type
REMARK                         _______ _______ _______ _____ _____    ______ ____
ROOT
ATOM      1  C   UNL     1       3.796   6.251  19.456  0.00  0.00    +0.000 C 
ATOM      2  C   UNL     1       2.840   4.520  19.804  0.00  0.00    +0.000 C 
ATOM      3  C   UNL     1       1.959   5.214  20.830  0.00  0.00    +0.000 C 
ATOM      4  N   UNL     1       1.769   6.514  20.762  0.00  0.00    +0.000 NA
ATOM      5  N   UNL     1       2.609   7.121  19.734  0.00  0.00    +0.000 N 
ATOM      6  C   UNL     1       1.921   7.496  18.495  0.00  0.00    +0.000 C 
ENDROOT
BRANCH   1  11
ATOM      7  C   UNL     1       6.848   3.909  15.072  0.00  0.00    +0.000 C 
ATOM      8  C   UNL     1       6.258   4.872  16.078  0.00  0.00    +0.000 A 
ATOM      9  C   UNL     1       5.094   5.613  15.798  0.00  0.00    +0.000 A 
ATOM     10  C   UNL     1       4.372   6.293  16.842  0.00  0.00    +0.000 A 
ATOM     11  C   UNL     1       4.782   6.250  18.188  0.00  0.00    +0.000 A 
ATOM     12  C   UNL     1       6.088   5.708  18.389  0.00  0.00    +0.000 A 
ATOM     13  C   UNL     1       6.777   4.975  17.367  0.00  0.00    +0.000 A 
ENDBRANCH   1  11
BRANCH   3  14
ATOM     14  C   UNL     1       2.829   4.529  19.817  0.00  0.00    +0.000 A 
ATOM     15  C   UNL     1       4.075   3.295  19.182  0.00  0.00    +0.000 A 
ATOM     16  C   UNL     1       3.963   2.647  17.936  0.00  0.00    +0.000 A 
ATOM     17  C   UNL     1       2.705   2.579  17.257  0.00  0.00    +0.000 A 
ATOM     18  C   UNL     1       1.443   3.091  17.712  0.00  0.00    +0.000 A 
ATOM     19  C   UNL     1       1.357   3.977  18.808  0.00  0.00    +0.000 A 
ENDBRANCH   3  14
TORSDOF 2
ENDMDL
MODEL 7
REMARK VINA RESULT:      -5.8      1.325      4.075
REMARK  Name = 
REMARK  4 active torsions:
REMARK  status: ('A' for Active; 'I' for Inactive)
REMARK    1  A    between atoms: C_1  and  C_2
REMARK    2  A    between atoms: C_5  and  C_6
REMARK    3  A    between atoms: C_8  and  C_9
REMARK    4  A    between atoms: N_16  and  C_17
REMARK                            x       y       z     vdW  Elec       q    Type
REMARK                         _______ _______ _______ _____ _____    ______ ____
ROOT
ATOM      1  C   UNL     1       2.913   4.313  19.696  0.00  0.00    +0.000 C 
ATOM      2  C   UNL     1       4.722   4.129  18.846  0.00  0.00    +0.000 C 
ATOM      3  C   UNL     1       4.828   2.710  19.381  0.00  0.00    +0.000 C 
ATOM      4  N   UNL     1       3.738   2.032  19.667  0.00  0.00    +0.000 NA
ATOM      5  N   UNL     1       2.546   2.868  19.552  0.00  0.00    +0.000 N 
ATOM      6  C   UNL     1       1.728   2.642  18.356  0.00  0.00    +0.000 C 
ENDROOT
BRANCH   1  11
ATOM      7  C   UNL     1       2.164   9.862  18.064  0.00  0.00    +0.000 C 
ATOM      8  C   UNL     1       1.930   8.432  18.495  0.00  0.00    +0.000 A 
ATOM      9  C   UNL     1       1.737   7.398  17.558  0.00  0.00    +0.000 A 
ATOM     10  C   UNL     1       1.811   6.014  17.947  0.00  0.00    +0.000 A 
ATOM     11  C   UNL     1       2.082   5.620  19.271  0.00  0.00    +0.000 A 
ATOM     12  C   UNL     1       2.019   6.681  20.226  0.00  0.00    +0.000 A 
ATOM     13  C   UNL     1       2.011   8.060  19.835  0.00  0.00    +0.000 A 
ENDBRANCH   1  11
BRANCH   3  14
ATOM     14  C   UNL     1       4.723   4.112  18.853  0.00  0.00    +0.000 A 
ATOM     15  C   UNL     1       5.200   5.901  18.635  0.00  0.00    +0.000 A 
ATOM     16  C   UNL     1       5.133   6.580  17.402  0.00  0.00    +0.000 A 
ATOM     17  C   UNL     1       5.084   5.855  16.170  0.00  0.00    +0.000 A 
ATOM     18  C   UNL     1       5.125   4.430  15.997  0.00  0.00    +0.000 A 
ATOM     19  C   UNL     1       4.954   3.549  17.087  0.00  0.00    +0.000 A 
ENDBRANCH   3  14
TORSDOF 2
ENDMDL
MODEL 8
REMARK VINA RESULT:      -5.7      1.802      4.064
REMARK  Name = 
REMARK  4 active torsions:
REMARK  status: ('A' for Active; 'I' for Inactive)
REMARK    1  A    between atoms: C_1  and  C_2
REMARK    2  A    between atoms: C_5  and  C_6
REMARK    3  A    between atoms: C_8  and  C_9
REMARK    4  A    between atoms: N_16  and  C_17
REMARK                            x       y       z     vdW  Elec       q    Type
REMARK                         _______ _______ _______ _____ _____    ______ ____
ROOT
ATOM      1  C   UNL     1       3.592   5.554  17.600  0.00  0.00    +0.000 C 
ATOM      2  C   UNL     1       2.844   3.801  18.231  0.00  0.00    +0.000 C 
ATOM      3  C   UNL     1       3.729   3.066  17.238  0.00  0.00    +0.000 C 
ATOM      4  N   UNL     1       4.833   3.629  16.798  0.00  0.00    +0.000 NA
ATOM      5  N   UNL     1       4.946   5.010  17.260  0.00  0.00    +0.000 N 
ATOM      6  C   UNL     1       5.901   5.236  18.350  0.00  0.00    +0.000 C 
ENDROOT
BRANCH   1  11
ATOM      7  C   UNL     1       0.020   9.400  20.143  0.00  0.00    +0.000 C 
ATOM      8  C   UNL     1       1.244   8.664  19.646  0.00  0.00    +0.000 A 
ATOM      9  C   UNL     1       1.892   7.691  20.432  0.00  0.00    +0.000 A 
ATOM     10  C   UNL     1       2.859   6.792  19.858  0.00  0.00    +0.000 A 
ATOM     11  C   UNL     1       3.204   6.831  18.494  0.00  0.00    +0.000 A 
ATOM     12  C   UNL     1       2.722   7.981  17.797  0.00  0.00    +0.000 A 
ATOM     13  C   UNL     1       1.711   8.837  18.345  0.00  0.00    +0.000 A 
ENDBRANCH   1  11
BRANCH   3  14
ATOM     14  C   UNL     1       2.855   3.792  18.219  0.00  0.00    +0.000 A 
ATOM     15  C   UNL     1       1.261   4.407  18.968  0.00  0.00    +0.000 A 
ATOM     16  C   UNL     1       1.024   4.461  20.356  0.00  0.00    +0.000 A 
ATOM     17  C   UNL     1       1.811   3.686  21.264  0.00  0.00    +0.000 A 
ATOM     18  C   UNL     1       2.870   2.772  20.936  0.00  0.00    +0.000 A 
ATOM     19  C   UNL     1       3.437   2.733  19.643  0.00  0.00    +0.000 A 
ENDBRANCH   3  14
TORSDOF 2
ENDMDL
MODEL 9
REMARK VINA RESULT:      -5.7      0.999      1.480
REMARK  Name = 
REMARK  4 active torsions:
REMARK  status: ('A' for Active; 'I' for Inactive)
REMARK    1  A    between atoms: C_1  and  C_2
REMARK    2  A    between atoms: C_5  and  C_6
REMARK    3  A    between atoms: C_8  and  C_9
REMARK    4  A    between atoms: N_16  and  C_17
REMARK                            x       y       z     vdW  Elec       q    Type
REMARK                         _______ _______ _______ _____ _____    ______ ____
ROOT
ATOM      1  C   UNL     1       3.443   3.373  17.805  0.00  0.00    +0.000 C 
ATOM      2  C   UNL     1       1.709   4.173  18.424  0.00  0.00    +0.000 C 
ATOM      3  C   UNL     1       1.098   2.784  18.507  0.00  0.00    +0.000 C 
ATOM      4  N   UNL     1       1.873   1.733  18.660  0.00  0.00    +0.000 NA
ATOM      5  N   UNL     1       3.285   2.096  18.571  0.00  0.00    +0.000 N 
ATOM      6  C   UNL     1       4.007   2.146  19.846  0.00  0.00    +0.000 C 
ENDROOT
BRANCH   1  11
ATOM      7  C   UNL     1       8.753   5.358  19.174  0.00  0.00    +0.000 C 
ATOM      8  C   UNL     1       7.359   5.215  18.606  0.00  0.00    +0.000 A 
ATOM      9  C   UNL     1       7.133   4.653  17.334  0.00  0.00    +0.000 A 
ATOM     10  C   UNL     1       5.814   4.248  16.922  0.00  0.00    +0.000 A 
ATOM     11  C   UNL     1       4.691   4.384  17.759  0.00  0.00    +0.000 A 
ATOM     12  C   UNL     1       4.917   5.179  18.924  0.00  0.00    +0.000 A 
ATOM     13  C   UNL     1       6.235   5.526  19.368  0.00  0.00    +0.000 A 
ENDBRANCH   1  11
BRANCH   3  14
ATOM     14  C   UNL     1       1.701   4.157  18.425  0.00  0.00    +0.000 A 
ATOM     15  C   UNL     1       1.889   5.914  17.829  0.00  0.00    +0.000 A 
ATOM     16  C   UNL     1       2.222   6.990  18.675  0.00  0.00    +0.000 A 
ATOM     17  C   UNL     1       2.044   6.891  20.091  0.00  0.00    +0.000 A 
ATOM     18  C   UNL     1       1.510   5.778  20.824  0.00  0.00    +0.000 A 
ATOM     19  C   UNL     1       1.333   4.513  20.221  0.00  0.00    +0.000 A 
ENDBRANCH   3  14
TORSDOF 2
ENDMDL
