MODEL 1
REMARK VINA RESULT:      -7.0      0.000      0.000
REMARK  Name = 
REMARK  6 active torsions:
REMARK  status: ('A' for Active; 'I' for Inactive)
REMARK    1  A    between atoms: C_1  and  C_2
REMARK    2  A    between atoms: C_2  and  C_3
REMARK    3  A    between atoms: C_2  and  C_4
REMARK    4  A    between atoms: C_9  and  O_10
REMARK    5  A    between atoms: C_11  and  C_12
REMARK    6  A    between atoms: C_11  and  C_13
REMARK                            x       y       z     vdW  Elec       q    Type
REMARK                         _______ _______ _______ _____ _____    ______ ____
ROOT
ATOM      1  C   UNL     1       5.387   4.901  18.296  0.00  0.00    +0.000 A 
ATOM      2  C   UNL     1       4.651   6.001  17.789  0.00  0.00    +0.000 A 
ATOM      3  C   UNL     1       3.269   6.114  17.985  0.00  0.00    +0.000 A 
ATOM      4  C   UNL     1       2.647   5.100  18.669  0.00  0.00    +0.000 A 
ATOM      5  C   UNL     1       3.320   3.979  19.093  0.00  0.00    +0.000 A 
ATOM      6  C   UNL     1       4.685   3.866  18.943  0.00  0.00    +0.000 A 
ATOM      7  C   UNL     1       2.078   3.344  19.679  0.00  0.00    +0.000 C 
ATOM      8  C   UNL     1       1.489   2.152  18.931  0.00  0.00    +0.000 C 
ATOM      9  C   UNL     1       1.350   4.682  19.299  0.00  0.00    +0.000 C 
ENDROOT
BRANCH   1  11
ATOM     10  C   UNL     1       7.260   4.612  16.668  0.00  0.00    +0.000 C 
ATOM     11  C   UNL     1       6.901   4.816  18.139  0.00  0.00    +0.000 C 
ATOM     12  C   UNL     1       7.677   6.008  18.715  0.00  0.00    +0.000 C 
ENDBRANCH   1  11
BRANCH   6  13
ATOM     13  O   UNL     1       5.361   2.798  19.445  0.00  0.00    +0.000 OA
ATOM     14  H   UNL     1       6.220   2.715  18.999  0.00  0.00    +0.000 HD
ENDBRANCH   6  13
BRANCH   7  15
ATOM     15  C   UNL     1       2.252   3.066  21.087  0.00  0.00    +0.000 C 
ATOM     16  N   UNL     1       2.365   2.751  22.203  0.00  0.00    +0.000 NA
ENDBRANCH   7  15
TORSDOF 3
ENDMDL
MODEL 2
REMARK VINA RESULT:      -6.8      1.105      1.299
REMARK  Name = 
REMARK  6 active torsions:
REMARK  status: ('A' for Active; 'I' for Inactive)
REMARK    1  A    between atoms: C_1  and  C_2
REMARK    2  A    between atoms: C_2  and  C_3
REMARK    3  A    between atoms: C_2  and  C_4
REMARK    4  A    between atoms: C_9  and  O_10
REMARK    5  A    between atoms: C_11  and  C_12
REMARK    6  A    between atoms: C_11  and  C_13
REMARK                            x       y       z     vdW  Elec       q    Type
REMARK                         _______ _______ _______ _____ _____    ______ ____
ROOT
ATOM      1  C   UNL     1       4.646   4.708  17.360  0.00  0.00    +0.000 A 
ATOM      2  C   UNL     1       4.239   6.062  17.469  0.00  0.00    +0.000 A 
ATOM      3  C   UNL     1       3.217   6.454  18.341  0.00  0.00    +0.000 A 
ATOM      4  C   UNL     1       2.604   5.470  19.073  0.00  0.00    +0.000 A 
ATOM      5  C   UNL     1       2.917   4.139  18.924  0.00  0.00    +0.000 A 
ATOM      6  C   UNL     1       3.943   3.737  18.098  0.00  0.00    +0.000 A 
ATOM      7  C   UNL     1       1.891   3.690  19.941  0.00  0.00    +0.000 C 
ATOM      8  C   UNL     1       0.646   2.989  19.409  0.00  0.00    +0.000 C 
ATOM      9  C   UNL     1       1.633   5.218  20.191  0.00  0.00    +0.000 C 
ENDROOT
BRANCH   1  11
ATOM     10  C   UNL     1       5.653   4.949  15.086  0.00  0.00    +0.000 C 
ATOM     11  C   UNL     1       5.804   4.295  16.459  0.00  0.00    +0.000 C 
ATOM     12  C   UNL     1       7.200   4.577  17.032  0.00  0.00    +0.000 C 
ENDBRANCH   1  11
BRANCH   6  13
ATOM     13  O   UNL     1       4.310   2.429  18.021  0.00  0.00    +0.000 OA
ATOM     14  H   UNL     1       4.871   2.292  17.239  0.00  0.00    +0.000 HD
ENDBRANCH   6  13
BRANCH   7  15
ATOM     15  C   UNL     1       2.514   2.944  21.011  0.00  0.00    +0.000 C 
ATOM     16  N   UNL     1       2.955   2.385  21.934  0.00  0.00    +0.000 NA
ENDBRANCH   7  15
TORSDOF 3
ENDMDL
MODEL 3
REMARK VINA RESULT:      -6.7      2.211      5.003
REMARK  Name = 
REMARK  6 active torsions:
REMARK  status: ('A' for Active; 'I' for Inactive)
REMARK    1  A    between atoms: C_1  and  C_2
REMARK    2  A    between atoms: C_2  and  C_3
REMARK    3  A    between atoms: C_2  and  C_4
REMARK    4  A    between atoms: C_9  and  O_10
REMARK    5  A    between atoms: C_11  and  C_12
REMARK    6  A    between atoms: C_11  and  C_13
REMARK                            x       y       z     vdW  Elec       q    Type
REMARK                         _______ _______ _______ _____ _____    ______ ____
ROOT
ATOM      1  C   UNL     1       3.160   4.218  19.079  0.00  0.00    +0.000 A 
ATOM      2  C   UNL     1       2.480   5.416  18.745  0.00  0.00    +0.000 A 
ATOM      3  C   UNL     1       3.138   6.488  18.130  0.00  0.00    +0.000 A 
ATOM      4  C   UNL     1       4.479   6.343  17.884  0.00  0.00    +0.000 A 
ATOM      5  C   UNL     1       5.183   5.229  18.277  0.00  0.00    +0.000 A 
ATOM      6  C   UNL     1       4.547   4.149  18.850  0.00  0.00    +0.000 A 
ATOM      7  C   UNL     1       6.497   5.760  17.747  0.00  0.00    +0.000 C 
ATOM      8  C   UNL     1       7.528   6.214  18.775  0.00  0.00    +0.000 C 
ATOM      9  C   UNL     1       5.659   6.967  17.195  0.00  0.00    +0.000 C 
ENDROOT
BRANCH   1  11
ATOM     10  C   UNL     1       2.021   3.348  21.125  0.00  0.00    +0.000 C 
ATOM     11  C   UNL     1       2.426   3.029  19.686  0.00  0.00    +0.000 C 
ATOM     12  C   UNL     1       1.207   2.545  18.886  0.00  0.00    +0.000 C 
ENDBRANCH   1  11
BRANCH   6  13
ATOM     13  O   UNL     1       5.230   3.013  19.154  0.00  0.00    +0.000 OA
ATOM     14  H   UNL     1       5.957   3.222  19.764  0.00  0.00    +0.000 HD
ENDBRANCH   6  13
BRANCH   7  15
ATOM     15  C   UNL     1       7.068   4.855  16.774  0.00  0.00    +0.000 C 
ATOM     16  N   UNL     1       7.520   4.197  15.925  0.00  0.00    +0.000 NA
ENDBRANCH   7  15
TORSDOF 3
ENDMDL
MODEL 4
REMARK VINA RESULT:      -6.5      1.101      1.281
REMARK  Name = 
REMARK  6 active torsions:
REMARK  status: ('A' for Active; 'I' for Inactive)
REMARK    1  A    between atoms: C_1  and  C_2
REMARK    2  A    between atoms: C_2  and  C_3
REMARK    3  A    between atoms: C_2  and  C_4
REMARK    4  A    between atoms: C_9  and  O_10
REMARK    5  A    between atoms: C_11  and  C_12
REMARK    6  A    between atoms: C_11  and  C_13
REMARK                            x       y       z     vdW  Elec       q    Type
REMARK                         _______ _______ _______ _____ _____    ______ ____
ROOT
ATOM      1  C   UNL     1       5.734   5.811  17.970  0.00  0.00    +0.000 A 
ATOM      2  C   UNL     1       4.839   6.815  17.521  0.00  0.00    +0.000 A 
ATOM      3  C   UNL     1       3.452   6.628  17.545  0.00  0.00    +0.000 A 
ATOM      4  C   UNL     1       2.990   5.419  18.001  0.00  0.00    +0.000 A 
ATOM      5  C   UNL     1       3.835   4.396  18.359  0.00  0.00    +0.000 A 
ATOM      6  C   UNL     1       5.201   4.573  18.377  0.00  0.00    +0.000 A 
ATOM      7  C   UNL     1       2.700   3.451  18.687  0.00  0.00    +0.000 C 
ATOM      8  C   UNL     1       2.454   2.299  17.717  0.00  0.00    +0.000 C 
ATOM      9  C   UNL     1       1.751   4.666  18.394  0.00  0.00    +0.000 C 
ENDROOT
BRANCH   1  11
ATOM     10  C   UNL     1       7.564   7.426  17.438  0.00  0.00    +0.000 C 
ATOM     11  C   UNL     1       7.239   6.044  18.004  0.00  0.00    +0.000 C 
ATOM     12  C   UNL     1       7.888   5.870  19.385  0.00  0.00    +0.000 C 
ENDBRANCH   1  11
BRANCH   6  13
ATOM     13  O   UNL     1       6.031   3.589  18.818  0.00  0.00    +0.000 OA
ATOM     14  H   UNL     1       6.664   3.958  19.457  0.00  0.00    +0.000 HD
ENDBRANCH   6  13
BRANCH   7  15
ATOM     15  C   UNL     1       2.783   2.995  20.056  0.00  0.00    +0.000 C 
ATOM     16  N   UNL     1       2.768   2.674  21.177  0.00  0.00    +0.000 NA
ENDBRANCH   7  15
TORSDOF 3
ENDMDL
MODEL 5
REMARK VINA RESULT:      -6.5      2.494      4.973
REMARK  Name = 
REMARK  6 active torsions:
REMARK  status: ('A' for Active; 'I' for Inactive)
REMARK    1  A    between atoms: C_1  and  C_2
REMARK    2  A    between atoms: C_2  and  C_3
REMARK    3  A    between atoms: C_2  and  C_4
REMARK    4  A    between atoms: C_9  and  O_10
REMARK    5  A    between atoms: C_11  and  C_12
REMARK    6  A    between atoms: C_11  and  C_13
REMARK                            x       y       z     vdW  Elec       q    Type
REMARK                         _______ _______ _______ _____ _____    ______ ____
ROOT
ATOM      1  C   UNL     1       2.889   4.106  19.358  0.00  0.00    +0.000 A 
ATOM      2  C   UNL     1       2.267   3.286  18.382  0.00  0.00    +0.000 A 
ATOM      3  C   UNL     1       2.819   3.114  17.107  0.00  0.00    +0.000 A 
ATOM      4  C   UNL     1       3.979   3.791  16.828  0.00  0.00    +0.000 A 
ATOM      5  C   UNL     1       4.556   4.661  17.723  0.00  0.00    +0.000 A 
ATOM      6  C   UNL     1       4.049   4.816  18.994  0.00  0.00    +0.000 A 
ATOM      7  C   UNL     1       5.681   5.029  16.780  0.00  0.00    +0.000 C 
ATOM      8  C   UNL     1       5.635   6.419  16.154  0.00  0.00    +0.000 C 
ATOM      9  C   UNL     1       5.081   3.941  15.819  0.00  0.00    +0.000 C 
ENDROOT
BRANCH   1  11
ATOM     10  C   UNL     1       1.426   5.473  20.851  0.00  0.00    +0.000 C 
ATOM     11  C   UNL     1       2.322   4.237  20.766  0.00  0.00    +0.000 C 
ATOM     12  C   UNL     1       1.571   3.000  21.277  0.00  0.00    +0.000 C 
ENDBRANCH   1  11
BRANCH   6  13
ATOM     13  O   UNL     1       4.674   5.608  19.907  0.00  0.00    +0.000 OA
ATOM     14  H   UNL     1       4.314   6.509  19.860  0.00  0.00    +0.000 HD
ENDBRANCH   6  13
BRANCH   7  15
ATOM     15  C   UNL     1       6.968   4.745  17.372  0.00  0.00    +0.000 C 
ATOM     16  N   UNL     1       7.963   4.448  17.902  0.00  0.00    +0.000 NA
ENDBRANCH   7  15
TORSDOF 3
ENDMDL
MODEL 6
REMARK VINA RESULT:      -6.3      0.491      1.033
REMARK  Name = 
REMARK  6 active torsions:
REMARK  status: ('A' for Active; 'I' for Inactive)
REMARK    1  A    between atoms: C_1  and  C_2
REMARK    2  A    between atoms: C_2  and  C_3
REMARK    3  A    between atoms: C_2  and  C_4
REMARK    4  A    between atoms: C_9  and  O_10
REMARK    5  A    between atoms: C_11  and  C_12
REMARK    6  A    between atoms: C_11  and  C_13
REMARK                            x       y       z     vdW  Elec       q    Type
REMARK                         _______ _______ _______ _____ _____    ______ ____
ROOT
ATOM      1  C   UNL     1       5.258   5.452  18.152  0.00  0.00    +0.000 A 
ATOM      2  C   UNL     1       4.343   6.459  17.753  0.00  0.00    +0.000 A 
ATOM      3  C   UNL     1       2.969   6.339  17.989  0.00  0.00    +0.000 A 
ATOM      4  C   UNL     1       2.535   5.191  18.603  0.00  0.00    +0.000 A 
ATOM      5  C   UNL     1       3.387   4.160  18.920  0.00  0.00    +0.000 A 
ATOM      6  C   UNL     1       4.747   4.274  18.730  0.00  0.00    +0.000 A 
ATOM      7  C   UNL     1       2.279   3.296  19.481  0.00  0.00    +0.000 C 
ATOM      8  C   UNL     1       1.855   2.087  18.654  0.00  0.00    +0.000 C 
ATOM      9  C   UNL     1       1.341   4.529  19.227  0.00  0.00    +0.000 C 
ENDROOT
BRANCH   1  11
ATOM     10  C   UNL     1       7.456   5.698  19.313  0.00  0.00    +0.000 C 
ATOM     11  C   UNL     1       6.760   5.617  17.955  0.00  0.00    +0.000 C 
ATOM     12  C   UNL     1       7.419   4.538  17.084  0.00  0.00    +0.000 C 
ENDBRANCH   1  11
BRANCH   6  13
ATOM     13  O   UNL     1       5.596   3.289  19.129  0.00  0.00    +0.000 OA
ATOM     14  H   UNL     1       6.302   3.180  18.470  0.00  0.00    +0.000 HD
ENDBRANCH   6  13
BRANCH   7  15
ATOM     15  C   UNL     1       2.543   2.942  20.858  0.00  0.00    +0.000 C 
ATOM     16  N   UNL     1       2.737   2.566  21.944  0.00  0.00    +0.000 NA
ENDBRANCH   7  15
TORSDOF 3
ENDMDL
MODEL 7
REMARK VINA RESULT:      -6.3      2.204      4.951
REMARK  Name = 
REMARK  6 active torsions:
REMARK  status: ('A' for Active; 'I' for Inactive)
REMARK    1  A    between atoms: C_1  and  C_2
REMARK    2  A    between atoms: C_2  and  C_3
REMARK    3  A    between atoms: C_2  and  C_4
REMARK    4  A    between atoms: C_9  and  O_10
REMARK    5  A    between atoms: C_11  and  C_12
REMARK    6  A    between atoms: C_11  and  C_13
REMARK                            x       y       z     vdW  Elec       q    Type
REMARK                         _______ _______ _______ _____ _____    ______ ____
ROOT
ATOM      1  C   UNL     1       2.705   3.907  18.852  0.00  0.00    +0.000 A 
ATOM      2  C   UNL     1       2.824   3.049  17.730  0.00  0.00    +0.000 A 
ATOM      3  C   UNL     1       3.939   3.096  16.884  0.00  0.00    +0.000 A 
ATOM      4  C   UNL     1       4.906   4.025  17.171  0.00  0.00    +0.000 A 
ATOM      5  C   UNL     1       4.776   4.929  18.199  0.00  0.00    +0.000 A 
ATOM      6  C   UNL     1       3.705   4.875  19.064  0.00  0.00    +0.000 A 
ATOM      7  C   UNL     1       6.098   5.600  17.899  0.00  0.00    +0.000 C 
ATOM      8  C   UNL     1       6.045   6.991  17.276  0.00  0.00    +0.000 C 
ATOM      9  C   UNL     1       6.289   4.485  16.810  0.00  0.00    +0.000 C 
ENDROOT
BRANCH   1  11
ATOM     10  C   UNL     1       0.445   2.904  19.209  0.00  0.00    +0.000 C 
ATOM     11  C   UNL     1       1.523   3.806  19.809  0.00  0.00    +0.000 C 
ATOM     12  C   UNL     1       1.878   3.338  21.227  0.00  0.00    +0.000 C 
ENDBRANCH   1  11
BRANCH   6  13
ATOM     13  O   UNL     1       3.624   5.711  20.134  0.00  0.00    +0.000 OA
ATOM     14  H   UNL     1       4.418   6.270  20.173  0.00  0.00    +0.000 HD
ENDBRANCH   6  13
BRANCH   7  15
ATOM     15  C   UNL     1       6.975   5.556  19.047  0.00  0.00    +0.000 C 
ATOM     16  N   UNL     1       7.603   5.520  20.028  0.00  0.00    +0.000 NA
ENDBRANCH   7  15
TORSDOF 3
ENDMDL
MODEL 8
REMARK VINA RESULT:      -6.2      2.264      5.068
REMARK  Name = 
REMARK  6 active torsions:
REMARK  status: ('A' for Active; 'I' for Inactive)
REMARK    1  A    between atoms: C_1  and  C_2
REMARK    2  A    between atoms: C_2  and  C_3
REMARK    3  A    between atoms: C_2  and  C_4
REMARK    4  A    between atoms: C_9  and  O_10
REMARK    5  A    between atoms: C_11  and  C_12
REMARK    6  A    between atoms: C_11  and  C_13
REMARK                            x       y       z     vdW  Elec       q    Type
REMARK                         _______ _______ _______ _____ _____    ______ ____
ROOT
ATOM      1  C   UNL     1       3.532   4.401  18.097  0.00  0.00    +0.000 A 
ATOM      2  C   UNL     1       3.866   3.633  16.954  0.00  0.00    +0.000 A 
ATOM      3  C   UNL     1       5.160   3.632  16.420  0.00  0.00    +0.000 A 
ATOM      4  C   UNL     1       6.093   4.426  17.036  0.00  0.00    +0.000 A 
ATOM      5  C   UNL     1       5.777   5.250  18.091  0.00  0.00    +0.000 A 
ATOM      6  C   UNL     1       4.520   5.237  18.653  0.00  0.00    +0.000 A 
ATOM      7  C   UNL     1       7.182   5.799  18.202  0.00  0.00    +0.000 C 
ATOM      8  C   UNL     1       7.405   7.236  17.739  0.00  0.00    +0.000 C 
ATOM      9  C   UNL     1       7.556   4.765  17.081  0.00  0.00    +0.000 C 
ENDROOT
BRANCH   1  11
ATOM     10  C   UNL     1       1.098   4.104  17.624  0.00  0.00    +0.000 C 
ATOM     11  C   UNL     1       2.140   4.347  18.715  0.00  0.00    +0.000 C 
ATOM     12  C   UNL     1       1.975   3.322  19.846  0.00  0.00    +0.000 C 
ENDBRANCH   1  11
BRANCH   6  13
ATOM     13  O   UNL     1       4.235   5.984  19.754  0.00  0.00    +0.000 OA
ATOM     14  H   UNL     1       4.724   5.639  20.519  0.00  0.00    +0.000 HD
ENDBRANCH   6  13
BRANCH   7  15
ATOM     15  C   UNL     1       7.729   5.567  19.520  0.00  0.00    +0.000 C 
ATOM     16  N   UNL     1       8.196   5.292  20.552  0.00  0.00    +0.000 NA
ENDBRANCH   7  15
TORSDOF 3
ENDMDL
MODEL 9
REMARK VINA RESULT:      -6.0      2.436      4.868
REMARK  Name = 
REMARK  6 active torsions:
REMARK  status: ('A' for Active; 'I' for Inactive)
REMARK    1  A    between atoms: C_1  and  C_2
REMARK    2  A    between atoms: C_2  and  C_3
REMARK    3  A    between atoms: C_2  and  C_4
REMARK    4  A    between atoms: C_9  and  O_10
REMARK    5  A    between atoms: C_11  and  C_12
REMARK    6  A    between atoms: C_11  and  C_13
REMARK                            x       y       z     vdW  Elec       q    Type
REMARK                         _______ _______ _______ _____ _____    ______ ____
ROOT
ATOM      1  C   UNL     1       2.329   4.193  19.163  0.00  0.00    +0.000 A 
ATOM      2  C   UNL     1       1.888   3.311  18.144  0.00  0.00    +0.000 A 
ATOM      3  C   UNL     1       2.651   3.076  16.995  0.00  0.00    +0.000 A 
ATOM      4  C   UNL     1       3.838   3.753  16.880  0.00  0.00    +0.000 A 
ATOM      5  C   UNL     1       4.249   4.680  17.809  0.00  0.00    +0.000 A 
ATOM      6  C   UNL     1       3.530   4.899  18.964  0.00  0.00    +0.000 A 
ATOM      7  C   UNL     1       5.517   5.011  17.053  0.00  0.00    +0.000 C 
ATOM      8  C   UNL     1       5.573   6.364  16.350  0.00  0.00    +0.000 C 
ATOM      9  C   UNL     1       5.097   3.863  16.068  0.00  0.00    +0.000 C 
ENDROOT
BRANCH   1  11
ATOM     10  C   UNL     1       2.127   3.554  21.570  0.00  0.00    +0.000 C 
ATOM     11  C   UNL     1       1.527   4.395  20.443  0.00  0.00    +0.000 C 
ATOM     12  C   UNL     1       1.381   5.856  20.890  0.00  0.00    +0.000 C 
ENDBRANCH   1  11
BRANCH   6  13
ATOM     13  O   UNL     1       3.985   5.749  19.923  0.00  0.00    +0.000 OA
ATOM     14  H   UNL     1       4.716   5.332  20.410  0.00  0.00    +0.000 HD
ENDBRANCH   6  13
BRANCH   7  15
ATOM     15  C   UNL     1       6.685   4.780  17.873  0.00  0.00    +0.000 C 
ATOM     16  N   UNL     1       7.674   4.657  18.478  0.00  0.00    +0.000 NA
ENDBRANCH   7  15
TORSDOF 3
ENDMDL
