MODEL 1
REMARK VINA RESULT:      -7.5      0.000      0.000
REMARK  Name = 
REMARK  5 active torsions:
REMARK  status: ('A' for Active; 'I' for Inactive)
REMARK    1  A    between atoms: C_1  and  O_2
REMARK    2  A    between atoms: O_2  and  C_3
REMARK    3  A    between atoms: C_6  and  N_7
REMARK    4  A    between atoms: C_8  and  C_10
REMARK    5  A    between atoms: C_14  and  C_15
REMARK                            x       y       z     vdW  Elec       q    Type
REMARK                         _______ _______ _______ _____ _____    ______ ____
ROOT
ATOM      1  N   UNL     1       2.937   6.993  18.577  0.00  0.00    +0.000 N 
ATOM      2  C   UNL     1       2.359   8.217  18.228  0.00  0.00    +0.000 C 
ATOM      3  O   UNL     1       2.468   8.708  17.109  0.00  0.00    +0.000 OA
ATOM      4  H   UNL     1       2.680   6.616  19.480  0.00  0.00    +0.000 HD
ENDROOT
BRANCH   2   5
ATOM      5  C   UNL     1       1.553   8.872  19.267  0.00  0.00    +0.000 A 
ATOM      6  S   UNL     1       0.983  10.475  19.077  0.00  0.00    +0.000 S 
ATOM      7  C   UNL     1       0.232  10.500  20.623  0.00  0.00    +0.000 A 
ATOM      8  C   UNL     1      -0.495  11.573  21.189  0.00  0.00    +0.000 A 
ATOM      9  C   UNL     1      -1.004  11.446  22.487  0.00  0.00    +0.000 A 
ATOM     10  C   UNL     1      -0.794  10.275  23.208  0.00  0.00    +0.000 A 
ATOM     11  C   UNL     1      -0.102   9.204  22.627  0.00  0.00    +0.000 A 
ATOM     12  C   UNL     1       0.417   9.299  21.305  0.00  0.00    +0.000 A 
ATOM     13  C   UNL     1       1.125   8.348  20.479  0.00  0.00    +0.000 A 
ATOM     14 CL   UNL     1       1.395   6.739  21.035  0.00  0.00    +0.000 Cl
BRANCH   9  15
ATOM     15  C   UNL     1      -1.746  12.529  23.066  0.00  0.00    +0.000 C 
ATOM     16  N   UNL     1      -2.336  13.412  23.537  0.00  0.00    +0.000 NA
ENDBRANCH   9  15
ENDBRANCH   2   5
BRANCH   1  20
ATOM     17  C   UNL     1       5.200   4.447  16.035  0.00  0.00    +0.000 A 
ATOM     18  C   UNL     1       5.491   5.806  16.103  0.00  0.00    +0.000 A 
ATOM     19  C   UNL     1       4.775   6.654  16.954  0.00  0.00    +0.000 A 
ATOM     20  C   UNL     1       3.734   6.165  17.743  0.00  0.00    +0.000 A 
ATOM     21  C   UNL     1       3.462   4.790  17.696  0.00  0.00    +0.000 A 
ATOM     22  C   UNL     1       4.183   3.935  16.838  0.00  0.00    +0.000 A 
BRANCH  17  24
ATOM     23  C   UNL     1       6.701   4.517  14.194  0.00  0.00    +0.000 C 
ATOM     24  O   UNL     1       5.945   3.754  15.123  0.00  0.00    +0.000 OA
ENDBRANCH  17  24
ENDBRANCH   1  20
TORSDOF 4
ENDMDL
MODEL 2
REMARK VINA RESULT:      -7.5      0.266      1.029
REMARK  Name = 
REMARK  5 active torsions:
REMARK  status: ('A' for Active; 'I' for Inactive)
REMARK    1  A    between atoms: C_1  and  O_2
REMARK    2  A    between atoms: O_2  and  C_3
REMARK    3  A    between atoms: C_6  and  N_7
REMARK    4  A    between atoms: C_8  and  C_10
REMARK    5  A    between atoms: C_14  and  C_15
REMARK                            x       y       z     vdW  Elec       q    Type
REMARK                         _______ _______ _______ _____ _____    ______ ____
ROOT
ATOM      1  N   UNL     1       2.915   7.123  18.627  0.00  0.00    +0.000 N 
ATOM      2  C   UNL     1       2.284   8.315  18.257  0.00  0.00    +0.000 C 
ATOM      3  O   UNL     1       2.340   8.770  17.119  0.00  0.00    +0.000 OA
ATOM      4  H   UNL     1       2.700   6.770  19.551  0.00  0.00    +0.000 HD
ENDROOT
BRANCH   2   5
ATOM      5  C   UNL     1       1.491   8.979  19.300  0.00  0.00    +0.000 A 
ATOM      6  S   UNL     1       0.950  10.593  19.119  0.00  0.00    +0.000 S 
ATOM      7  C   UNL     1       0.201  10.624  20.666  0.00  0.00    +0.000 A 
ATOM      8  C   UNL     1      -0.506  11.707  21.238  0.00  0.00    +0.000 A 
ATOM      9  C   UNL     1      -1.017  11.582  22.536  0.00  0.00    +0.000 A 
ATOM     10  C   UNL     1      -0.827  10.403  23.250  0.00  0.00    +0.000 A 
ATOM     11  C   UNL     1      -0.156   9.323  22.663  0.00  0.00    +0.000 A 
ATOM     12  C   UNL     1       0.364   9.416  21.341  0.00  0.00    +0.000 A 
ATOM     13  C   UNL     1       1.054   8.456  20.509  0.00  0.00    +0.000 A 
ATOM     14 CL   UNL     1       1.295   6.840  21.057  0.00  0.00    +0.000 Cl
BRANCH   9  15
ATOM     15  C   UNL     1      -1.737  12.675  23.121  0.00  0.00    +0.000 C 
ATOM     16  N   UNL     1      -2.322  13.555  23.605  0.00  0.00    +0.000 NA
ENDBRANCH   9  15
ENDBRANCH   2   5
BRANCH   1  20
ATOM     17  C   UNL     1       5.419   4.696  16.198  0.00  0.00    +0.000 A 
ATOM     18  C   UNL     1       4.276   4.159  16.781  0.00  0.00    +0.000 A 
ATOM     19  C   UNL     1       3.425   4.948  17.561  0.00  0.00    +0.000 A 
ATOM     20  C   UNL     1       3.711   6.294  17.795  0.00  0.00    +0.000 A 
ATOM     21  C   UNL     1       4.847   6.842  17.182  0.00  0.00    +0.000 A 
ATOM     22  C   UNL     1       5.705   6.045  16.396  0.00  0.00    +0.000 A 
BRANCH  17  24
ATOM     23  C   UNL     1       6.221   3.929  14.096  0.00  0.00    +0.000 C 
ATOM     24  O   UNL     1       6.179   3.794  15.510  0.00  0.00    +0.000 OA
ENDBRANCH  17  24
ENDBRANCH   1  20
TORSDOF 4
ENDMDL
MODEL 3
REMARK VINA RESULT:      -7.5      2.848      9.111
REMARK  Name = 
REMARK  5 active torsions:
REMARK  status: ('A' for Active; 'I' for Inactive)
REMARK    1  A    between atoms: C_1  and  O_2
REMARK    2  A    between atoms: O_2  and  C_3
REMARK    3  A    between atoms: C_6  and  N_7
REMARK    4  A    between atoms: C_8  and  C_10
REMARK    5  A    between atoms: C_14  and  C_15
REMARK                            x       y       z     vdW  Elec       q    Type
REMARK                         _______ _______ _______ _____ _____    ______ ____
ROOT
ATOM      1  N   UNL     1       1.816   8.278  19.875  0.00  0.00    +0.000 N 
ATOM      2  C   UNL     1       2.040   6.898  19.918  0.00  0.00    +0.000 C 
ATOM      3  O   UNL     1       1.472   6.158  20.714  0.00  0.00    +0.000 OA
ATOM      4  H   UNL     1       2.233   8.776  19.099  0.00  0.00    +0.000 HD
ENDROOT
BRANCH   2   5
ATOM      5  C   UNL     1       2.961   6.360  18.908  0.00  0.00    +0.000 A 
ATOM      6  S   UNL     1       3.709   7.376  17.750  0.00  0.00    +0.000 S 
ATOM      7  C   UNL     1       4.522   6.071  16.981  0.00  0.00    +0.000 A 
ATOM      8  C   UNL     1       5.395   6.159  15.871  0.00  0.00    +0.000 A 
ATOM      9  C   UNL     1       5.940   4.987  15.334  0.00  0.00    +0.000 A 
ATOM     10  C   UNL     1       5.623   3.751  15.889  0.00  0.00    +0.000 A 
ATOM     11  C   UNL     1       4.785   3.676  17.009  0.00  0.00    +0.000 A 
ATOM     12  C   UNL     1       4.225   4.851  17.585  0.00  0.00    +0.000 A 
ATOM     13  C   UNL     1       3.374   5.046  18.737  0.00  0.00    +0.000 A 
ATOM     14 CL   UNL     1       2.940   3.712  19.737  0.00  0.00    +0.000 Cl
BRANCH   9  15
ATOM     15  C   UNL     1       6.828   5.069  14.211  0.00  0.00    +0.000 C 
ATOM     16  N   UNL     1       7.557   5.135  13.308  0.00  0.00    +0.000 NA
ENDBRANCH   9  15
ENDBRANCH   2   5
BRANCH   1  20
ATOM     17  C   UNL     1      -0.646  10.529  22.507  0.00  0.00    +0.000 A 
ATOM     18  C   UNL     1      -0.746  10.708  21.131  0.00  0.00    +0.000 A 
ATOM     19  C   UNL     1       0.036   9.957  20.248  0.00  0.00    +0.000 A 
ATOM     20  C   UNL     1       0.956   9.022  20.724  0.00  0.00    +0.000 A 
ATOM     21  C   UNL     1       1.034   8.821  22.110  0.00  0.00    +0.000 A 
ATOM     22  C   UNL     1       0.245   9.579  23.000  0.00  0.00    +0.000 A 
BRANCH  17  24
ATOM     23  C   UNL     1      -1.261  12.763  23.037  0.00  0.00    +0.000 C 
ATOM     24  O   UNL     1      -1.432  11.369  23.245  0.00  0.00    +0.000 OA
ENDBRANCH  17  24
ENDBRANCH   1  20
TORSDOF 4
ENDMDL
MODEL 4
REMARK VINA RESULT:      -7.4      2.843      9.143
REMARK  Name = 
REMARK  5 active torsions:
REMARK  status: ('A' for Active; 'I' for Inactive)
REMARK    1  A    between atoms: C_1  and  O_2
REMARK    2  A    between atoms: O_2  and  C_3
REMARK    3  A    between atoms: C_6  and  N_7
REMARK    4  A    between atoms: C_8  and  C_10
REMARK    5  A    between atoms: C_14  and  C_15
REMARK                            x       y       z     vdW  Elec       q    Type
REMARK                         _______ _______ _______ _____ _____    ______ ____
ROOT
ATOM      1  N   UNL     1       1.839   8.316  19.962  0.00  0.00    +0.000 N 
ATOM      2  C   UNL     1       2.007   6.928  19.969  0.00  0.00    +0.000 C 
ATOM      3  O   UNL     1       1.393   6.189  20.731  0.00  0.00    +0.000 OA
ATOM      4  H   UNL     1       2.292   8.820  19.210  0.00  0.00    +0.000 HD
ENDROOT
BRANCH   2   5
ATOM      5  C   UNL     1       2.926   6.382  18.961  0.00  0.00    +0.000 A 
ATOM      6  S   UNL     1       3.663   7.387  17.787  0.00  0.00    +0.000 S 
ATOM      7  C   UNL     1       4.479   6.077  17.029  0.00  0.00    +0.000 A 
ATOM      8  C   UNL     1       5.346   6.156  15.915  0.00  0.00    +0.000 A 
ATOM      9  C   UNL     1       5.894   4.979  15.389  0.00  0.00    +0.000 A 
ATOM     10  C   UNL     1       5.586   3.749  15.961  0.00  0.00    +0.000 A 
ATOM     11  C   UNL     1       4.754   3.684  17.086  0.00  0.00    +0.000 A 
ATOM     12  C   UNL     1       4.191   4.863  17.651  0.00  0.00    +0.000 A 
ATOM     13  C   UNL     1       3.345   5.069  18.804  0.00  0.00    +0.000 A 
ATOM     14 CL   UNL     1       2.922   3.745  19.823  0.00  0.00    +0.000 Cl
BRANCH   9  15
ATOM     15  C   UNL     1       6.777   5.052  14.261  0.00  0.00    +0.000 C 
ATOM     16  N   UNL     1       7.489   5.100  13.344  0.00  0.00    +0.000 NA
ENDBRANCH   9  15
ENDBRANCH   2   5
BRANCH   1  20
ATOM     17  C   UNL     1      -0.805  10.552  22.426  0.00  0.00    +0.000 A 
ATOM     18  C   UNL     1       0.077   9.638  22.995  0.00  0.00    +0.000 A 
ATOM     19  C   UNL     1       0.974   8.914  22.203  0.00  0.00    +0.000 A 
ATOM     20  C   UNL     1       0.993   9.070  20.817  0.00  0.00    +0.000 A 
ATOM     21  C   UNL     1       0.124  10.014  20.248  0.00  0.00    +0.000 A 
ATOM     22  C   UNL     1      -0.779  10.744  21.047  0.00  0.00    +0.000 A 
BRANCH  17  24
ATOM     23  C   UNL     1      -1.894  12.536  23.152  0.00  0.00    +0.000 C 
ATOM     24  O   UNL     1      -1.655  11.145  23.316  0.00  0.00    +0.000 OA
ENDBRANCH  17  24
ENDBRANCH   1  20
TORSDOF 4
ENDMDL
MODEL 5
REMARK VINA RESULT:      -7.1      1.201      1.399
REMARK  Name = 
REMARK  5 active torsions:
REMARK  status: ('A' for Active; 'I' for Inactive)
REMARK    1  A    between atoms: C_1  and  O_2
REMARK    2  A    between atoms: O_2  and  C_3
REMARK    3  A    between atoms: C_6  and  N_7
REMARK    4  A    between atoms: C_8  and  C_10
REMARK    5  A    between atoms: C_14  and  C_15
REMARK                            x       y       z     vdW  Elec       q    Type
REMARK                         _______ _______ _______ _____ _____    ______ ____
ROOT
ATOM      1  N   UNL     1       2.084   7.648  18.883  0.00  0.00    +0.000 N 
ATOM      2  C   UNL     1       1.710   8.926  18.457  0.00  0.00    +0.000 C 
ATOM      3  O   UNL     1       2.068   9.400  17.383  0.00  0.00    +0.000 OA
ATOM      4  H   UNL     1       1.631   7.304  19.720  0.00  0.00    +0.000 HD
ENDROOT
BRANCH   2   5
ATOM      5  C   UNL     1       0.805   9.667  19.346  0.00  0.00    +0.000 A 
ATOM      6  S   UNL     1      -0.269  10.855  18.740  0.00  0.00    +0.000 S 
ATOM      7  C   UNL     1      -0.882  11.243  20.298  0.00  0.00    +0.000 A 
ATOM      8  C   UNL     1      -1.880  12.199  20.597  0.00  0.00    +0.000 A 
ATOM      9  C   UNL     1      -2.233  12.427  21.932  0.00  0.00    +0.000 A 
ATOM     10  C   UNL     1      -1.604  11.719  22.951  0.00  0.00    +0.000 A 
ATOM     11  C   UNL     1      -0.641  10.749  22.645  0.00  0.00    +0.000 A 
ATOM     12  C   UNL     1      -0.270  10.486  21.295  0.00  0.00    +0.000 A 
ATOM     13  C   UNL     1       0.653   9.535  20.720  0.00  0.00    +0.000 A 
ATOM     14 CL   UNL     1       1.470   8.394  21.721  0.00  0.00    +0.000 Cl
BRANCH   9  15
ATOM     15  C   UNL     1      -3.247  13.394  22.242  0.00  0.00    +0.000 C 
ATOM     16  N   UNL     1      -4.072  14.169  22.500  0.00  0.00    +0.000 NA
ENDBRANCH   9  15
ENDBRANCH   2   5
BRANCH   1  20
ATOM     17  C   UNL     1       4.481   4.859  16.754  0.00  0.00    +0.000 A 
ATOM     18  C   UNL     1       4.844   6.202  16.801  0.00  0.00    +0.000 A 
ATOM     19  C   UNL     1       4.083   7.129  17.519  0.00  0.00    +0.000 A 
ATOM     20  C   UNL     1       2.924   6.738  18.191  0.00  0.00    +0.000 A 
ATOM     21  C   UNL     1       2.577   5.379  18.168  0.00  0.00    +0.000 A 
ATOM     22  C   UNL     1       3.344   4.445  17.444  0.00  0.00    +0.000 A 
BRANCH  17  24
ATOM     23  C   UNL     1       6.640   4.494  15.830  0.00  0.00    +0.000 C 
ATOM     24  O   UNL     1       5.288   4.083  15.972  0.00  0.00    +0.000 OA
ENDBRANCH  17  24
ENDBRANCH   1  20
TORSDOF 4
ENDMDL
MODEL 6
REMARK VINA RESULT:      -6.9      2.716      9.100
REMARK  Name = 
REMARK  5 active torsions:
REMARK  status: ('A' for Active; 'I' for Inactive)
REMARK    1  A    between atoms: C_1  and  O_2
REMARK    2  A    between atoms: O_2  and  C_3
REMARK    3  A    between atoms: C_6  and  N_7
REMARK    4  A    between atoms: C_8  and  C_10
REMARK    5  A    between atoms: C_14  and  C_15
REMARK                            x       y       z     vdW  Elec       q    Type
REMARK                         _______ _______ _______ _____ _____    ______ ____
ROOT
ATOM      1  N   UNL     1       1.202   9.419  20.808  0.00  0.00    +0.000 N 
ATOM      2  C   UNL     1       1.075   9.094  19.454  0.00  0.00    +0.000 C 
ATOM      3  O   UNL     1       0.215   9.587  18.731  0.00  0.00    +0.000 OA
ATOM      4  H   UNL     1       2.020   9.057  21.281  0.00  0.00    +0.000 HD
ENDROOT
BRANCH   2   5
ATOM      5  C   UNL     1       2.073   8.161  18.915  0.00  0.00    +0.000 A 
ATOM      6  S   UNL     1       3.072   8.587  17.592  0.00  0.00    +0.000 S 
ATOM      7  C   UNL     1       3.855   7.057  17.558  0.00  0.00    +0.000 A 
ATOM      8  C   UNL     1       4.880   6.655  16.670  0.00  0.00    +0.000 A 
ATOM      9  C   UNL     1       5.379   5.349  16.747  0.00  0.00    +0.000 A 
ATOM     10  C   UNL     1       4.868   4.461  17.688  0.00  0.00    +0.000 A 
ATOM     11  C   UNL     1       3.877   4.878  18.586  0.00  0.00    +0.000 A 
ATOM     12  C   UNL     1       3.358   6.203  18.540  0.00  0.00    +0.000 A 
ATOM     13  C   UNL     1       2.377   6.880  19.356  0.00  0.00    +0.000 A 
ATOM     14 CL   UNL     1       1.678   6.088  20.718  0.00  0.00    +0.000 Cl
BRANCH   9  15
ATOM     15  C   UNL     1       6.421   4.935  15.852  0.00  0.00    +0.000 C 
ATOM     16  N   UNL     1       7.273   4.603  15.135  0.00  0.00    +0.000 NA
ENDBRANCH   9  15
ENDBRANCH   2   5
BRANCH   1  20
ATOM     17  C   UNL     1      -1.298  12.153  22.890  0.00  0.00    +0.000 A 
ATOM     18  C   UNL     1      -1.319  10.800  23.213  0.00  0.00    +0.000 A 
ATOM     19  C   UNL     1      -0.484   9.889  22.558  0.00  0.00    +0.000 A 
ATOM     20  C   UNL     1       0.378  10.309  21.545  0.00  0.00    +0.000 A 
ATOM     21  C   UNL     1       0.420  11.678  21.241  0.00  0.00    +0.000 A 
ATOM     22  C   UNL     1      -0.422  12.595  21.902  0.00  0.00    +0.000 A 
BRANCH  17  24
ATOM     23  C   UNL     1      -3.492  12.349  23.784  0.00  0.00    +0.000 C 
ATOM     24  O   UNL     1      -2.204  12.912  23.574  0.00  0.00    +0.000 OA
ENDBRANCH  17  24
ENDBRANCH   1  20
TORSDOF 4
ENDMDL
MODEL 7
REMARK VINA RESULT:      -6.9      2.943      9.031
REMARK  Name = 
REMARK  5 active torsions:
REMARK  status: ('A' for Active; 'I' for Inactive)
REMARK    1  A    between atoms: C_1  and  O_2
REMARK    2  A    between atoms: O_2  and  C_3
REMARK    3  A    between atoms: C_6  and  N_7
REMARK    4  A    between atoms: C_8  and  C_10
REMARK    5  A    between atoms: C_14  and  C_15
REMARK                            x       y       z     vdW  Elec       q    Type
REMARK                         _______ _______ _______ _____ _____    ______ ____
ROOT
ATOM      1  N   UNL     1       1.115   9.467  19.374  0.00  0.00    +0.000 N 
ATOM      2  C   UNL     1       1.552   8.316  20.037  0.00  0.00    +0.000 C 
ATOM      3  O   UNL     1       1.252   8.065  21.200  0.00  0.00    +0.000 OA
ATOM      4  H   UNL     1       1.309   9.514  18.382  0.00  0.00    +0.000 HD
ENDROOT
BRANCH   2   5
ATOM      5  C   UNL     1       2.354   7.375  19.243  0.00  0.00    +0.000 A 
ATOM      6  S   UNL     1       3.253   7.896  17.882  0.00  0.00    +0.000 S 
ATOM      7  C   UNL     1       3.817   6.313  17.521  0.00  0.00    +0.000 A 
ATOM      8  C   UNL     1       4.679   5.947  16.461  0.00  0.00    +0.000 A 
ATOM      9  C   UNL     1       5.005   4.598  16.278  0.00  0.00    +0.000 A 
ATOM     10  C   UNL     1       4.484   3.632  17.132  0.00  0.00    +0.000 A 
ATOM     11  C   UNL     1       3.659   4.007  18.201  0.00  0.00    +0.000 A 
ATOM     12  C   UNL     1       3.319   5.372  18.420  0.00  0.00    +0.000 A 
ATOM     13  C   UNL     1       2.530   6.014  19.446  0.00  0.00    +0.000 A 
ATOM     14 CL   UNL     1       1.881   5.094  20.751  0.00  0.00    +0.000 Cl
BRANCH   9  15
ATOM     15  C   UNL     1       5.881   4.220  15.206  0.00  0.00    +0.000 C 
ATOM     16  N   UNL     1       6.586   3.923  14.332  0.00  0.00    +0.000 NA
ENDBRANCH   9  15
ENDBRANCH   2   5
BRANCH   1  20
ATOM     17  C   UNL     1      -1.400  12.483  20.996  0.00  0.00    +0.000 A 
ATOM     18  C   UNL     1      -0.136  12.263  21.534  0.00  0.00    +0.000 A 
ATOM     19  C   UNL     1       0.717  11.294  20.996  0.00  0.00    +0.000 A 
ATOM     20  C   UNL     1       0.314  10.504  19.918  0.00  0.00    +0.000 A 
ATOM     21  C   UNL     1      -0.949  10.748  19.359  0.00  0.00    +0.000 A 
ATOM     22  C   UNL     1      -1.808  11.725  19.902  0.00  0.00    +0.000 A 
BRANCH  17  24
ATOM     23  C   UNL     1      -3.128  12.950  22.561  0.00  0.00    +0.000 C 
ATOM     24  O   UNL     1      -2.139  13.423  21.657  0.00  0.00    +0.000 OA
ENDBRANCH  17  24
ENDBRANCH   1  20
TORSDOF 4
ENDMDL
MODEL 8
REMARK VINA RESULT:      -6.8      1.202      1.770
REMARK  Name = 
REMARK  5 active torsions:
REMARK  status: ('A' for Active; 'I' for Inactive)
REMARK    1  A    between atoms: C_1  and  O_2
REMARK    2  A    between atoms: O_2  and  C_3
REMARK    3  A    between atoms: C_6  and  N_7
REMARK    4  A    between atoms: C_8  and  C_10
REMARK    5  A    between atoms: C_14  and  C_15
REMARK                            x       y       z     vdW  Elec       q    Type
REMARK                         _______ _______ _______ _____ _____    ______ ____
ROOT
ATOM      1  N   UNL     1       2.227   7.779  19.029  0.00  0.00    +0.000 N 
ATOM      2  C   UNL     1       1.714   8.958  18.479  0.00  0.00    +0.000 C 
ATOM      3  O   UNL     1       1.783   9.217  17.282  0.00  0.00    +0.000 OA
ATOM      4  H   UNL     1       2.004   7.603  20.000  0.00  0.00    +0.000 HD
ENDROOT
BRANCH   2   5
ATOM      5  C   UNL     1       1.026   9.861  19.410  0.00  0.00    +0.000 A 
ATOM      6  S   UNL     1       0.920  11.543  19.109  0.00  0.00    +0.000 S 
ATOM      7  C   UNL     1       0.075  11.856  20.573  0.00  0.00    +0.000 A 
ATOM      8  C   UNL     1      -0.387  13.113  21.028  0.00  0.00    +0.000 A 
ATOM      9  C   UNL     1      -1.019  13.201  22.273  0.00  0.00    +0.000 A 
ATOM     10  C   UNL     1      -1.188  12.061  23.052  0.00  0.00    +0.000 A 
ATOM     11  C   UNL     1      -0.759  10.814  22.580  0.00  0.00    +0.000 A 
ATOM     12  C   UNL     1      -0.124  10.691  21.312  0.00  0.00    +0.000 A 
ATOM     13  C   UNL     1       0.374   9.540  20.593  0.00  0.00    +0.000 A 
ATOM     14 CL   UNL     1       0.159   7.953  21.230  0.00  0.00    +0.000 Cl
BRANCH   9  15
ATOM     15  C   UNL     1      -1.493  14.473  22.739  0.00  0.00    +0.000 C 
ATOM     16  N   UNL     1      -1.884  15.503  23.108  0.00  0.00    +0.000 NA
ENDBRANCH   9  15
ENDBRANCH   2   5
BRANCH   1  20
ATOM     17  C   UNL     1       4.389   4.732  17.004  0.00  0.00    +0.000 A 
ATOM     18  C   UNL     1       3.162   4.445  17.594  0.00  0.00    +0.000 A 
ATOM     19  C   UNL     1       2.423   5.441  18.241  0.00  0.00    +0.000 A 
ATOM     20  C   UNL     1       2.907   6.746  18.332  0.00  0.00    +0.000 A 
ATOM     21  C   UNL     1       4.130   7.040  17.711  0.00  0.00    +0.000 A 
ATOM     22  C   UNL     1       4.874   6.036  17.059  0.00  0.00    +0.000 A 
BRANCH  17  24
ATOM     23  C   UNL     1       5.944   3.904  15.408  0.00  0.00    +0.000 C 
ATOM     24  O   UNL     1       5.018   3.650  16.456  0.00  0.00    +0.000 OA
ENDBRANCH  17  24
ENDBRANCH   1  20
TORSDOF 4
ENDMDL
MODEL 9
REMARK VINA RESULT:      -6.8      2.713      3.238
REMARK  Name = 
REMARK  5 active torsions:
REMARK  status: ('A' for Active; 'I' for Inactive)
REMARK    1  A    between atoms: C_1  and  O_2
REMARK    2  A    between atoms: O_2  and  C_3
REMARK    3  A    between atoms: C_6  and  N_7
REMARK    4  A    between atoms: C_8  and  C_10
REMARK    5  A    between atoms: C_14  and  C_15
REMARK                            x       y       z     vdW  Elec       q    Type
REMARK                         _______ _______ _______ _____ _____    ______ ____
ROOT
ATOM      1  N   UNL     1       1.574   6.912  20.696  0.00  0.00    +0.000 N 
ATOM      2  C   UNL     1       1.582   8.085  19.935  0.00  0.00    +0.000 C 
ATOM      3  O   UNL     1       2.195   8.186  18.877  0.00  0.00    +0.000 OA
ATOM      4  H   UNL     1       0.934   6.890  21.480  0.00  0.00    +0.000 HD
ENDROOT
BRANCH   2   5
ATOM      5  C   UNL     1       0.759   9.191  20.442  0.00  0.00    +0.000 A 
ATOM      6  S   UNL     1       0.712   9.579  22.109  0.00  0.00    +0.000 S 
ATOM      7  C   UNL     1      -0.422  10.851  21.887  0.00  0.00    +0.000 A 
ATOM      8  C   UNL     1      -0.956  11.689  22.893  0.00  0.00    +0.000 A 
ATOM      9  C   UNL     1      -1.912  12.651  22.546  0.00  0.00    +0.000 A 
ATOM     10  C   UNL     1      -2.329  12.777  21.225  0.00  0.00    +0.000 A 
ATOM     11  C   UNL     1      -1.770  11.966  20.229  0.00  0.00    +0.000 A 
ATOM     12  C   UNL     1      -0.787  10.987  20.549  0.00  0.00    +0.000 A 
ATOM     13  C   UNL     1      -0.045  10.063  19.721  0.00  0.00    +0.000 A 
ATOM     14 CL   UNL     1      -0.221  10.091  18.007  0.00  0.00    +0.000 Cl
BRANCH   9  15
ATOM     15  C   UNL     1      -2.455  13.507  23.561  0.00  0.00    +0.000 C 
ATOM     16  N   UNL     1      -2.885  14.205  24.385  0.00  0.00    +0.000 NA
ENDBRANCH   9  15
ENDBRANCH   2   5
BRANCH   1  20
ATOM     17  C   UNL     1       3.517   3.248  19.768  0.00  0.00    +0.000 A 
ATOM     18  C   UNL     1       4.116   4.461  19.442  0.00  0.00    +0.000 A 
ATOM     19  C   UNL     1       3.505   5.677  19.764  0.00  0.00    +0.000 A 
ATOM     20  C   UNL     1       2.265   5.708  20.402  0.00  0.00    +0.000 A 
ATOM     21  C   UNL     1       1.676   4.485  20.757  0.00  0.00    +0.000 A 
ATOM     22  C   UNL     1       2.292   3.260  20.432  0.00  0.00    +0.000 A 
BRANCH  17  24
ATOM     23  C   UNL     1       3.583   1.338  18.355  0.00  0.00    +0.000 C 
ATOM     24  O   UNL     1       4.204   2.146  19.345  0.00  0.00    +0.000 OA
ENDBRANCH  17  24
ENDBRANCH   1  20
TORSDOF 4
ENDMDL
