MODEL 1
REMARK VINA RESULT:      -7.8      0.000      0.000
REMARK  Name = 
REMARK  11 active torsions:
REMARK  status: ('A' for Active; 'I' for Inactive)
REMARK    1  A    between atoms: C_1  and  C_2
REMARK    2  A    between atoms: C_2  and  N_3
REMARK    3  A    between atoms: C_5  and  C_6
REMARK    4  A    between atoms: C_7  and  C_8
REMARK    5  A    between atoms: C_10  and  C_11
REMARK    6  A    between atoms: N_13  and  C_14
REMARK    7  A    between atoms: C_14  and  C_15
REMARK    8  A    between atoms: C_15  and  N_16
REMARK    9  A    between atoms: N_16  and  C_20
REMARK   10  A    between atoms: C_17  and  C_18
REMARK   11  A    between atoms: C_28  and  C_29
REMARK                            x       y       z     vdW  Elec       q    Type
REMARK                         _______ _______ _______ _____ _____    ______ ____
ROOT
ATOM      1  C   UNL     1       1.815   8.910  18.197  0.00  0.00    +0.000 C 
ATOM      2  O   UNL     1       2.544   9.375  17.326  0.00  0.00    +0.000 OA
ATOM      3  N   UNL     1       2.117   7.749  18.872  0.00  0.00    +0.000 N 
ATOM      4  H   UNL     1       1.484   7.440  19.603  0.00  0.00    +0.000 HD
ENDROOT
BRANCH   1   7
ATOM      5  C   UNL     1      -1.459  10.461  18.449  0.00  0.00    +0.000 A 
ATOM      6  C   UNL     1      -0.463   9.927  17.673  0.00  0.00    +0.000 A 
ATOM      7  C   UNL     1       0.555   9.549  18.570  0.00  0.00    +0.000 A 
ATOM      8  N   UNL     1       0.214   9.849  19.835  0.00  0.00    +0.000 NA
ATOM      9  O   UNL     1      -1.034  10.458  19.746  0.00  0.00    +0.000 OA
BRANCH   5  14
ATOM     10  N   UNL     1      -4.738  11.912  17.825  0.00  0.00    +0.000 N 
ATOM     11  N   UNL     1      -4.599  11.282  16.642  0.00  0.00    +0.000 NA
ATOM     12  C   UNL     1      -3.405  10.687  16.720  0.00  0.00    +0.000 A 
ATOM     13  C   UNL     1      -2.940   9.821  15.606  0.00  0.00    +0.000 C 
ATOM     14  C   UNL     1      -2.777  10.952  17.969  0.00  0.00    +0.000 A 
ATOM     15  C   UNL     1      -3.650  11.771  18.653  0.00  0.00    +0.000 A 
ATOM     16  C   UNL     1      -3.531  12.468  19.959  0.00  0.00    +0.000 C 
BRANCH  10  18
ATOM     17  C   UNL     1      -7.051  11.704  18.666  0.00  0.00    +0.000 C 
ATOM     18  C   UNL     1      -5.980  12.615  18.095  0.00  0.00    +0.000 C 
ENDBRANCH  10  18
ENDBRANCH   5  14
ENDBRANCH   1   7
BRANCH   3  19
ATOM     19  C   UNL     1       3.305   6.982  18.551  0.00  0.00    +0.000 C 
BRANCH  19  20
ATOM     20  C   UNL     1       2.987   5.669  17.822  0.00  0.00    +0.000 C 
BRANCH  20  21
ATOM     21  N   UNL     1       3.743   4.524  18.361  0.00  0.00    +0.000 N 
ATOM     22  C   UNL     1       3.097   3.788  19.347  0.00  0.00    +0.000 C 
ATOM     23  C   UNL     1       3.795   2.671  20.077  0.00  0.00    +0.000 C 
ATOM     24  O   UNL     1       1.926   4.035  19.661  0.00  0.00    +0.000 OA
BRANCH  21  25
ATOM     25  C   UNL     1       5.052   4.239  17.715  0.00  0.00    +0.000 C 
ATOM     26  C   UNL     1       6.256   4.837  18.458  0.00  0.00    +0.000 C 
ATOM     27  C   UNL     1       7.551   4.649  17.680  0.00  0.00    +0.000 C 
ATOM     28  O   UNL     1       7.404   5.088  16.332  0.00  0.00    +0.000 OA
ATOM     29  C   UNL     1       6.443   4.310  15.621  0.00  0.00    +0.000 C 
ATOM     30  C   UNL     1       5.055   4.526  16.208  0.00  0.00    +0.000 C 
ENDBRANCH  21  25
ENDBRANCH  20  21
ENDBRANCH  19  20
ENDBRANCH   3  19
TORSDOF 7
ENDMDL
MODEL 2
REMARK VINA RESULT:      -7.7      2.537      3.534
REMARK  Name = 
REMARK  11 active torsions:
REMARK  status: ('A' for Active; 'I' for Inactive)
REMARK    1  A    between atoms: C_1  and  C_2
REMARK    2  A    between atoms: C_2  and  N_3
REMARK    3  A    between atoms: C_5  and  C_6
REMARK    4  A    between atoms: C_7  and  C_8
REMARK    5  A    between atoms: C_10  and  C_11
REMARK    6  A    between atoms: N_13  and  C_14
REMARK    7  A    between atoms: C_14  and  C_15
REMARK    8  A    between atoms: C_15  and  N_16
REMARK    9  A    between atoms: N_16  and  C_20
REMARK   10  A    between atoms: C_17  and  C_18
REMARK   11  A    between atoms: C_28  and  C_29
REMARK                            x       y       z     vdW  Elec       q    Type
REMARK                         _______ _______ _______ _____ _____    ______ ____
ROOT
ATOM      1  C   UNL     1       2.025   8.869  18.090  0.00  0.00    +0.000 C 
ATOM      2  O   UNL     1       2.634   9.336  17.132  0.00  0.00    +0.000 OA
ATOM      3  N   UNL     1       2.352   7.657  18.655  0.00  0.00    +0.000 N 
ATOM      4  H   UNL     1       1.826   7.346  19.466  0.00  0.00    +0.000 HD
ENDROOT
BRANCH   1   7
ATOM      5  C   UNL     1      -0.382  10.679  20.120  0.00  0.00    +0.000 A 
ATOM      6  C   UNL     1       0.861  10.116  19.984  0.00  0.00    +0.000 A 
ATOM      7  C   UNL     1       0.886   9.560  18.691  0.00  0.00    +0.000 A 
ATOM      8  N   UNL     1      -0.288   9.752  18.064  0.00  0.00    +0.000 NA
ATOM      9  O   UNL     1      -1.092  10.419  18.983  0.00  0.00    +0.000 OA
BRANCH   5  14
ATOM     10  N   UNL     1      -1.673  13.007  22.602  0.00  0.00    +0.000 N 
ATOM     11  N   UNL     1      -1.399  11.990  23.443  0.00  0.00    +0.000 NA
ATOM     12  C   UNL     1      -0.905  11.030  22.655  0.00  0.00    +0.000 A 
ATOM     13  C   UNL     1      -0.413   9.765  23.258  0.00  0.00    +0.000 C 
ATOM     14  C   UNL     1      -0.875  11.444  21.295  0.00  0.00    +0.000 A 
ATOM     15  C   UNL     1      -1.404  12.718  21.286  0.00  0.00    +0.000 A 
ATOM     16  C   UNL     1      -1.730  13.642  20.170  0.00  0.00    +0.000 C 
BRANCH  10  18
ATOM     17  C   UNL     1      -1.351  14.732  24.340  0.00  0.00    +0.000 C 
ATOM     18  C   UNL     1      -2.172  14.252  23.158  0.00  0.00    +0.000 C 
ENDBRANCH  10  18
ENDBRANCH   5  14
ENDBRANCH   1   7
BRANCH   3  19
ATOM     19  C   UNL     1       3.420   6.840  18.112  0.00  0.00    +0.000 C 
BRANCH  19  20
ATOM     20  C   UNL     1       2.945   5.441  17.694  0.00  0.00    +0.000 C 
BRANCH  20  21
ATOM     21  N   UNL     1       3.757   4.366  18.291  0.00  0.00    +0.000 N 
ATOM     22  C   UNL     1       3.159   3.668  19.332  0.00  0.00    +0.000 C 
ATOM     23  C   UNL     1       3.915   2.629  20.118  0.00  0.00    +0.000 C 
ATOM     24  O   UNL     1       1.983   3.885  19.651  0.00  0.00    +0.000 OA
BRANCH  21  25
ATOM     25  C   UNL     1       5.068   4.095  17.640  0.00  0.00    +0.000 C 
ATOM     26  C   UNL     1       6.258   4.777  18.331  0.00  0.00    +0.000 C 
ATOM     27  C   UNL     1       7.548   4.596  17.543  0.00  0.00    +0.000 C 
ATOM     28  O   UNL     1       7.366   4.954  16.176  0.00  0.00    +0.000 OA
ATOM     29  C   UNL     1       6.426   4.104  15.523  0.00  0.00    +0.000 C 
ATOM     30  C   UNL     1       5.039   4.300  16.120  0.00  0.00    +0.000 C 
ENDBRANCH  21  25
ENDBRANCH  20  21
ENDBRANCH  19  20
ENDBRANCH   3  19
TORSDOF 7
ENDMDL
MODEL 3
REMARK VINA RESULT:      -7.6      1.092      1.391
REMARK  Name = 
REMARK  11 active torsions:
REMARK  status: ('A' for Active; 'I' for Inactive)
REMARK    1  A    between atoms: C_1  and  C_2
REMARK    2  A    between atoms: C_2  and  N_3
REMARK    3  A    between atoms: C_5  and  C_6
REMARK    4  A    between atoms: C_7  and  C_8
REMARK    5  A    between atoms: C_10  and  C_11
REMARK    6  A    between atoms: N_13  and  C_14
REMARK    7  A    between atoms: C_14  and  C_15
REMARK    8  A    between atoms: C_15  and  N_16
REMARK    9  A    between atoms: N_16  and  C_20
REMARK   10  A    between atoms: C_17  and  C_18
REMARK   11  A    between atoms: C_28  and  C_29
REMARK                            x       y       z     vdW  Elec       q    Type
REMARK                         _______ _______ _______ _____ _____    ______ ____
ROOT
ATOM      1  C   UNL     1       1.303   9.201  18.951  0.00  0.00    +0.000 C 
ATOM      2  O   UNL     1       1.540   8.821  20.094  0.00  0.00    +0.000 OA
ATOM      3  N   UNL     1       1.969   8.705  17.853  0.00  0.00    +0.000 N 
ATOM      4  H   UNL     1       1.699   9.041  16.934  0.00  0.00    +0.000 HD
ENDROOT
BRANCH   1   7
ATOM      5  C   UNL     1      -1.609  11.225  18.169  0.00  0.00    +0.000 A 
ATOM      6  C   UNL     1      -1.034   9.988  18.306  0.00  0.00    +0.000 A 
ATOM      7  C   UNL     1       0.303  10.230  18.673  0.00  0.00    +0.000 A 
ATOM      8  N   UNL     1       0.550  11.550  18.742  0.00  0.00    +0.000 NA
ATOM      9  O   UNL     1      -0.645  12.167  18.385  0.00  0.00    +0.000 OA
BRANCH   5  14
ATOM     10  N   UNL     1      -5.148  12.052  17.968  0.00  0.00    +0.000 N 
ATOM     11  N   UNL     1      -4.995  11.631  16.696  0.00  0.00    +0.000 NA
ATOM     12  C   UNL     1      -3.707  11.285  16.613  0.00  0.00    +0.000 A 
ATOM     13  C   UNL     1      -3.185  10.691  15.355  0.00  0.00    +0.000 C 
ATOM     14  C   UNL     1      -3.034  11.500  17.848  0.00  0.00    +0.000 A 
ATOM     15  C   UNL     1      -3.984  12.024  18.698  0.00  0.00    +0.000 A 
ATOM     16  C   UNL     1      -3.886  12.546  20.085  0.00  0.00    +0.000 C 
BRANCH  10  18
ATOM     17  C   UNL     1      -7.164  11.355  19.211  0.00  0.00    +0.000 C 
ATOM     18  C   UNL     1      -6.473  12.445  18.414  0.00  0.00    +0.000 C 
ENDBRANCH  10  18
ENDBRANCH   5  14
ENDBRANCH   1   7
BRANCH   3  19
ATOM     19  C   UNL     1       3.030   7.727  17.999  0.00  0.00    +0.000 C 
BRANCH  19  20
ATOM     20  C   UNL     1       2.521   6.280  17.920  0.00  0.00    +0.000 C 
BRANCH  20  21
ATOM     21  N   UNL     1       3.591   5.291  18.140  0.00  0.00    +0.000 N 
ATOM     22  C   UNL     1       3.287   4.263  19.025  0.00  0.00    +0.000 C 
ATOM     23  C   UNL     1       4.325   3.254  19.442  0.00  0.00    +0.000 C 
ATOM     24  O   UNL     1       2.152   4.151  19.505  0.00  0.00    +0.000 OA
BRANCH  21  25
ATOM     25  C   UNL     1       4.817   5.457  17.315  0.00  0.00    +0.000 C 
ATOM     26  C   UNL     1       5.059   4.309  16.322  0.00  0.00    +0.000 C 
ATOM     27  C   UNL     1       6.398   4.449  15.612  0.00  0.00    +0.000 C 
ATOM     28  O   UNL     1       7.452   4.660  16.548  0.00  0.00    +0.000 OA
ATOM     29  C   UNL     1       7.295   5.885  17.259  0.00  0.00    +0.000 C 
ATOM     30  C   UNL     1       6.056   5.825  18.142  0.00  0.00    +0.000 C 
ENDBRANCH  21  25
ENDBRANCH  20  21
ENDBRANCH  19  20
ENDBRANCH   3  19
TORSDOF 7
ENDMDL
MODEL 4
REMARK VINA RESULT:      -7.6      0.961      1.832
REMARK  Name = 
REMARK  11 active torsions:
REMARK  status: ('A' for Active; 'I' for Inactive)
REMARK    1  A    between atoms: C_1  and  C_2
REMARK    2  A    between atoms: C_2  and  N_3
REMARK    3  A    between atoms: C_5  and  C_6
REMARK    4  A    between atoms: C_7  and  C_8
REMARK    5  A    between atoms: C_10  and  C_11
REMARK    6  A    between atoms: N_13  and  C_14
REMARK    7  A    between atoms: C_14  and  C_15
REMARK    8  A    between atoms: C_15  and  N_16
REMARK    9  A    between atoms: N_16  and  C_20
REMARK   10  A    between atoms: C_17  and  C_18
REMARK   11  A    between atoms: C_28  and  C_29
REMARK                            x       y       z     vdW  Elec       q    Type
REMARK                         _______ _______ _______ _____ _____    ______ ____
ROOT
ATOM      1  C   UNL     1       1.920   8.789  18.177  0.00  0.00    +0.000 C 
ATOM      2  O   UNL     1       2.548   9.079  17.163  0.00  0.00    +0.000 OA
ATOM      3  N   UNL     1       2.092   7.593  18.836  0.00  0.00    +0.000 N 
ATOM      4  H   UNL     1       1.562   7.432  19.687  0.00  0.00    +0.000 HD
ENDROOT
BRANCH   1   7
ATOM      5  C   UNL     1      -0.956  10.819  19.070  0.00  0.00    +0.000 A 
ATOM      6  C   UNL     1      -0.353   9.944  18.204  0.00  0.00    +0.000 A 
ATOM      7  C   UNL     1       0.920   9.689  18.749  0.00  0.00    +0.000 A 
ATOM      8  N   UNL     1       1.103  10.383  19.886  0.00  0.00    +0.000 NA
ATOM      9  O   UNL     1      -0.064  11.121  20.058  0.00  0.00    +0.000 OA
BRANCH   5  14
ATOM     10  N   UNL     1      -4.388  11.760  18.308  0.00  0.00    +0.000 N 
ATOM     11  N   UNL     1      -4.221  12.563  19.377  0.00  0.00    +0.000 NA
ATOM     12  C   UNL     1      -2.971  12.322  19.783  0.00  0.00    +0.000 A 
ATOM     13  C   UNL     1      -2.401  13.099  20.913  0.00  0.00    +0.000 C 
ATOM     14  C   UNL     1      -2.342  11.345  18.962  0.00  0.00    +0.000 A 
ATOM     15  C   UNL     1      -3.293  10.978  18.033  0.00  0.00    +0.000 A 
ATOM     16  C   UNL     1      -3.286   9.938  16.972  0.00  0.00    +0.000 C 
BRANCH  10  18
ATOM     17  C   UNL     1      -6.767  11.096  18.287  0.00  0.00    +0.000 C 
ATOM     18  C   UNL     1      -5.642  11.828  17.578  0.00  0.00    +0.000 C 
ENDBRANCH  10  18
ENDBRANCH   5  14
ENDBRANCH   1   7
BRANCH   3  19
ATOM     19  C   UNL     1       3.005   6.585  18.334  0.00  0.00    +0.000 C 
BRANCH  19  20
ATOM     20  C   UNL     1       3.506   5.635  19.432  0.00  0.00    +0.000 C 
BRANCH  20  21
ATOM     21  N   UNL     1       3.994   4.353  18.893  0.00  0.00    +0.000 N 
ATOM     22  C   UNL     1       3.055   3.330  18.835  0.00  0.00    +0.000 C 
ATOM     23  C   UNL     1       3.442   1.933  18.426  0.00  0.00    +0.000 C 
ATOM     24  O   UNL     1       1.871   3.535  19.126  0.00  0.00    +0.000 OA
BRANCH  21  25
ATOM     25  C   UNL     1       5.392   4.344  18.385  0.00  0.00    +0.000 C 
ATOM     26  C   UNL     1       6.332   5.300  19.135  0.00  0.00    +0.000 C 
ATOM     27  C   UNL     1       7.707   5.367  18.484  0.00  0.00    +0.000 C 
ATOM     28  O   UNL     1       7.597   5.614  17.085  0.00  0.00    +0.000 OA
ATOM     29  C   UNL     1       6.932   4.550  16.407  0.00  0.00    +0.000 C 
ATOM     30  C   UNL     1       5.480   4.467  16.859  0.00  0.00    +0.000 C 
ENDBRANCH  21  25
ENDBRANCH  20  21
ENDBRANCH  19  20
ENDBRANCH   3  19
TORSDOF 7
ENDMDL
MODEL 5
REMARK VINA RESULT:      -7.6      1.125      1.319
REMARK  Name = 
REMARK  11 active torsions:
REMARK  status: ('A' for Active; 'I' for Inactive)
REMARK    1  A    between atoms: C_1  and  C_2
REMARK    2  A    between atoms: C_2  and  N_3
REMARK    3  A    between atoms: C_5  and  C_6
REMARK    4  A    between atoms: C_7  and  C_8
REMARK    5  A    between atoms: C_10  and  C_11
REMARK    6  A    between atoms: N_13  and  C_14
REMARK    7  A    between atoms: C_14  and  C_15
REMARK    8  A    between atoms: C_15  and  N_16
REMARK    9  A    between atoms: N_16  and  C_20
REMARK   10  A    between atoms: C_17  and  C_18
REMARK   11  A    between atoms: C_28  and  C_29
REMARK                            x       y       z     vdW  Elec       q    Type
REMARK                         _______ _______ _______ _____ _____    ______ ____
ROOT
ATOM      1  C   UNL     1       1.841   9.029  18.226  0.00  0.00    +0.000 C 
ATOM      2  O   UNL     1       2.343   9.464  17.194  0.00  0.00    +0.000 OA
ATOM      3  N   UNL     1       2.228   7.834  18.791  0.00  0.00    +0.000 N 
ATOM      4  H   UNL     1       1.793   7.551  19.663  0.00  0.00    +0.000 HD
ENDROOT
BRANCH   1   7
ATOM      5  C   UNL     1      -1.111  10.827  19.341  0.00  0.00    +0.000 A 
ATOM      6  C   UNL     1      -0.382  10.272  18.320  0.00  0.00    +0.000 A 
ATOM      7  C   UNL     1       0.773   9.742  18.925  0.00  0.00    +0.000 A 
ATOM      8  N   UNL     1       0.770   9.971  20.250  0.00  0.00    +0.000 NA
ATOM      9  O   UNL     1      -0.397  10.688  20.496  0.00  0.00    +0.000 OA
BRANCH   5  14
ATOM     10  N   UNL     1      -4.242  12.670  19.558  0.00  0.00    +0.000 N 
ATOM     11  N   UNL     1      -4.535  11.958  18.452  0.00  0.00    +0.000 NA
ATOM     12  C   UNL     1      -3.448  11.212  18.238  0.00  0.00    +0.000 A 
ATOM     13  C   UNL     1      -3.439  10.226  17.126  0.00  0.00    +0.000 C 
ATOM     14  C   UNL     1      -2.448  11.463  19.219  0.00  0.00    +0.000 A 
ATOM     15  C   UNL     1      -2.979  12.432  20.044  0.00  0.00    +0.000 A 
ATOM     16  C   UNL     1      -2.395  13.183  21.185  0.00  0.00    +0.000 C 
BRANCH  10  18
ATOM     17  C   UNL     1      -6.168  12.842  21.093  0.00  0.00    +0.000 C 
ATOM     18  C   UNL     1      -5.258  13.550  20.107  0.00  0.00    +0.000 C 
ENDBRANCH  10  18
ENDBRANCH   5  14
ENDBRANCH   1   7
BRANCH   3  19
ATOM     19  C   UNL     1       3.231   6.998  18.161  0.00  0.00    +0.000 C 
BRANCH  19  20
ATOM     20  C   UNL     1       3.675   5.827  19.050  0.00  0.00    +0.000 C 
BRANCH  20  21
ATOM     21  N   UNL     1       3.784   4.560  18.306  0.00  0.00    +0.000 N 
ATOM     22  C   UNL     1       2.612   3.819  18.207  0.00  0.00    +0.000 C 
ATOM     23  C   UNL     1       2.602   2.447  17.586  0.00  0.00    +0.000 C 
ATOM     24  O   UNL     1       1.540   4.263  18.634  0.00  0.00    +0.000 OA
BRANCH  21  25
ATOM     25  C   UNL     1       5.100   4.284  17.670  0.00  0.00    +0.000 C 
ATOM     26  C   UNL     1       6.300   4.812  18.470  0.00  0.00    +0.000 C 
ATOM     27  C   UNL     1       7.607   4.640  17.707  0.00  0.00    +0.000 C 
ATOM     28  O   UNL     1       7.497   5.158  16.384  0.00  0.00    +0.000 OA
ATOM     29  C   UNL     1       6.536   4.443  15.611  0.00  0.00    +0.000 C 
ATOM     30  C   UNL     1       5.140   4.656  16.182  0.00  0.00    +0.000 C 
ENDBRANCH  21  25
ENDBRANCH  20  21
ENDBRANCH  19  20
ENDBRANCH   3  19
TORSDOF 7
ENDMDL
MODEL 6
REMARK VINA RESULT:      -7.5      1.524      2.843
REMARK  Name = 
REMARK  11 active torsions:
REMARK  status: ('A' for Active; 'I' for Inactive)
REMARK    1  A    between atoms: C_1  and  C_2
REMARK    2  A    between atoms: C_2  and  N_3
REMARK    3  A    between atoms: C_5  and  C_6
REMARK    4  A    between atoms: C_7  and  C_8
REMARK    5  A    between atoms: C_10  and  C_11
REMARK    6  A    between atoms: N_13  and  C_14
REMARK    7  A    between atoms: C_14  and  C_15
REMARK    8  A    between atoms: C_15  and  N_16
REMARK    9  A    between atoms: N_16  and  C_20
REMARK   10  A    between atoms: C_17  and  C_18
REMARK   11  A    between atoms: C_28  and  C_29
REMARK                            x       y       z     vdW  Elec       q    Type
REMARK                         _______ _______ _______ _____ _____    ______ ____
ROOT
ATOM      1  C   UNL     1       1.071   9.214  19.752  0.00  0.00    +0.000 C 
ATOM      2  O   UNL     1       1.358   8.997  20.926  0.00  0.00    +0.000 OA
ATOM      3  N   UNL     1       1.633   8.510  18.711  0.00  0.00    +0.000 N 
ATOM      4  H   UNL     1       1.325   8.720  17.767  0.00  0.00    +0.000 HD
ENDROOT
BRANCH   1   7
ATOM      5  C   UNL     1      -1.709  11.278  18.657  0.00  0.00    +0.000 A 
ATOM      6  C   UNL     1      -1.166  10.033  18.845  0.00  0.00    +0.000 A 
ATOM      7  C   UNL     1       0.121  10.257  19.370  0.00  0.00    +0.000 A 
ATOM      8  N   UNL     1       0.370  11.573  19.485  0.00  0.00    +0.000 NA
ATOM      9  O   UNL     1      -0.769  12.207  18.997  0.00  0.00    +0.000 OA
BRANCH   5  14
ATOM     10  N   UNL     1      -5.188  12.157  18.046  0.00  0.00    +0.000 N 
ATOM     11  N   UNL     1      -4.898  11.722  16.804  0.00  0.00    +0.000 NA
ATOM     12  C   UNL     1      -3.614  11.356  16.871  0.00  0.00    +0.000 A 
ATOM     13  C   UNL     1      -2.962  10.743  15.685  0.00  0.00    +0.000 C 
ATOM     14  C   UNL     1      -3.083  11.571  18.173  0.00  0.00    +0.000 A 
ATOM     15  C   UNL     1      -4.116  12.117  18.905  0.00  0.00    +0.000 A 
ATOM     16  C   UNL     1      -4.169  12.650  20.290  0.00  0.00    +0.000 C 
BRANCH  10  18
ATOM     17  C   UNL     1      -7.316  11.538  19.135  0.00  0.00    +0.000 C 
ATOM     18  C   UNL     1      -6.549  12.574  18.335  0.00  0.00    +0.000 C 
ENDBRANCH  10  18
ENDBRANCH   5  14
ENDBRANCH   1   7
BRANCH   3  19
ATOM     19  C   UNL     1       2.639   7.493  18.951  0.00  0.00    +0.000 C 
BRANCH  19  20
ATOM     20  C   UNL     1       3.496   7.200  17.711  0.00  0.00    +0.000 C 
BRANCH  20  21
ATOM     21  N   UNL     1       3.758   5.761  17.530  0.00  0.00    +0.000 N 
ATOM     22  C   UNL     1       4.746   5.442  16.607  0.00  0.00    +0.000 C 
ATOM     23  C   UNL     1       5.033   4.012  16.227  0.00  0.00    +0.000 C 
ATOM     24  O   UNL     1       5.417   6.326  16.060  0.00  0.00    +0.000 OA
BRANCH  21  25
ATOM     25  C   UNL     1       3.011   4.841  18.428  0.00  0.00    +0.000 C 
ATOM     26  C   UNL     1       3.911   3.982  19.329  0.00  0.00    +0.000 C 
ATOM     27  C   UNL     1       3.109   2.955  20.115  0.00  0.00    +0.000 C 
ATOM     28  O   UNL     1       2.246   2.215  19.256  0.00  0.00    +0.000 OA
ATOM     29  C   UNL     1       1.261   3.047  18.647  0.00  0.00    +0.000 C 
ATOM     30  C   UNL     1       1.924   4.039  17.700  0.00  0.00    +0.000 C 
ENDBRANCH  21  25
ENDBRANCH  20  21
ENDBRANCH  19  20
ENDBRANCH   3  19
TORSDOF 7
ENDMDL
MODEL 7
REMARK VINA RESULT:      -7.5      2.682      3.465
REMARK  Name = 
REMARK  11 active torsions:
REMARK  status: ('A' for Active; 'I' for Inactive)
REMARK    1  A    between atoms: C_1  and  C_2
REMARK    2  A    between atoms: C_2  and  N_3
REMARK    3  A    between atoms: C_5  and  C_6
REMARK    4  A    between atoms: C_7  and  C_8
REMARK    5  A    between atoms: C_10  and  C_11
REMARK    6  A    between atoms: N_13  and  C_14
REMARK    7  A    between atoms: C_14  and  C_15
REMARK    8  A    between atoms: C_15  and  N_16
REMARK    9  A    between atoms: N_16  and  C_20
REMARK   10  A    between atoms: C_17  and  C_18
REMARK   11  A    between atoms: C_28  and  C_29
REMARK                            x       y       z     vdW  Elec       q    Type
REMARK                         _______ _______ _______ _____ _____    ______ ____
ROOT
ATOM      1  C   UNL     1       1.917   9.006  18.275  0.00  0.00    +0.000 C 
ATOM      2  O   UNL     1       2.309   9.124  17.118  0.00  0.00    +0.000 OA
ATOM      3  N   UNL     1       2.130   7.866  19.016  0.00  0.00    +0.000 N 
ATOM      4  H   UNL     1       1.806   7.849  19.978  0.00  0.00    +0.000 HD
ENDROOT
BRANCH   1   7
ATOM      5  C   UNL     1      -0.170  11.135  20.350  0.00  0.00    +0.000 A 
ATOM      6  C   UNL     1       0.277   9.881  20.019  0.00  0.00    +0.000 A 
ATOM      7  C   UNL     1       1.172  10.068  18.949  0.00  0.00    +0.000 A 
ATOM      8  N   UNL     1       1.262  11.369  18.621  0.00  0.00    +0.000 NA
ATOM      9  O   UNL     1       0.386  12.027  19.479  0.00  0.00    +0.000 OA
BRANCH   5  14
ATOM     10  N   UNL     1      -2.636  12.394  22.712  0.00  0.00    +0.000 N 
ATOM     11  N   UNL     1      -2.091  11.457  23.513  0.00  0.00    +0.000 NA
ATOM     12  C   UNL     1      -1.141  10.890  22.763  0.00  0.00    +0.000 A 
ATOM     13  C   UNL     1      -0.263   9.847  23.353  0.00  0.00    +0.000 C 
ATOM     14  C   UNL     1      -1.092  11.471  21.465  0.00  0.00    +0.000 A 
ATOM     15  C   UNL     1      -2.091  12.422  21.451  0.00  0.00    +0.000 A 
ATOM     16  C   UNL     1      -2.607  13.294  20.365  0.00  0.00    +0.000 C 
BRANCH  10  18
ATOM     17  C   UNL     1      -4.483  12.569  24.342  0.00  0.00    +0.000 C 
ATOM     18  C   UNL     1      -3.675  13.252  23.254  0.00  0.00    +0.000 C 
ENDBRANCH  10  18
ENDBRANCH   5  14
ENDBRANCH   1   7
BRANCH   3  19
ATOM     19  C   UNL     1       2.799   6.714  18.443  0.00  0.00    +0.000 C 
BRANCH  19  20
ATOM     20  C   UNL     1       2.515   5.416  19.214  0.00  0.00    +0.000 C 
BRANCH  20  21
ATOM     21  N   UNL     1       3.644   4.470  19.164  0.00  0.00    +0.000 N 
ATOM     22  C   UNL     1       3.430   3.246  19.785  0.00  0.00    +0.000 C 
ATOM     23  C   UNL     1       4.534   2.231  19.922  0.00  0.00    +0.000 C 
ATOM     24  O   UNL     1       2.322   2.954  20.252  0.00  0.00    +0.000 OA
BRANCH  21  25
ATOM     25  C   UNL     1       4.827   4.901  18.371  0.00  0.00    +0.000 C 
ATOM     26  C   UNL     1       5.097   4.031  17.134  0.00  0.00    +0.000 C 
ATOM     27  C   UNL     1       6.399   4.418  16.445  0.00  0.00    +0.000 C 
ATOM     28  O   UNL     1       7.473   4.476  17.380  0.00  0.00    +0.000 OA
ATOM     29  C   UNL     1       7.271   5.492  18.360  0.00  0.00    +0.000 C 
ATOM     30  C   UNL     1       6.072   5.149  19.233  0.00  0.00    +0.000 C 
ENDBRANCH  21  25
ENDBRANCH  20  21
ENDBRANCH  19  20
ENDBRANCH   3  19
TORSDOF 7
ENDMDL
MODEL 8
REMARK VINA RESULT:      -7.5      1.384      3.156
REMARK  Name = 
REMARK  11 active torsions:
REMARK  status: ('A' for Active; 'I' for Inactive)
REMARK    1  A    between atoms: C_1  and  C_2
REMARK    2  A    between atoms: C_2  and  N_3
REMARK    3  A    between atoms: C_5  and  C_6
REMARK    4  A    between atoms: C_7  and  C_8
REMARK    5  A    between atoms: C_10  and  C_11
REMARK    6  A    between atoms: N_13  and  C_14
REMARK    7  A    between atoms: C_14  and  C_15
REMARK    8  A    between atoms: C_15  and  N_16
REMARK    9  A    between atoms: N_16  and  C_20
REMARK   10  A    between atoms: C_17  and  C_18
REMARK   11  A    between atoms: C_28  and  C_29
REMARK                            x       y       z     vdW  Elec       q    Type
REMARK                         _______ _______ _______ _____ _____    ______ ____
ROOT
ATOM      1  C   UNL     1       1.356   9.441  18.316  0.00  0.00    +0.000 C 
ATOM      2  O   UNL     1       2.137   9.431  17.369  0.00  0.00    +0.000 OA
ATOM      3  N   UNL     1       1.435   8.534  19.349  0.00  0.00    +0.000 N 
ATOM      4  H   UNL     1       0.776   8.621  20.116  0.00  0.00    +0.000 HD
ENDROOT
BRANCH   1   7
ATOM      5  C   UNL     1      -1.740  11.338  18.279  0.00  0.00    +0.000 A 
ATOM      6  C   UNL     1      -1.060  10.183  17.989  0.00  0.00    +0.000 A 
ATOM      7  C   UNL     1       0.265  10.409  18.406  0.00  0.00    +0.000 A 
ATOM      8  N   UNL     1       0.405  11.647  18.913  0.00  0.00    +0.000 NA
ATOM      9  O   UNL     1      -0.850  12.238  18.792  0.00  0.00    +0.000 OA
BRANCH   5  14
ATOM     10  N   UNL     1      -5.305  12.066  18.378  0.00  0.00    +0.000 N 
ATOM     11  N   UNL     1      -5.246  11.658  17.094  0.00  0.00    +0.000 NA
ATOM     12  C   UNL     1      -3.960  11.349  16.902  0.00  0.00    +0.000 A 
ATOM     13  C   UNL     1      -3.528  10.779  15.600  0.00  0.00    +0.000 C 
ATOM     14  C   UNL     1      -3.194  11.574  18.079  0.00  0.00    +0.000 A 
ATOM     15  C   UNL     1      -4.085  12.065  19.010  0.00  0.00    +0.000 A 
ATOM     16  C   UNL     1      -3.887  12.580  20.389  0.00  0.00    +0.000 C 
BRANCH  10  18
ATOM     17  C   UNL     1      -7.273  11.246  19.624  0.00  0.00    +0.000 C 
ATOM     18  C   UNL     1      -6.599  12.418  18.935  0.00  0.00    +0.000 C 
ENDBRANCH  10  18
ENDBRANCH   5  14
ENDBRANCH   1   7
BRANCH   3  19
ATOM     19  C   UNL     1       2.431   7.480  19.347  0.00  0.00    +0.000 C 
BRANCH  19  20
ATOM     20  C   UNL     1       2.274   6.516  18.162  0.00  0.00    +0.000 C 
BRANCH  20  21
ATOM     21  N   UNL     1       3.216   5.384  18.225  0.00  0.00    +0.000 N 
ATOM     22  C   UNL     1       4.465   5.609  17.659  0.00  0.00    +0.000 C 
ATOM     23  C   UNL     1       5.482   4.505  17.538  0.00  0.00    +0.000 C 
ATOM     24  O   UNL     1       4.777   6.726  17.228  0.00  0.00    +0.000 OA
BRANCH  21  25
ATOM     25  C   UNL     1       2.751   4.185  18.973  0.00  0.00    +0.000 C 
ATOM     26  C   UNL     1       1.398   3.638  18.493  0.00  0.00    +0.000 C 
ATOM     27  C   UNL     1       0.896   2.511  19.384  0.00  0.00    +0.000 C 
ATOM     28  O   UNL     1       0.933   2.890  20.757  0.00  0.00    +0.000 OA
ATOM     29  C   UNL     1       2.264   3.135  21.206  0.00  0.00    +0.000 C 
ATOM     30  C   UNL     1       2.843   4.351  20.495  0.00  0.00    +0.000 C 
ENDBRANCH  21  25
ENDBRANCH  20  21
ENDBRANCH  19  20
ENDBRANCH   3  19
TORSDOF 7
ENDMDL
MODEL 9
REMARK VINA RESULT:      -7.5      1.948      2.553
REMARK  Name = 
REMARK  11 active torsions:
REMARK  status: ('A' for Active; 'I' for Inactive)
REMARK    1  A    between atoms: C_1  and  C_2
REMARK    2  A    between atoms: C_2  and  N_3
REMARK    3  A    between atoms: C_5  and  C_6
REMARK    4  A    between atoms: C_7  and  C_8
REMARK    5  A    between atoms: C_10  and  C_11
REMARK    6  A    between atoms: N_13  and  C_14
REMARK    7  A    between atoms: C_14  and  C_15
REMARK    8  A    between atoms: C_15  and  N_16
REMARK    9  A    between atoms: N_16  and  C_20
REMARK   10  A    between atoms: C_17  and  C_18
REMARK   11  A    between atoms: C_28  and  C_29
REMARK                            x       y       z     vdW  Elec       q    Type
REMARK                         _______ _______ _______ _____ _____    ______ ____
ROOT
ATOM      1  C   UNL     1       1.614   8.156  19.982  0.00  0.00    +0.000 C 
ATOM      2  O   UNL     1       1.611   7.587  21.069  0.00  0.00    +0.000 OA
ATOM      3  N   UNL     1       2.294   7.663  18.891  0.00  0.00    +0.000 N 
ATOM      4  H   UNL     1       2.226   8.168  18.013  0.00  0.00    +0.000 HD
ENDROOT
BRANCH   1   7
ATOM      5  C   UNL     1      -0.589  11.043  19.916  0.00  0.00    +0.000 A 
ATOM      6  C   UNL     1      -0.309   9.782  20.377  0.00  0.00    +0.000 A 
ATOM      7  C   UNL     1       0.907   9.418  19.769  0.00  0.00    +0.000 A 
ATOM      8  N   UNL     1       1.351  10.395  18.959  0.00  0.00    +0.000 NA
ATOM      9  O   UNL     1       0.384  11.395  19.026  0.00  0.00    +0.000 OA
BRANCH   5  14
ATOM     10  N   UNL     1      -3.128  13.170  21.424  0.00  0.00    +0.000 N 
ATOM     11  N   UNL     1      -3.763  12.941  20.258  0.00  0.00    +0.000 NA
ATOM     12  C   UNL     1      -2.929  12.153  19.574  0.00  0.00    +0.000 A 
ATOM     13  C   UNL     1      -3.339  11.624  18.247  0.00  0.00    +0.000 C 
ATOM     14  C   UNL     1      -1.745  11.886  20.316  0.00  0.00    +0.000 A 
ATOM     15  C   UNL     1      -1.889  12.581  21.498  0.00  0.00    +0.000 A 
ATOM     16  C   UNL     1      -0.961  12.787  22.640  0.00  0.00    +0.000 C 
BRANCH  10  18
ATOM     17  C   UNL     1      -4.697  13.110  23.330  0.00  0.00    +0.000 C 
ATOM     18  C   UNL     1      -3.805  13.956  22.441  0.00  0.00    +0.000 C 
ENDBRANCH  10  18
ENDBRANCH   5  14
ENDBRANCH   1   7
BRANCH   3  19
ATOM     19  C   UNL     1       3.088   6.454  18.987  0.00  0.00    +0.000 C 
BRANCH  19  20
ATOM     20  C   UNL     1       3.119   5.656  17.675  0.00  0.00    +0.000 C 
BRANCH  20  21
ATOM     21  N   UNL     1       3.704   4.314  17.842  0.00  0.00    +0.000 N 
ATOM     22  C   UNL     1       2.853   3.347  18.363  0.00  0.00    +0.000 C 
ATOM     23  C   UNL     1       3.349   1.966  18.705  0.00  0.00    +0.000 C 
ATOM     24  O   UNL     1       1.659   3.595  18.570  0.00  0.00    +0.000 OA
BRANCH  21  25
ATOM     25  C   UNL     1       5.093   4.137  17.338  0.00  0.00    +0.000 C 
ATOM     26  C   UNL     1       6.173   4.675  18.288  0.00  0.00    +0.000 C 
ATOM     27  C   UNL     1       7.560   4.609  17.663  0.00  0.00    +0.000 C 
ATOM     28  O   UNL     1       7.562   5.195  16.364  0.00  0.00    +0.000 OA
ATOM     29  C   UNL     1       6.726   4.481  15.456  0.00  0.00    +0.000 C 
ATOM     30  C   UNL     1       5.269   4.595  15.884  0.00  0.00    +0.000 C 
ENDBRANCH  21  25
ENDBRANCH  20  21
ENDBRANCH  19  20
ENDBRANCH   3  19
TORSDOF 7
ENDMDL
