MODEL 1
REMARK VINA RESULT:      -8.8      0.000      0.000
REMARK  Name = 
REMARK  10 active torsions:
REMARK  status: ('A' for Active; 'I' for Inactive)
REMARK    1  A    between atoms: C_1  and  C_2
REMARK    2  A    between atoms: C_2  and  O_3
REMARK    3  A    between atoms: O_3  and  C_4
REMARK    4  A    between atoms: C_9  and  N_10
REMARK    5  A    between atoms: C_12  and  C_13
REMARK    6  A    between atoms: N_15  and  C_16
REMARK    7  A    between atoms: C_16  and  C_17
REMARK    8  A    between atoms: C_17  and  C_18
REMARK    9  A    between atoms: C_21  and  S_22
REMARK   10  A    between atoms: S_22  and  N_23
REMARK                            x       y       z     vdW  Elec       q    Type
REMARK                         _______ _______ _______ _____ _____    ______ ____
ROOT
ATOM      1  C   UNL     1       7.382   6.890  17.534  0.00  0.00    +0.000 C 
ATOM      2  O   UNL     1       6.628   7.413  16.721  0.00  0.00    +0.000 OA
ATOM      3  N   UNL     1       8.227   7.613  18.343  0.00  0.00    +0.000 N 
ATOM      4  H   UNL     1       8.991   7.145  18.816  0.00  0.00    +0.000 HD
ENDROOT
BRANCH   1   7
ATOM      5  N   UNL     1       5.231   4.673  18.171  0.00  0.00    +0.000 N 
ATOM      6  C   UNL     1       6.420   5.072  18.878  0.00  0.00    +0.000 C 
ATOM      7  C   UNL     1       7.412   5.400  17.779  0.00  0.00    +0.000 C 
ATOM      8  C   UNL     1       6.918   4.642  16.554  0.00  0.00    +0.000 C 
ATOM      9  C   UNL     1       5.444   4.449  16.815  0.00  0.00    +0.000 C 
ATOM     10  O   UNL     1       4.644   4.085  15.969  0.00  0.00    +0.000 OA
BRANCH   5  16
ATOM     11  C   UNL     1       2.871   5.208  18.723  0.00  0.00    +0.000 A 
ATOM     12  C   UNL     1       1.754   4.900  19.513  0.00  0.00    +0.000 A 
ATOM     13  C   UNL     1       1.761   3.813  20.389  0.00  0.00    +0.000 A 
ATOM     14  C   UNL     1       2.894   3.014  20.490  0.00  0.00    +0.000 A 
ATOM     15  C   UNL     1       4.017   3.308  19.716  0.00  0.00    +0.000 A 
ATOM     16  C   UNL     1       4.025   4.413  18.843  0.00  0.00    +0.000 A 
BRANCH  11  17
ATOM     17  O   UNL     1       2.649   6.277  17.891  0.00  0.00    +0.000 OA
BRANCH  17  19
ATOM     18  C   UNL     1       2.017   8.591  17.786  0.00  0.00    +0.000 C 
ATOM     19  C   UNL     1       2.975   7.574  18.374  0.00  0.00    +0.000 C 
ENDBRANCH  17  19
ENDBRANCH  11  17
ENDBRANCH   5  16
ENDBRANCH   1   7
BRANCH   3  20
ATOM     20  C   UNL     1       8.270   9.052  18.195  0.00  0.00    +0.000 C 
BRANCH  20  21
ATOM     21  C   UNL     1       9.128   9.719  19.261  0.00  0.00    +0.000 C 
BRANCH  21  22
ATOM     22  C   UNL     1       9.427  11.144  18.880  0.00  0.00    +0.000 A 
ATOM     23  C   UNL     1       8.660  11.784  17.896  0.00  0.00    +0.000 A 
ATOM     24  C   UNL     1       8.960  13.089  17.509  0.00  0.00    +0.000 A 
ATOM     25  C   UNL     1      10.029  13.756  18.112  0.00  0.00    +0.000 A 
ATOM     26  C   UNL     1      10.820  13.121  19.072  0.00  0.00    +0.000 A 
ATOM     27  C   UNL     1      10.515  11.816  19.455  0.00  0.00    +0.000 A 
BRANCH  25  28
ATOM     28  S   UNL     1      10.403  15.412  17.627  0.00  0.00    +0.000 S 
ATOM     29  O   UNL     1       9.173  16.145  17.429  0.00  0.00    +0.000 OA
ATOM     30  O   UNL     1      11.484  15.916  18.440  0.00  0.00    +0.000 OA
BRANCH  28  31
ATOM     31  N   UNL     1      11.049  15.173  16.096  0.00  0.00    +0.000 NA
ATOM     32  H   UNL     1      11.294  14.191  15.974  0.00  0.00    +0.000 HD
ATOM     33  H   UNL     1      10.409  15.534  15.390  0.00  0.00    +0.000 HD
ENDBRANCH  28  31
ENDBRANCH  25  28
ENDBRANCH  21  22
ENDBRANCH  20  21
ENDBRANCH   3  20
TORSDOF 9
ENDMDL
MODEL 2
REMARK VINA RESULT:      -8.6      1.075      1.080
REMARK  Name = 
REMARK  10 active torsions:
REMARK  status: ('A' for Active; 'I' for Inactive)
REMARK    1  A    between atoms: C_1  and  C_2
REMARK    2  A    between atoms: C_2  and  O_3
REMARK    3  A    between atoms: O_3  and  C_4
REMARK    4  A    between atoms: C_9  and  N_10
REMARK    5  A    between atoms: C_12  and  C_13
REMARK    6  A    between atoms: N_15  and  C_16
REMARK    7  A    between atoms: C_16  and  C_17
REMARK    8  A    between atoms: C_17  and  C_18
REMARK    9  A    between atoms: C_21  and  S_22
REMARK   10  A    between atoms: S_22  and  N_23
REMARK                            x       y       z     vdW  Elec       q    Type
REMARK                         _______ _______ _______ _____ _____    ______ ____
ROOT
ATOM      1  C   UNL     1       7.578   6.882  17.880  0.00  0.00    +0.000 C 
ATOM      2  O   UNL     1       6.929   7.302  16.929  0.00  0.00    +0.000 OA
ATOM      3  N   UNL     1       8.346   7.696  18.680  0.00  0.00    +0.000 N 
ATOM      4  H   UNL     1       9.043   7.287  19.291  0.00  0.00    +0.000 HD
ENDROOT
BRANCH   1   7
ATOM      5  N   UNL     1       5.456   4.551  17.789  0.00  0.00    +0.000 N 
ATOM      6  C   UNL     1       6.179   5.132  18.889  0.00  0.00    +0.000 C 
ATOM      7  C   UNL     1       7.549   5.436  18.314  0.00  0.00    +0.000 C 
ATOM      8  C   UNL     1       7.693   4.510  17.112  0.00  0.00    +0.000 C 
ATOM      9  C   UNL     1       6.270   4.207  16.714  0.00  0.00    +0.000 C 
ATOM     10  O   UNL     1       5.955   3.681  15.658  0.00  0.00    +0.000 OA
BRANCH   5  16
ATOM     11  C   UNL     1       3.065   5.212  17.819  0.00  0.00    +0.000 A 
ATOM     12  C   UNL     1       1.738   4.802  18.015  0.00  0.00    +0.000 A 
ATOM     13  C   UNL     1       1.418   3.462  18.244  0.00  0.00    +0.000 A 
ATOM     14  C   UNL     1       2.427   2.508  18.282  0.00  0.00    +0.000 A 
ATOM     15  C   UNL     1       3.754   2.898  18.095  0.00  0.00    +0.000 A 
ATOM     16  C   UNL     1       4.087   4.249  17.882  0.00  0.00    +0.000 A 
BRANCH  11  17
ATOM     17  O   UNL     1       3.167   6.556  17.558  0.00  0.00    +0.000 OA
BRANCH  17  19
ATOM     18  C   UNL     1       2.116   8.703  17.779  0.00  0.00    +0.000 C 
ATOM     19  C   UNL     1       2.605   7.461  18.498  0.00  0.00    +0.000 C 
ENDBRANCH  17  19
ENDBRANCH  11  17
ENDBRANCH   5  16
ENDBRANCH   1   7
BRANCH   3  20
ATOM     20  C   UNL     1       8.435   9.104  18.357  0.00  0.00    +0.000 C 
BRANCH  20  21
ATOM     21  C   UNL     1       9.437   9.838  19.237  0.00  0.00    +0.000 C 
BRANCH  21  22
ATOM     22  C   UNL     1       9.353  11.323  19.006  0.00  0.00    +0.000 A 
ATOM     23  C   UNL     1       8.721  11.820  17.857  0.00  0.00    +0.000 A 
ATOM     24  C   UNL     1       8.678  13.192  17.616  0.00  0.00    +0.000 A 
ATOM     25  C   UNL     1       9.268  14.069  18.530  0.00  0.00    +0.000 A 
ATOM     26  C   UNL     1       9.926  13.587  19.663  0.00  0.00    +0.000 A 
ATOM     27  C   UNL     1       9.966  12.213  19.898  0.00  0.00    +0.000 A 
BRANCH  25  28
ATOM     28  S   UNL     1       9.205  15.807  18.228  0.00  0.00    +0.000 S 
ATOM     29  O   UNL     1       7.881  16.171  17.778  0.00  0.00    +0.000 OA
ATOM     30  O   UNL     1       9.878  16.504  19.298  0.00  0.00    +0.000 OA
BRANCH  28  31
ATOM     31  N   UNL     1      10.203  15.949  16.886  0.00  0.00    +0.000 NA
ATOM     32  H   UNL     1       9.640  15.962  16.036  0.00  0.00    +0.000 HD
ATOM     33  H   UNL     1      10.815  16.757  16.993  0.00  0.00    +0.000 HD
ENDBRANCH  28  31
ENDBRANCH  25  28
ENDBRANCH  21  22
ENDBRANCH  20  21
ENDBRANCH   3  20
TORSDOF 9
ENDMDL
MODEL 3
REMARK VINA RESULT:      -8.5      1.405      2.397
REMARK  Name = 
REMARK  10 active torsions:
REMARK  status: ('A' for Active; 'I' for Inactive)
REMARK    1  A    between atoms: C_1  and  C_2
REMARK    2  A    between atoms: C_2  and  O_3
REMARK    3  A    between atoms: O_3  and  C_4
REMARK    4  A    between atoms: C_9  and  N_10
REMARK    5  A    between atoms: C_12  and  C_13
REMARK    6  A    between atoms: N_15  and  C_16
REMARK    7  A    between atoms: C_16  and  C_17
REMARK    8  A    between atoms: C_17  and  C_18
REMARK    9  A    between atoms: C_21  and  S_22
REMARK   10  A    between atoms: S_22  and  N_23
REMARK                            x       y       z     vdW  Elec       q    Type
REMARK                         _______ _______ _______ _____ _____    ______ ____
ROOT
ATOM      1  C   UNL     1       7.654   7.231  17.738  0.00  0.00    +0.000 C 
ATOM      2  O   UNL     1       7.030   7.718  16.802  0.00  0.00    +0.000 OA
ATOM      3  N   UNL     1       8.424   7.983  18.596  0.00  0.00    +0.000 N 
ATOM      4  H   UNL     1       9.102   7.526  19.193  0.00  0.00    +0.000 HD
ENDROOT
BRANCH   1   7
ATOM      5  N   UNL     1       5.372   5.216  18.561  0.00  0.00    +0.000 N 
ATOM      6  C   UNL     1       6.598   5.582  19.222  0.00  0.00    +0.000 C 
ATOM      7  C   UNL     1       7.589   5.764  18.088  0.00  0.00    +0.000 C 
ATOM      8  C   UNL     1       7.023   4.958  16.926  0.00  0.00    +0.000 C 
ATOM      9  C   UNL     1       5.544   4.884  17.222  0.00  0.00    +0.000 C 
ATOM     10  O   UNL     1       4.706   4.517  16.415  0.00  0.00    +0.000 OA
BRANCH   5  16
ATOM     11  C   UNL     1       3.709   3.880  19.829  0.00  0.00    +0.000 A 
ATOM     12  C   UNL     1       2.443   3.852  20.431  0.00  0.00    +0.000 A 
ATOM     13  C   UNL     1       1.647   4.996  20.504  0.00  0.00    +0.000 A 
ATOM     14  C   UNL     1       2.107   6.193  19.968  0.00  0.00    +0.000 A 
ATOM     15  C   UNL     1       3.362   6.239  19.359  0.00  0.00    +0.000 A 
ATOM     16  C   UNL     1       4.164   5.086  19.266  0.00  0.00    +0.000 A 
BRANCH  11  17
ATOM     17  O   UNL     1       4.356   2.672  19.905  0.00  0.00    +0.000 OA
BRANCH  17  19
ATOM     18  C   UNL     1       3.446   1.780  17.870  0.00  0.00    +0.000 C 
ATOM     19  C   UNL     1       3.712   1.536  19.342  0.00  0.00    +0.000 C 
ENDBRANCH  17  19
ENDBRANCH  11  17
ENDBRANCH   5  16
ENDBRANCH   1   7
BRANCH   3  20
ATOM     20  C   UNL     1       8.546   9.405  18.355  0.00  0.00    +0.000 C 
BRANCH  20  21
ATOM     21  C   UNL     1       9.377  10.104  19.422  0.00  0.00    +0.000 C 
BRANCH  21  22
ATOM     22  C   UNL     1       9.667  11.525  19.017  0.00  0.00    +0.000 A 
ATOM     23  C   UNL     1       9.189  12.588  19.796  0.00  0.00    +0.000 A 
ATOM     24  C   UNL     1       9.417  13.905  19.404  0.00  0.00    +0.000 A 
ATOM     25  C   UNL     1      10.128  14.159  18.229  0.00  0.00    +0.000 A 
ATOM     26  C   UNL     1      10.585  13.110  17.427  0.00  0.00    +0.000 A 
ATOM     27  C   UNL     1      10.354  11.794  17.825  0.00  0.00    +0.000 A 
BRANCH  25  28
ATOM     28  S   UNL     1      10.424  15.828  17.737  0.00  0.00    +0.000 S 
ATOM     29  O   UNL     1      11.061  15.842  16.440  0.00  0.00    +0.000 OA
ATOM     30  O   UNL     1       9.261  16.629  18.038  0.00  0.00    +0.000 OA
BRANCH  28  31
ATOM     31  N   UNL     1      11.603  16.296  18.835  0.00  0.00    +0.000 NA
ATOM     32  H   UNL     1      11.480  17.278  19.078  0.00  0.00    +0.000 HD
ATOM     33  H   UNL     1      11.601  15.665  19.636  0.00  0.00    +0.000 HD
ENDBRANCH  28  31
ENDBRANCH  25  28
ENDBRANCH  21  22
ENDBRANCH  20  21
ENDBRANCH   3  20
TORSDOF 9
ENDMDL
MODEL 4
REMARK VINA RESULT:      -8.5      0.822      1.010
REMARK  Name = 
REMARK  10 active torsions:
REMARK  status: ('A' for Active; 'I' for Inactive)
REMARK    1  A    between atoms: C_1  and  C_2
REMARK    2  A    between atoms: C_2  and  O_3
REMARK    3  A    between atoms: O_3  and  C_4
REMARK    4  A    between atoms: C_9  and  N_10
REMARK    5  A    between atoms: C_12  and  C_13
REMARK    6  A    between atoms: N_15  and  C_16
REMARK    7  A    between atoms: C_16  and  C_17
REMARK    8  A    between atoms: C_17  and  C_18
REMARK    9  A    between atoms: C_21  and  S_22
REMARK   10  A    between atoms: S_22  and  N_23
REMARK                            x       y       z     vdW  Elec       q    Type
REMARK                         _______ _______ _______ _____ _____    ______ ____
ROOT
ATOM      1  C   UNL     1       7.507   6.988  17.756  0.00  0.00    +0.000 C 
ATOM      2  O   UNL     1       6.724   7.499  16.964  0.00  0.00    +0.000 OA
ATOM      3  N   UNL     1       8.386   7.723  18.518  0.00  0.00    +0.000 N 
ATOM      4  H   UNL     1       9.165   7.260  18.970  0.00  0.00    +0.000 HD
ENDROOT
BRANCH   1   7
ATOM      5  N   UNL     1       5.348   4.748  18.273  0.00  0.00    +0.000 N 
ATOM      6  C   UNL     1       6.476   5.177  19.058  0.00  0.00    +0.000 C 
ATOM      7  C   UNL     1       7.541   5.503  18.028  0.00  0.00    +0.000 C 
ATOM      8  C   UNL     1       7.149   4.718  16.783  0.00  0.00    +0.000 C 
ATOM      9  C   UNL     1       5.663   4.505  16.940  0.00  0.00    +0.000 C 
ATOM     10  O   UNL     1       4.932   4.115  16.044  0.00  0.00    +0.000 OA
BRANCH   5  16
ATOM     11  C   UNL     1       2.948   5.256  18.647  0.00  0.00    +0.000 A 
ATOM     12  C   UNL     1       1.781   4.943  19.359  0.00  0.00    +0.000 A 
ATOM     13  C   UNL     1       1.739   3.866  20.247  0.00  0.00    +0.000 A 
ATOM     14  C   UNL     1       2.871   3.084  20.439  0.00  0.00    +0.000 A 
ATOM     15  C   UNL     1       4.044   3.384  19.743  0.00  0.00    +0.000 A 
ATOM     16  C   UNL     1       4.100   4.479  18.860  0.00  0.00    +0.000 A 
BRANCH  11  17
ATOM     17  O   UNL     1       2.773   6.313  17.789  0.00  0.00    +0.000 OA
BRANCH  17  19
ATOM     18  C   UNL     1       2.002   8.587  17.768  0.00  0.00    +0.000 C 
ATOM     19  C   UNL     1       3.053   7.619  18.276  0.00  0.00    +0.000 C 
ENDBRANCH  17  19
ENDBRANCH  11  17
ENDBRANCH   5  16
ENDBRANCH   1   7
BRANCH   3  20
ATOM     20  C   UNL     1       8.428   9.158  18.342  0.00  0.00    +0.000 C 
BRANCH  20  21
ATOM     21  C   UNL     1       9.119   9.865  19.499  0.00  0.00    +0.000 C 
BRANCH  21  22
ATOM     22  C   UNL     1       9.546  11.249  19.091  0.00  0.00    +0.000 A 
ATOM     23  C   UNL     1       9.271  12.343  19.925  0.00  0.00    +0.000 A 
ATOM     24  C   UNL     1       9.625  13.632  19.533  0.00  0.00    +0.000 A 
ATOM     25  C   UNL     1      10.260  13.827  18.304  0.00  0.00    +0.000 A 
ATOM     26  C   UNL     1      10.514  12.752  17.450  0.00  0.00    +0.000 A 
ATOM     27  C   UNL     1      10.157  11.464  17.848  0.00  0.00    +0.000 A 
BRANCH  25  28
ATOM     28  S   UNL     1      10.716  15.460  17.812  0.00  0.00    +0.000 S 
ATOM     29  O   UNL     1      10.972  16.263  18.987  0.00  0.00    +0.000 OA
ATOM     30  O   UNL     1      11.641  15.387  16.707  0.00  0.00    +0.000 OA
BRANCH  28  31
ATOM     31  N   UNL     1       9.274  16.030  17.170  0.00  0.00    +0.000 NA
ATOM     32  H   UNL     1       8.511  15.403  17.424  0.00  0.00    +0.000 HD
ATOM     33  H   UNL     1       9.128  16.999  17.451  0.00  0.00    +0.000 HD
ENDBRANCH  28  31
ENDBRANCH  25  28
ENDBRANCH  21  22
ENDBRANCH  20  21
ENDBRANCH   3  20
TORSDOF 9
ENDMDL
MODEL 5
REMARK VINA RESULT:      -8.5      1.041      1.236
REMARK  Name = 
REMARK  10 active torsions:
REMARK  status: ('A' for Active; 'I' for Inactive)
REMARK    1  A    between atoms: C_1  and  C_2
REMARK    2  A    between atoms: C_2  and  O_3
REMARK    3  A    between atoms: O_3  and  C_4
REMARK    4  A    between atoms: C_9  and  N_10
REMARK    5  A    between atoms: C_12  and  C_13
REMARK    6  A    between atoms: N_15  and  C_16
REMARK    7  A    between atoms: C_16  and  C_17
REMARK    8  A    between atoms: C_17  and  C_18
REMARK    9  A    between atoms: C_21  and  S_22
REMARK   10  A    between atoms: S_22  and  N_23
REMARK                            x       y       z     vdW  Elec       q    Type
REMARK                         _______ _______ _______ _____ _____    ______ ____
ROOT
ATOM      1  C   UNL     1       7.539   7.130  17.714  0.00  0.00    +0.000 C 
ATOM      2  O   UNL     1       6.773   7.614  16.887  0.00  0.00    +0.000 OA
ATOM      3  N   UNL     1       8.398   7.891  18.472  0.00  0.00    +0.000 N 
ATOM      4  H   UNL     1       9.168   7.445  18.956  0.00  0.00    +0.000 HD
ENDROOT
BRANCH   1   7
ATOM      5  N   UNL     1       5.396   4.961  18.520  0.00  0.00    +0.000 N 
ATOM      6  C   UNL     1       6.605   5.389  19.174  0.00  0.00    +0.000 C 
ATOM      7  C   UNL     1       7.569   5.655  18.034  0.00  0.00    +0.000 C 
ATOM      8  C   UNL     1       7.040   4.838  16.862  0.00  0.00    +0.000 C 
ATOM      9  C   UNL     1       5.573   4.666  17.173  0.00  0.00    +0.000 C 
ATOM     10  O   UNL     1       4.749   4.263  16.367  0.00  0.00    +0.000 OA
BRANCH   5  16
ATOM     11  C   UNL     1       3.295   5.756  19.574  0.00  0.00    +0.000 A 
ATOM     12  C   UNL     1       2.188   5.431  20.370  0.00  0.00    +0.000 A 
ATOM     13  C   UNL     1       1.965   4.123  20.806  0.00  0.00    +0.000 A 
ATOM     14  C   UNL     1       2.855   3.116  20.452  0.00  0.00    +0.000 A 
ATOM     15  C   UNL     1       3.966   3.422  19.665  0.00  0.00    +0.000 A 
ATOM     16  C   UNL     1       4.207   4.741  19.236  0.00  0.00    +0.000 A 
BRANCH  11  17
ATOM     17  O   UNL     1       3.309   7.079  19.206  0.00  0.00    +0.000 OA
BRANCH  17  19
ATOM     18  C   UNL     1       2.256   8.651  17.729  0.00  0.00    +0.000 C 
ATOM     19  C   UNL     1       2.067   7.694  18.890  0.00  0.00    +0.000 C 
ENDBRANCH  17  19
ENDBRANCH  11  17
ENDBRANCH   5  16
ENDBRANCH   1   7
BRANCH   3  20
ATOM     20  C   UNL     1       8.441   9.320  18.250  0.00  0.00    +0.000 C 
BRANCH  20  21
ATOM     21  C   UNL     1       9.114  10.064  19.395  0.00  0.00    +0.000 C 
BRANCH  21  22
ATOM     22  C   UNL     1       9.576  11.423  18.941  0.00  0.00    +0.000 A 
ATOM     23  C   UNL     1      10.411  11.543  17.821  0.00  0.00    +0.000 A 
ATOM     24  C   UNL     1      10.877  12.794  17.422  0.00  0.00    +0.000 A 
ATOM     25  C   UNL     1      10.504  13.929  18.145  0.00  0.00    +0.000 A 
ATOM     26  C   UNL     1       9.698  13.822  19.280  0.00  0.00    +0.000 A 
ATOM     27  C   UNL     1       9.234  12.568  19.674  0.00  0.00    +0.000 A 
BRANCH  25  28
ATOM     28  S   UNL     1      11.088  15.515  17.634  0.00  0.00    +0.000 S 
ATOM     29  O   UNL     1      12.332  15.361  16.914  0.00  0.00    +0.000 OA
ATOM     30  O   UNL     1       9.984  16.288  17.117  0.00  0.00    +0.000 OA
BRANCH  28  31
ATOM     31  N   UNL     1      11.491  16.213  19.106  0.00  0.00    +0.000 NA
ATOM     32  H   UNL     1      11.927  15.517  19.710  0.00  0.00    +0.000 HD
ATOM     33  H   UNL     1      12.058  17.045  18.951  0.00  0.00    +0.000 HD
ENDBRANCH  28  31
ENDBRANCH  25  28
ENDBRANCH  21  22
ENDBRANCH  20  21
ENDBRANCH   3  20
TORSDOF 9
ENDMDL
MODEL 6
REMARK VINA RESULT:      -8.2      1.135      1.143
REMARK  Name = 
REMARK  10 active torsions:
REMARK  status: ('A' for Active; 'I' for Inactive)
REMARK    1  A    between atoms: C_1  and  C_2
REMARK    2  A    between atoms: C_2  and  O_3
REMARK    3  A    between atoms: O_3  and  C_4
REMARK    4  A    between atoms: C_9  and  N_10
REMARK    5  A    between atoms: C_12  and  C_13
REMARK    6  A    between atoms: N_15  and  C_16
REMARK    7  A    between atoms: C_16  and  C_17
REMARK    8  A    between atoms: C_17  and  C_18
REMARK    9  A    between atoms: C_21  and  S_22
REMARK   10  A    between atoms: S_22  and  N_23
REMARK                            x       y       z     vdW  Elec       q    Type
REMARK                         _______ _______ _______ _____ _____    ______ ____
ROOT
ATOM      1  C   UNL     1       7.244   6.908  17.523  0.00  0.00    +0.000 C 
ATOM      2  O   UNL     1       6.243   7.499  17.133  0.00  0.00    +0.000 OA
ATOM      3  N   UNL     1       8.332   7.556  18.061  0.00  0.00    +0.000 N 
ATOM      4  H   UNL     1       9.215   7.067  18.144  0.00  0.00    +0.000 HD
ENDROOT
BRANCH   1   7
ATOM      5  N   UNL     1       5.223   4.502  17.253  0.00  0.00    +0.000 N 
ATOM      6  C   UNL     1       6.181   4.825  18.278  0.00  0.00    +0.000 C 
ATOM      7  C   UNL     1       7.359   5.403  17.515  0.00  0.00    +0.000 C 
ATOM      8  C   UNL     1       7.224   4.860  16.099  0.00  0.00    +0.000 C 
ATOM      9  C   UNL     1       5.754   4.543  15.968  0.00  0.00    +0.000 C 
ATOM     10  O   UNL     1       5.201   4.300  14.908  0.00  0.00    +0.000 OA
BRANCH   5  16
ATOM     11  C   UNL     1       2.845   4.917  17.828  0.00  0.00    +0.000 A 
ATOM     12  C   UNL     1       1.620   4.358  18.221  0.00  0.00    +0.000 A 
ATOM     13  C   UNL     1       1.453   2.977  18.330  0.00  0.00    +0.000 A 
ATOM     14  C   UNL     1       2.517   2.128  18.050  0.00  0.00    +0.000 A 
ATOM     15  C   UNL     1       3.746   2.666  17.664  0.00  0.00    +0.000 A 
ATOM     16  C   UNL     1       3.928   4.058  17.567  0.00  0.00    +0.000 A 
BRANCH  11  17
ATOM     17  O   UNL     1       2.793   6.285  17.729  0.00  0.00    +0.000 OA
BRANCH  17  19
ATOM     18  C   UNL     1       1.866   8.058  19.056  0.00  0.00    +0.000 C 
ATOM     19  C   UNL     1       2.985   7.046  18.915  0.00  0.00    +0.000 C 
ENDBRANCH  17  19
ENDBRANCH  11  17
ENDBRANCH   5  16
ENDBRANCH   1   7
BRANCH   3  20
ATOM     20  C   UNL     1       8.320   9.001  18.124  0.00  0.00    +0.000 C 
BRANCH  20  21
ATOM     21  C   UNL     1       9.042   9.534  19.353  0.00  0.00    +0.000 C 
BRANCH  21  22
ATOM     22  C   UNL     1       9.560  10.925  19.100  0.00  0.00    +0.000 A 
ATOM     23  C   UNL     1       9.637  11.417  17.789  0.00  0.00    +0.000 A 
ATOM     24  C   UNL     1      10.156  12.687  17.545  0.00  0.00    +0.000 A 
ATOM     25  C   UNL     1      10.597  13.467  18.616  0.00  0.00    +0.000 A 
ATOM     26  C   UNL     1      10.553  12.979  19.924  0.00  0.00    +0.000 A 
ATOM     27  C   UNL     1      10.033  11.707  20.162  0.00  0.00    +0.000 A 
BRANCH  25  28
ATOM     28  S   UNL     1      11.247  15.079  18.306  0.00  0.00    +0.000 S 
ATOM     29  O   UNL     1      10.158  15.999  18.069  0.00  0.00    +0.000 OA
ATOM     30  O   UNL     1      12.306  15.357  19.246  0.00  0.00    +0.000 OA
BRANCH  28  31
ATOM     31  N   UNL     1      11.994  14.857  16.819  0.00  0.00    +0.000 NA
ATOM     32  H   UNL     1      12.849  15.411  16.776  0.00  0.00    +0.000 HD
ATOM     33  H   UNL     1      12.133  13.862  16.647  0.00  0.00    +0.000 HD
ENDBRANCH  28  31
ENDBRANCH  25  28
ENDBRANCH  21  22
ENDBRANCH  20  21
ENDBRANCH   3  20
TORSDOF 9
ENDMDL
MODEL 7
REMARK VINA RESULT:      -8.2      1.504      1.612
REMARK  Name = 
REMARK  10 active torsions:
REMARK  status: ('A' for Active; 'I' for Inactive)
REMARK    1  A    between atoms: C_1  and  C_2
REMARK    2  A    between atoms: C_2  and  O_3
REMARK    3  A    between atoms: O_3  and  C_4
REMARK    4  A    between atoms: C_9  and  N_10
REMARK    5  A    between atoms: C_12  and  C_13
REMARK    6  A    between atoms: N_15  and  C_16
REMARK    7  A    between atoms: C_16  and  C_17
REMARK    8  A    between atoms: C_17  and  C_18
REMARK    9  A    between atoms: C_21  and  S_22
REMARK   10  A    between atoms: S_22  and  N_23
REMARK                            x       y       z     vdW  Elec       q    Type
REMARK                         _______ _______ _______ _____ _____    ______ ____
ROOT
ATOM      1  C   UNL     1       7.462   6.986  17.605  0.00  0.00    +0.000 C 
ATOM      2  O   UNL     1       6.690   7.508  16.808  0.00  0.00    +0.000 OA
ATOM      3  N   UNL     1       8.334   7.710  18.385  0.00  0.00    +0.000 N 
ATOM      4  H   UNL     1       9.106   7.241  18.842  0.00  0.00    +0.000 HD
ENDROOT
BRANCH   1   7
ATOM      5  N   UNL     1       5.357   4.643  17.459  0.00  0.00    +0.000 N 
ATOM      6  C   UNL     1       6.190   5.103  18.539  0.00  0.00    +0.000 C 
ATOM      7  C   UNL     1       7.489   5.499  17.862  0.00  0.00    +0.000 C 
ATOM      8  C   UNL     1       7.509   4.726  16.549  0.00  0.00    +0.000 C 
ATOM      9  C   UNL     1       6.052   4.444  16.271  0.00  0.00    +0.000 C 
ATOM     10  O   UNL     1       5.629   4.043  15.199  0.00  0.00    +0.000 OA
BRANCH   5  16
ATOM     11  C   UNL     1       2.979   5.250  17.824  0.00  0.00    +0.000 A 
ATOM     12  C   UNL     1       1.683   4.794  18.109  0.00  0.00    +0.000 A 
ATOM     13  C   UNL     1       1.397   3.431  18.204  0.00  0.00    +0.000 A 
ATOM     14  C   UNL     1       2.411   2.498  18.017  0.00  0.00    +0.000 A 
ATOM     15  C   UNL     1       3.707   2.933  17.739  0.00  0.00    +0.000 A 
ATOM     16  C   UNL     1       4.007   4.306  17.659  0.00  0.00    +0.000 A 
BRANCH  11  17
ATOM     17  O   UNL     1       3.044   6.617  17.721  0.00  0.00    +0.000 OA
BRANCH  17  19
ATOM     18  C   UNL     1       1.850   8.693  17.889  0.00  0.00    +0.000 C 
ATOM     19  C   UNL     1       2.211   7.390  18.575  0.00  0.00    +0.000 C 
ENDBRANCH  17  19
ENDBRANCH  11  17
ENDBRANCH   5  16
ENDBRANCH   1   7
BRANCH   3  20
ATOM     20  C   UNL     1       8.382   9.147  18.224  0.00  0.00    +0.000 C 
BRANCH  20  21
ATOM     21  C   UNL     1       9.352   9.807  19.193  0.00  0.00    +0.000 C 
BRANCH  21  22
ATOM     22  C   UNL     1       9.216  11.306  19.137  0.00  0.00    +0.000 A 
ATOM     23  C   UNL     1       9.046  11.950  17.904  0.00  0.00    +0.000 A 
ATOM     24  C   UNL     1       8.963  13.339  17.842  0.00  0.00    +0.000 A 
ATOM     25  C   UNL     1       9.048  14.086  19.019  0.00  0.00    +0.000 A 
ATOM     26  C   UNL     1       9.247  13.460  20.252  0.00  0.00    +0.000 A 
ATOM     27  C   UNL     1       9.329  12.070  20.307  0.00  0.00    +0.000 A 
BRANCH  25  28
ATOM     28  S   UNL     1       8.934  15.846  18.940  0.00  0.00    +0.000 S 
ATOM     29  O   UNL     1       9.884  16.432  19.858  0.00  0.00    +0.000 OA
ATOM     30  O   UNL     1       8.834  16.258  17.561  0.00  0.00    +0.000 OA
BRANCH  28  31
ATOM     31  N   UNL     1       7.419  16.112  19.612  0.00  0.00    +0.000 NA
ATOM     32  H   UNL     1       7.512  16.652  20.472  0.00  0.00    +0.000 HD
ATOM     33  H   UNL     1       6.802  16.535  18.919  0.00  0.00    +0.000 HD
ENDBRANCH  28  31
ENDBRANCH  25  28
ENDBRANCH  21  22
ENDBRANCH  20  21
ENDBRANCH   3  20
TORSDOF 9
ENDMDL
MODEL 8
REMARK VINA RESULT:      -8.1      5.795      7.904
REMARK  Name = 
REMARK  10 active torsions:
REMARK  status: ('A' for Active; 'I' for Inactive)
REMARK    1  A    between atoms: C_1  and  C_2
REMARK    2  A    between atoms: C_2  and  O_3
REMARK    3  A    between atoms: O_3  and  C_4
REMARK    4  A    between atoms: C_9  and  N_10
REMARK    5  A    between atoms: C_12  and  C_13
REMARK    6  A    between atoms: N_15  and  C_16
REMARK    7  A    between atoms: C_16  and  C_17
REMARK    8  A    between atoms: C_17  and  C_18
REMARK    9  A    between atoms: C_21  and  S_22
REMARK   10  A    between atoms: S_22  and  N_23
REMARK                            x       y       z     vdW  Elec       q    Type
REMARK                         _______ _______ _______ _____ _____    ______ ____
ROOT
ATOM      1  C   UNL     1       1.329   4.122  19.694  0.00  0.00    +0.000 C 
ATOM      2  O   UNL     1       0.589   3.635  20.541  0.00  0.00    +0.000 OA
ATOM      3  N   UNL     1       1.700   5.446  19.697  0.00  0.00    +0.000 N 
ATOM      4  H   UNL     1       2.105   5.856  18.864  0.00  0.00    +0.000 HD
ENDROOT
BRANCH   1   7
ATOM      5  N   UNL     1       4.254   3.749  18.575  0.00  0.00    +0.000 N 
ATOM      6  C   UNL     1       3.033   4.144  17.923  0.00  0.00    +0.000 C 
ATOM      7  C   UNL     1       1.965   3.302  18.596  0.00  0.00    +0.000 C 
ATOM      8  C   UNL     1       2.706   2.105  19.178  0.00  0.00    +0.000 C 
ATOM      9  C   UNL     1       4.121   2.601  19.347  0.00  0.00    +0.000 C 
ATOM     10  O   UNL     1       4.975   2.016  19.995  0.00  0.00    +0.000 OA
BRANCH   5  16
ATOM     11  C   UNL     1       6.183   4.296  17.112  0.00  0.00    +0.000 A 
ATOM     12  C   UNL     1       7.433   4.923  17.008  0.00  0.00    +0.000 A 
ATOM     13  C   UNL     1       7.964   5.666  18.064  0.00  0.00    +0.000 A 
ATOM     14  C   UNL     1       7.249   5.790  19.249  0.00  0.00    +0.000 A 
ATOM     15  C   UNL     1       6.006   5.169  19.374  0.00  0.00    +0.000 A 
ATOM     16  C   UNL     1       5.471   4.404  18.320  0.00  0.00    +0.000 A 
BRANCH  11  17
ATOM     17  O   UNL     1       5.814   3.661  15.953  0.00  0.00    +0.000 OA
BRANCH  17  19
ATOM     18  C   UNL     1       6.006   3.780  13.563  0.00  0.00    +0.000 C 
ATOM     19  C   UNL     1       5.510   4.466  14.821  0.00  0.00    +0.000 C 
ENDBRANCH  17  19
ENDBRANCH  11  17
ENDBRANCH   5  16
ENDBRANCH   1   7
BRANCH   3  20
ATOM     20  C   UNL     1       1.154   6.319  20.714  0.00  0.00    +0.000 C 
BRANCH  20  21
ATOM     21  C   UNL     1       1.928   7.624  20.835  0.00  0.00    +0.000 C 
BRANCH  21  22
ATOM     22  C   UNL     1       1.139   8.762  20.245  0.00  0.00    +0.000 A 
ATOM     23  C   UNL     1       0.127   9.379  20.994  0.00  0.00    +0.000 A 
ATOM     24  C   UNL     1      -0.635  10.404  20.437  0.00  0.00    +0.000 A 
ATOM     25  C   UNL     1      -0.382  10.813  19.126  0.00  0.00    +0.000 A 
ATOM     26  C   UNL     1       0.602  10.188  18.357  0.00  0.00    +0.000 A 
ATOM     27  C   UNL     1       1.362   9.164  18.920  0.00  0.00    +0.000 A 
BRANCH  25  28
ATOM     28  S   UNL     1      -1.342  12.118  18.424  0.00  0.00    +0.000 S 
ATOM     29  O   UNL     1      -2.571  12.266  19.170  0.00  0.00    +0.000 OA
ATOM     30  O   UNL     1      -0.481  13.236  18.119  0.00  0.00    +0.000 OA
BRANCH  28  31
ATOM     31  N   UNL     1      -1.777  11.453  16.945  0.00  0.00    +0.000 NA
ATOM     32  H   UNL     1      -2.511  12.015  16.516  0.00  0.00    +0.000 HD
ATOM     33  H   UNL     1      -0.950  11.333  16.363  0.00  0.00    +0.000 HD
ENDBRANCH  28  31
ENDBRANCH  25  28
ENDBRANCH  21  22
ENDBRANCH  20  21
ENDBRANCH   3  20
TORSDOF 9
ENDMDL
MODEL 9
REMARK VINA RESULT:      -8.0      1.279      1.512
REMARK  Name = 
REMARK  10 active torsions:
REMARK  status: ('A' for Active; 'I' for Inactive)
REMARK    1  A    between atoms: C_1  and  C_2
REMARK    2  A    between atoms: C_2  and  O_3
REMARK    3  A    between atoms: O_3  and  C_4
REMARK    4  A    between atoms: C_9  and  N_10
REMARK    5  A    between atoms: C_12  and  C_13
REMARK    6  A    between atoms: N_15  and  C_16
REMARK    7  A    between atoms: C_16  and  C_17
REMARK    8  A    between atoms: C_17  and  C_18
REMARK    9  A    between atoms: C_21  and  S_22
REMARK   10  A    between atoms: S_22  and  N_23
REMARK                            x       y       z     vdW  Elec       q    Type
REMARK                         _______ _______ _______ _____ _____    ______ ____
ROOT
ATOM      1  C   UNL     1       7.443   6.897  17.679  0.00  0.00    +0.000 C 
ATOM      2  O   UNL     1       6.749   7.347  16.774  0.00  0.00    +0.000 OA
ATOM      3  N   UNL     1       8.240   7.687  18.474  0.00  0.00    +0.000 N 
ATOM      4  H   UNL     1       8.966   7.261  19.037  0.00  0.00    +0.000 HD
ENDROOT
BRANCH   1   7
ATOM      5  N   UNL     1       5.241   4.784  18.476  0.00  0.00    +0.000 N 
ATOM      6  C   UNL     1       6.426   5.225  19.165  0.00  0.00    +0.000 C 
ATOM      7  C   UNL     1       7.442   5.435  18.059  0.00  0.00    +0.000 C 
ATOM      8  C   UNL     1       6.954   4.577  16.898  0.00  0.00    +0.000 C 
ATOM      9  C   UNL     1       5.473   4.433  17.151  0.00  0.00    +0.000 C 
ATOM     10  O   UNL     1       4.680   4.007  16.326  0.00  0.00    +0.000 OA
BRANCH   5  16
ATOM     11  C   UNL     1       2.965   5.534  19.118  0.00  0.00    +0.000 A 
ATOM     12  C   UNL     1       1.828   5.289  19.902  0.00  0.00    +0.000 A 
ATOM     13  C   UNL     1       1.718   4.137  20.682  0.00  0.00    +0.000 A 
ATOM     14  C   UNL     1       2.751   3.208  20.692  0.00  0.00    +0.000 A 
ATOM     15  C   UNL     1       3.893   3.438  19.923  0.00  0.00    +0.000 A 
ATOM     16  C   UNL     1       4.020   4.605  19.147  0.00  0.00    +0.000 A 
BRANCH  11  17
ATOM     17  O   UNL     1       2.860   6.690  18.385  0.00  0.00    +0.000 OA
BRANCH  17  19
ATOM     18  C   UNL     1       1.845   8.814  17.916  0.00  0.00    +0.000 C 
ATOM     19  C   UNL     1       2.206   7.801  18.984  0.00  0.00    +0.000 C 
ENDBRANCH  17  19
ENDBRANCH  11  17
ENDBRANCH   5  16
ENDBRANCH   1   7
BRANCH   3  20
ATOM     20  C   UNL     1       8.306   9.106  18.200  0.00  0.00    +0.000 C 
BRANCH  20  21
ATOM     21  C   UNL     1       9.464   9.782  18.920  0.00  0.00    +0.000 C 
BRANCH  21  22
ATOM     22  C   UNL     1       9.229  11.266  19.020  0.00  0.00    +0.000 A 
ATOM     23  C   UNL     1       9.418  11.926  20.243  0.00  0.00    +0.000 A 
ATOM     24  C   UNL     1       9.161  13.291  20.352  0.00  0.00    +0.000 A 
ATOM     25  C   UNL     1       8.715  13.998  19.233  0.00  0.00    +0.000 A 
ATOM     26  C   UNL     1       8.493  13.348  18.016  0.00  0.00    +0.000 A 
ATOM     27  C   UNL     1       8.753  11.982  17.913  0.00  0.00    +0.000 A 
BRANCH  25  28
ATOM     28  S   UNL     1       8.397  15.729  19.370  0.00  0.00    +0.000 S 
ATOM     29  O   UNL     1       7.098  15.934  19.971  0.00  0.00    +0.000 OA
ATOM     30  O   UNL     1       9.585  16.398  19.845  0.00  0.00    +0.000 OA
BRANCH  28  31
ATOM     31  N   UNL     1       8.233  16.167  17.758  0.00  0.00    +0.000 NA
ATOM     32  H   UNL     1       8.066  17.170  17.688  0.00  0.00    +0.000 HD
ATOM     33  H   UNL     1       9.040  15.841  17.227  0.00  0.00    +0.000 HD
ENDBRANCH  28  31
ENDBRANCH  25  28
ENDBRANCH  21  22
ENDBRANCH  20  21
ENDBRANCH   3  20
TORSDOF 9
ENDMDL
