MODEL 1
REMARK VINA RESULT:      -7.8      0.000      0.000
REMARK  Name = 
REMARK  6 active torsions:
REMARK  status: ('A' for Active; 'I' for Inactive)
REMARK    1  A    between atoms: C_4  and  C_5
REMARK    2  A    between atoms: C_8  and  C_9
REMARK    3  A    between atoms: C_9  and  C_10
REMARK    4  A    between atoms: C_13  and  O_14
REMARK    5  A    between atoms: O_14  and  C_15
REMARK    6  A    between atoms: C_15  and  C_16
REMARK                            x       y       z     vdW  Elec       q    Type
REMARK                         _______ _______ _______ _____ _____    ______ ____
ROOT
ATOM      1  C   UNL     1       1.580   9.139  18.911  0.00  0.00    +0.000 A 
ATOM      2  C   UNL     1       2.079   8.445  17.801  0.00  0.00    +0.000 A 
ATOM      3  C   UNL     1       2.453   7.105  17.914  0.00  0.00    +0.000 A 
ATOM      4  C   UNL     1       2.366   6.452  19.143  0.00  0.00    +0.000 A 
ATOM      5  C   UNL     1       1.835   7.124  20.243  0.00  0.00    +0.000 A 
ATOM      6  C   UNL     1       1.432   8.456  20.125  0.00  0.00    +0.000 A 
ENDROOT
BRANCH   1   7
ATOM      7  C   UNL     1       1.223  10.603  18.810  0.00  0.00    +0.000 C 
BRANCH   7  11
ATOM      8  C   UNL     1      -3.040  11.427  18.569  0.00  0.00    +0.000 A 
ATOM      9  C   UNL     1      -2.455  10.374  17.856  0.00  0.00    +0.000 A 
ATOM     10  C   UNL     1      -1.081  10.128  17.940  0.00  0.00    +0.000 A 
ATOM     11  C   UNL     1      -0.245  10.943  18.719  0.00  0.00    +0.000 A 
ATOM     12  C   UNL     1      -0.830  11.989  19.442  0.00  0.00    +0.000 A 
ATOM     13  C   UNL     1      -2.205  12.223  19.368  0.00  0.00    +0.000 A 
BRANCH   8  17
ATOM     14  C   UNL     1      -6.651  12.038  17.668  0.00  0.00    +0.000 A 
ATOM     15  C   UNL     1      -6.798  12.460  18.965  0.00  0.00    +0.000 A 
ATOM     16  S   UNL     1      -5.340  12.353  19.845  0.00  0.00    +0.000 S 
ATOM     17  C   UNL     1      -4.478  11.735  18.491  0.00  0.00    +0.000 A 
ATOM     18  C   UNL     1      -5.318  11.618  17.396  0.00  0.00    +0.000 A 
ENDBRANCH   8  17
ENDBRANCH   7  11
ENDBRANCH   1   7
BRANCH   4  19
ATOM     19  O   UNL     1       2.796   5.152  19.145  0.00  0.00    +0.000 OA
BRANCH  19  20
ATOM     20  C   UNL     1       4.035   4.921  19.821  0.00  0.00    +0.000 C 
BRANCH  20  21
ATOM     21  C   UNL     1       5.207   5.304  18.894  0.00  0.00    +0.000 C 
ATOM     22  C   UNL     1       5.239   4.372  17.669  0.00  0.00    +0.000 C 
ATOM     23  C   UNL     1       6.454   4.639  16.789  0.00  0.00    +0.000 C 
ATOM     24  C   UNL     1       7.730   4.607  17.619  0.00  0.00    +0.000 C 
ATOM     25  C   UNL     1       7.629   5.552  18.813  0.00  0.00    +0.000 C 
ATOM     26  N   UNL     1       6.473   5.236  19.649  0.00  0.00    +0.000 NA
ATOM     27  H   UNL     1       6.438   5.892  20.430  0.00  0.00    +0.000 HD
ENDBRANCH  20  21
ENDBRANCH  19  20
ENDBRANCH   4  19
TORSDOF 6
ENDMDL
MODEL 2
REMARK VINA RESULT:      -7.6      4.223     10.364
REMARK  Name = 
REMARK  6 active torsions:
REMARK  status: ('A' for Active; 'I' for Inactive)
REMARK    1  A    between atoms: C_4  and  C_5
REMARK    2  A    between atoms: C_8  and  C_9
REMARK    3  A    between atoms: C_9  and  C_10
REMARK    4  A    between atoms: C_13  and  O_14
REMARK    5  A    between atoms: O_14  and  C_15
REMARK    6  A    between atoms: C_15  and  C_16
REMARK                            x       y       z     vdW  Elec       q    Type
REMARK                         _______ _______ _______ _____ _____    ______ ____
ROOT
ATOM      1  C   UNL     1      -0.931  10.963  18.384  0.00  0.00    +0.000 A 
ATOM      2  C   UNL     1      -1.460   9.980  17.538  0.00  0.00    +0.000 A 
ATOM      3  C   UNL     1      -2.836   9.903  17.317  0.00  0.00    +0.000 A 
ATOM      4  C   UNL     1      -3.702  10.783  17.964  0.00  0.00    +0.000 A 
ATOM      5  C   UNL     1      -3.181  11.789  18.778  0.00  0.00    +0.000 A 
ATOM      6  C   UNL     1      -1.802  11.886  18.977  0.00  0.00    +0.000 A 
ENDROOT
BRANCH   1   7
ATOM      7  C   UNL     1       0.551  11.019  18.670  0.00  0.00    +0.000 C 
BRANCH   7  11
ATOM      8  C   UNL     1       2.482   7.154  19.163  0.00  0.00    +0.000 A 
ATOM      9  C   UNL     1       1.731   7.736  20.191  0.00  0.00    +0.000 A 
ATOM     10  C   UNL     1       1.122   8.983  20.017  0.00  0.00    +0.000 A 
ATOM     11  C   UNL     1       1.268   9.699  18.820  0.00  0.00    +0.000 A 
ATOM     12  C   UNL     1       2.010   9.114  17.786  0.00  0.00    +0.000 A 
ATOM     13  C   UNL     1       2.603   7.861  17.958  0.00  0.00    +0.000 A 
BRANCH   8  17
ATOM     14  C   UNL     1       4.728   4.125  19.134  0.00  0.00    +0.000 A 
ATOM     15  C   UNL     1       3.730   3.503  19.841  0.00  0.00    +0.000 A 
ATOM     16  S   UNL     1       2.409   4.542  20.136  0.00  0.00    +0.000 S 
ATOM     17  C   UNL     1       3.157   5.854  19.313  0.00  0.00    +0.000 A 
ATOM     18  C   UNL     1       4.400   5.476  18.833  0.00  0.00    +0.000 A 
ENDBRANCH   8  17
ENDBRANCH   7  11
ENDBRANCH   1   7
BRANCH   4  19
ATOM     19  O   UNL     1      -5.033  10.591  17.703  0.00  0.00    +0.000 OA
BRANCH  19  20
ATOM     20  C   UNL     1      -5.807  11.788  17.576  0.00  0.00    +0.000 C 
BRANCH  20  21
ATOM     21  C   UNL     1      -6.874  11.832  18.690  0.00  0.00    +0.000 C 
ATOM     22  C   UNL     1      -6.708  13.109  19.532  0.00  0.00    +0.000 C 
ATOM     23  C   UNL     1      -7.665  13.132  20.718  0.00  0.00    +0.000 C 
ATOM     24  C   UNL     1      -7.546  11.846  21.523  0.00  0.00    +0.000 C 
ATOM     25  C   UNL     1      -7.722  10.623  20.627  0.00  0.00    +0.000 C 
ATOM     26  N   UNL     1      -6.759  10.622  19.528  0.00  0.00    +0.000 NA
ATOM     27  H   UNL     1      -6.913   9.795  18.951  0.00  0.00    +0.000 HD
ENDBRANCH  20  21
ENDBRANCH  19  20
ENDBRANCH   4  19
TORSDOF 6
ENDMDL
MODEL 3
REMARK VINA RESULT:      -7.6      4.375     10.121
REMARK  Name = 
REMARK  6 active torsions:
REMARK  status: ('A' for Active; 'I' for Inactive)
REMARK    1  A    between atoms: C_4  and  C_5
REMARK    2  A    between atoms: C_8  and  C_9
REMARK    3  A    between atoms: C_9  and  C_10
REMARK    4  A    between atoms: C_13  and  O_14
REMARK    5  A    between atoms: O_14  and  C_15
REMARK    6  A    between atoms: C_15  and  C_16
REMARK                            x       y       z     vdW  Elec       q    Type
REMARK                         _______ _______ _______ _____ _____    ______ ____
ROOT
ATOM      1  C   UNL     1       2.456   7.401  19.231  0.00  0.00    +0.000 A 
ATOM      2  C   UNL     1       2.334   8.153  18.055  0.00  0.00    +0.000 A 
ATOM      3  C   UNL     1       1.520   9.286  18.022  0.00  0.00    +0.000 A 
ATOM      4  C   UNL     1       0.793   9.663  19.151  0.00  0.00    +0.000 A 
ATOM      5  C   UNL     1       0.940   8.943  20.336  0.00  0.00    +0.000 A 
ATOM      6  C   UNL     1       1.776   7.825  20.379  0.00  0.00    +0.000 A 
ENDROOT
BRANCH   1   7
ATOM      7  C   UNL     1       3.293   6.144  19.259  0.00  0.00    +0.000 C 
BRANCH   7  11
ATOM      8  C   UNL     1       5.175   4.889  15.545  0.00  0.00    +0.000 A 
ATOM      9  C   UNL     1       5.508   6.100  16.164  0.00  0.00    +0.000 A 
ATOM     10  C   UNL     1       4.887   6.490  17.355  0.00  0.00    +0.000 A 
ATOM     11  C   UNL     1       3.896   5.696  17.950  0.00  0.00    +0.000 A 
ATOM     12  C   UNL     1       3.570   4.479  17.338  0.00  0.00    +0.000 A 
ATOM     13  C   UNL     1       4.203   4.084  16.158  0.00  0.00    +0.000 A 
BRANCH   8  17
ATOM     14  C   UNL     1       6.151   3.353  12.242  0.00  0.00    +0.000 A 
ATOM     15  C   UNL     1       7.321   4.057  12.376  0.00  0.00    +0.000 A 
ATOM     16  S   UNL     1       7.354   4.983  13.809  0.00  0.00    +0.000 S 
ATOM     17  C   UNL     1       5.788   4.451  14.280  0.00  0.00    +0.000 A 
ATOM     18  C   UNL     1       5.269   3.581  13.335  0.00  0.00    +0.000 A 
ENDBRANCH   8  17
ENDBRANCH   7  11
ENDBRANCH   1   7
BRANCH   4  19
ATOM     19  O   UNL     1      -0.000  10.768  18.993  0.00  0.00    +0.000 OA
BRANCH  19  20
ATOM     20  C   UNL     1      -1.403  10.539  19.154  0.00  0.00    +0.000 C 
BRANCH  20  21
ATOM     21  C   UNL     1      -2.163  11.117  17.942  0.00  0.00    +0.000 C 
ATOM     22  C   UNL     1      -3.671  11.175  18.241  0.00  0.00    +0.000 C 
ATOM     23  C   UNL     1      -4.471  11.627  17.024  0.00  0.00    +0.000 C 
ATOM     24  C   UNL     1      -4.116  10.781  15.810  0.00  0.00    +0.000 C 
ATOM     25  C   UNL     1      -2.609  10.770  15.573  0.00  0.00    +0.000 C 
ATOM     26  N   UNL     1      -1.886  10.293  16.749  0.00  0.00    +0.000 NA
ATOM     27  H   UNL     1      -0.885  10.307  16.553  0.00  0.00    +0.000 HD
ENDBRANCH  20  21
ENDBRANCH  19  20
ENDBRANCH   4  19
TORSDOF 6
ENDMDL
MODEL 4
REMARK VINA RESULT:      -7.6      2.164      2.772
REMARK  Name = 
REMARK  6 active torsions:
REMARK  status: ('A' for Active; 'I' for Inactive)
REMARK    1  A    between atoms: C_4  and  C_5
REMARK    2  A    between atoms: C_8  and  C_9
REMARK    3  A    between atoms: C_9  and  C_10
REMARK    4  A    between atoms: C_13  and  O_14
REMARK    5  A    between atoms: O_14  and  C_15
REMARK    6  A    between atoms: C_15  and  C_16
REMARK                            x       y       z     vdW  Elec       q    Type
REMARK                         _______ _______ _______ _____ _____    ______ ____
ROOT
ATOM      1  C   UNL     1       1.374   9.287  18.735  0.00  0.00    +0.000 A 
ATOM      2  C   UNL     1       2.122   8.420  17.928  0.00  0.00    +0.000 A 
ATOM      3  C   UNL     1       2.647   7.239  18.455  0.00  0.00    +0.000 A 
ATOM      4  C   UNL     1       2.461   6.926  19.801  0.00  0.00    +0.000 A 
ATOM      5  C   UNL     1       1.685   7.764  20.601  0.00  0.00    +0.000 A 
ATOM      6  C   UNL     1       1.135   8.932  20.069  0.00  0.00    +0.000 A 
ENDROOT
BRANCH   1   7
ATOM      7  C   UNL     1       0.848  10.592  18.186  0.00  0.00    +0.000 C 
BRANCH   7  11
ATOM      8  C   UNL     1      -3.398  11.460  18.548  0.00  0.00    +0.000 A 
ATOM      9  C   UNL     1      -2.438  12.181  19.267  0.00  0.00    +0.000 A 
ATOM     10  C   UNL     1      -1.077  11.884  19.144  0.00  0.00    +0.000 A 
ATOM     11  C   UNL     1      -0.636  10.839  18.318  0.00  0.00    +0.000 A 
ATOM     12  C   UNL     1      -1.594  10.124  17.589  0.00  0.00    +0.000 A 
ATOM     13  C   UNL     1      -2.951  10.434  17.702  0.00  0.00    +0.000 A 
BRANCH   8  17
ATOM     14  C   UNL     1      -7.149  11.724  18.258  0.00  0.00    +0.000 A 
ATOM     15  C   UNL     1      -7.069  12.585  19.323  0.00  0.00    +0.000 A 
ATOM     16  S   UNL     1      -5.464  12.795  19.861  0.00  0.00    +0.000 S 
ATOM     17  C   UNL     1      -4.842  11.726  18.666  0.00  0.00    +0.000 A 
ATOM     18  C   UNL     1      -5.869  11.227  17.883  0.00  0.00    +0.000 A 
ENDBRANCH   8  17
ENDBRANCH   7  11
ENDBRANCH   1   7
BRANCH   4  19
ATOM     19  O   UNL     1       3.051   5.763  20.217  0.00  0.00    +0.000 OA
BRANCH  19  20
ATOM     20  C   UNL     1       2.196   4.869  20.934  0.00  0.00    +0.000 C 
BRANCH  20  21
ATOM     21  C   UNL     1       2.197   3.489  20.243  0.00  0.00    +0.000 C 
ATOM     22  C   UNL     1       3.553   3.240  19.560  0.00  0.00    +0.000 C 
ATOM     23  C   UNL     1       3.554   1.940  18.764  0.00  0.00    +0.000 C 
ATOM     24  C   UNL     1       2.369   1.900  17.810  0.00  0.00    +0.000 C 
ATOM     25  C   UNL     1       1.060   2.153  18.553  0.00  0.00    +0.000 C 
ATOM     26  N   UNL     1       1.089   3.426  19.270  0.00  0.00    +0.000 NA
ATOM     27  H   UNL     1       0.203   3.555  19.757  0.00  0.00    +0.000 HD
ENDBRANCH  20  21
ENDBRANCH  19  20
ENDBRANCH   4  19
TORSDOF 6
ENDMDL
MODEL 5
REMARK VINA RESULT:      -7.6      4.298     10.053
REMARK  Name = 
REMARK  6 active torsions:
REMARK  status: ('A' for Active; 'I' for Inactive)
REMARK    1  A    between atoms: C_4  and  C_5
REMARK    2  A    between atoms: C_8  and  C_9
REMARK    3  A    between atoms: C_9  and  C_10
REMARK    4  A    between atoms: C_13  and  O_14
REMARK    5  A    between atoms: O_14  and  C_15
REMARK    6  A    between atoms: C_15  and  C_16
REMARK                            x       y       z     vdW  Elec       q    Type
REMARK                         _______ _______ _______ _____ _____    ______ ____
ROOT
ATOM      1  C   UNL     1       2.387   7.085  19.493  0.00  0.00    +0.000 A 
ATOM      2  C   UNL     1       1.757   7.500  20.673  0.00  0.00    +0.000 A 
ATOM      3  C   UNL     1       1.082   8.720  20.723  0.00  0.00    +0.000 A 
ATOM      4  C   UNL     1       1.057   9.556  19.607  0.00  0.00    +0.000 A 
ATOM      5  C   UNL     1       1.648   9.133  18.417  0.00  0.00    +0.000 A 
ATOM      6  C   UNL     1       2.300   7.899  18.357  0.00  0.00    +0.000 A 
ENDROOT
BRANCH   1   7
ATOM      7  C   UNL     1       3.165   5.791  19.446  0.00  0.00    +0.000 C 
BRANCH   7  11
ATOM      8  C   UNL     1       5.304   4.959  15.752  0.00  0.00    +0.000 A 
ATOM      9  C   UNL     1       4.323   4.090  16.244  0.00  0.00    +0.000 A 
ATOM     10  C   UNL     1       3.650   4.370  17.438  0.00  0.00    +0.000 A 
ATOM     11  C   UNL     1       3.955   5.514  18.190  0.00  0.00    +0.000 A 
ATOM     12  C   UNL     1       4.927   6.391  17.693  0.00  0.00    +0.000 A 
ATOM     13  C   UNL     1       5.586   6.117  16.493  0.00  0.00    +0.000 A 
BRANCH   8  17
ATOM     14  C   UNL     1       7.670   4.785  12.821  0.00  0.00    +0.000 A 
ATOM     15  C   UNL     1       6.788   3.877  12.293  0.00  0.00    +0.000 A 
ATOM     16  S   UNL     1       5.461   3.593  13.327  0.00  0.00    +0.000 S 
ATOM     17  C   UNL     1       6.051   4.691  14.512  0.00  0.00    +0.000 A 
ATOM     18  C   UNL     1       7.248   5.250  14.098  0.00  0.00    +0.000 A 
ENDBRANCH   8  17
ENDBRANCH   7  11
ENDBRANCH   1   7
BRANCH   4  19
ATOM     19  O   UNL     1       0.398  10.744  19.782  0.00  0.00    +0.000 OA
BRANCH  19  20
ATOM     20  C   UNL     1      -0.156  11.313  18.593  0.00  0.00    +0.000 C 
BRANCH  20  21
ATOM     21  C   UNL     1      -1.626  10.865  18.444  0.00  0.00    +0.000 C 
ATOM     22  C   UNL     1      -1.814  10.096  17.124  0.00  0.00    +0.000 C 
ATOM     23  C   UNL     1      -3.276   9.740  16.882  0.00  0.00    +0.000 C 
ATOM     24  C   UNL     1      -4.151  10.980  17.000  0.00  0.00    +0.000 C 
ATOM     25  C   UNL     1      -3.914  11.691  18.329  0.00  0.00    +0.000 C 
ATOM     26  N   UNL     1      -2.508  12.047  18.503  0.00  0.00    +0.000 NA
ATOM     27  H   UNL     1      -2.391  12.513  19.402  0.00  0.00    +0.000 HD
ENDBRANCH  20  21
ENDBRANCH  19  20
ENDBRANCH   4  19
TORSDOF 6
ENDMDL
MODEL 6
REMARK VINA RESULT:      -7.5      3.199      4.953
REMARK  Name = 
REMARK  6 active torsions:
REMARK  status: ('A' for Active; 'I' for Inactive)
REMARK    1  A    between atoms: C_4  and  C_5
REMARK    2  A    between atoms: C_8  and  C_9
REMARK    3  A    between atoms: C_9  and  C_10
REMARK    4  A    between atoms: C_13  and  O_14
REMARK    5  A    between atoms: O_14  and  C_15
REMARK    6  A    between atoms: C_15  and  C_16
REMARK                            x       y       z     vdW  Elec       q    Type
REMARK                         _______ _______ _______ _____ _____    ______ ____
ROOT
ATOM      1  C   UNL     1       3.067   5.515  19.307  0.00  0.00    +0.000 A 
ATOM      2  C   UNL     1       4.453   5.691  19.414  0.00  0.00    +0.000 A 
ATOM      3  C   UNL     1       5.314   5.103  18.487  0.00  0.00    +0.000 A 
ATOM      4  C   UNL     1       4.806   4.306  17.462  0.00  0.00    +0.000 A 
ATOM      5  C   UNL     1       3.426   4.158  17.325  0.00  0.00    +0.000 A 
ATOM      6  C   UNL     1       2.561   4.769  18.235  0.00  0.00    +0.000 A 
ENDROOT
BRANCH   1   7
ATOM      7  C   UNL     1       2.133   6.103  20.337  0.00  0.00    +0.000 C 
BRANCH   7  11
ATOM      8  C   UNL     1       0.971  10.269  19.875  0.00  0.00    +0.000 A 
ATOM      9  C   UNL     1       0.811   9.593  21.091  0.00  0.00    +0.000 A 
ATOM     10  C   UNL     1       1.184   8.251  21.219  0.00  0.00    +0.000 A 
ATOM     11  C   UNL     1       1.703   7.536  20.130  0.00  0.00    +0.000 A 
ATOM     12  C   UNL     1       1.875   8.214  18.916  0.00  0.00    +0.000 A 
ATOM     13  C   UNL     1       1.516   9.558  18.795  0.00  0.00    +0.000 A 
BRANCH   8  17
ATOM     14  C   UNL     1      -0.730  13.599  19.391  0.00  0.00    +0.000 A 
ATOM     15  C   UNL     1       0.536  14.122  19.324  0.00  0.00    +0.000 A 
ATOM     16  S   UNL     1       1.737  12.925  19.515  0.00  0.00    +0.000 S 
ATOM     17  C   UNL     1       0.570  11.674  19.691  0.00  0.00    +0.000 A 
ATOM     18  C   UNL     1      -0.711  12.193  19.605  0.00  0.00    +0.000 A 
ENDBRANCH   8  17
ENDBRANCH   7  11
ENDBRANCH   1   7
BRANCH   4  19
ATOM     19  O   UNL     1       5.744   3.750  16.633  0.00  0.00    +0.000 OA
BRANCH  19  20
ATOM     20  C   UNL     1       6.752   4.651  16.165  0.00  0.00    +0.000 C 
BRANCH  20  21
ATOM     21  C   UNL     1       6.581   4.871  14.647  0.00  0.00    +0.000 C 
ATOM     22  C   UNL     1       6.008   3.603  13.989  0.00  0.00    +0.000 C 
ATOM     23  C   UNL     1       5.936   3.737  12.473  0.00  0.00    +0.000 C 
ATOM     24  C   UNL     1       7.286   4.164  11.912  0.00  0.00    +0.000 C 
ATOM     25  C   UNL     1       7.792   5.424  12.607  0.00  0.00    +0.000 C 
ATOM     26  N   UNL     1       7.881   5.238  14.054  0.00  0.00    +0.000 NA
ATOM     27  H   UNL     1       8.216   6.102  14.481  0.00  0.00    +0.000 HD
ENDBRANCH  20  21
ENDBRANCH  19  20
ENDBRANCH   4  19
TORSDOF 6
ENDMDL
MODEL 7
REMARK VINA RESULT:      -7.5      3.132      4.706
REMARK  Name = 
REMARK  6 active torsions:
REMARK  status: ('A' for Active; 'I' for Inactive)
REMARK    1  A    between atoms: C_4  and  C_5
REMARK    2  A    between atoms: C_8  and  C_9
REMARK    3  A    between atoms: C_9  and  C_10
REMARK    4  A    between atoms: C_13  and  O_14
REMARK    5  A    between atoms: O_14  and  C_15
REMARK    6  A    between atoms: C_15  and  C_16
REMARK                            x       y       z     vdW  Elec       q    Type
REMARK                         _______ _______ _______ _____ _____    ______ ____
ROOT
ATOM      1  C   UNL     1       2.910   5.581  19.393  0.00  0.00    +0.000 A 
ATOM      2  C   UNL     1       4.308   5.650  19.463  0.00  0.00    +0.000 A 
ATOM      3  C   UNL     1       5.095   5.063  18.471  0.00  0.00    +0.000 A 
ATOM      4  C   UNL     1       4.499   4.374  17.416  0.00  0.00    +0.000 A 
ATOM      5  C   UNL     1       3.108   4.335  17.318  0.00  0.00    +0.000 A 
ATOM      6  C   UNL     1       2.318   4.946  18.295  0.00  0.00    +0.000 A 
ENDROOT
BRANCH   1   7
ATOM      7  C   UNL     1       2.053   6.167  20.490  0.00  0.00    +0.000 C 
BRANCH   7  11
ATOM      8  C   UNL     1       0.704  10.251  19.847  0.00  0.00    +0.000 A 
ATOM      9  C   UNL     1       1.405   9.545  18.861  0.00  0.00    +0.000 A 
ATOM     10  C   UNL     1       1.837   8.235  19.088  0.00  0.00    +0.000 A 
ATOM     11  C   UNL     1       1.605   7.598  20.316  0.00  0.00    +0.000 A 
ATOM     12  C   UNL     1       0.895   8.298  21.299  0.00  0.00    +0.000 A 
ATOM     13  C   UNL     1       0.451   9.601  21.064  0.00  0.00    +0.000 A 
BRANCH   8  17
ATOM     14  C   UNL     1       0.087  13.842  18.876  0.00  0.00    +0.000 A 
ATOM     15  C   UNL     1      -0.884  13.831  19.845  0.00  0.00    +0.000 A 
ATOM     16  S   UNL     1      -1.006  12.314  20.616  0.00  0.00    +0.000 S 
ATOM     17  C   UNL     1       0.252  11.640  19.657  0.00  0.00    +0.000 A 
ATOM     18  C   UNL     1       0.737  12.582  18.765  0.00  0.00    +0.000 A 
ENDBRANCH   8  17
ENDBRANCH   7  11
ENDBRANCH   1   7
BRANCH   4  19
ATOM     19  O   UNL     1       5.368   3.808  16.523  0.00  0.00    +0.000 OA
BRANCH  19  20
ATOM     20  C   UNL     1       6.464   4.639  16.129  0.00  0.00    +0.000 C 
BRANCH  20  21
ATOM     21  C   UNL     1       6.427   4.852  14.601  0.00  0.00    +0.000 C 
ATOM     22  C   UNL     1       5.916   3.580  13.902  0.00  0.00    +0.000 C 
ATOM     23  C   UNL     1       5.979   3.706  12.384  0.00  0.00    +0.000 C 
ATOM     24  C   UNL     1       7.372   4.132  11.943  0.00  0.00    +0.000 C 
ATOM     25  C   UNL     1       7.813   5.397  12.674  0.00  0.00    +0.000 C 
ATOM     26  N   UNL     1       7.775   5.218  14.124  0.00  0.00    +0.000 NA
ATOM     27  H   UNL     1       8.070   6.085  14.574  0.00  0.00    +0.000 HD
ENDBRANCH  20  21
ENDBRANCH  19  20
ENDBRANCH   4  19
TORSDOF 6
ENDMDL
MODEL 8
REMARK VINA RESULT:      -7.5      3.369      5.518
REMARK  Name = 
REMARK  6 active torsions:
REMARK  status: ('A' for Active; 'I' for Inactive)
REMARK    1  A    between atoms: C_4  and  C_5
REMARK    2  A    between atoms: C_8  and  C_9
REMARK    3  A    between atoms: C_9  and  C_10
REMARK    4  A    between atoms: C_13  and  O_14
REMARK    5  A    between atoms: O_14  and  C_15
REMARK    6  A    between atoms: C_15  and  C_16
REMARK                            x       y       z     vdW  Elec       q    Type
REMARK                         _______ _______ _______ _____ _____    ______ ____
ROOT
ATOM      1  C   UNL     1       4.056   5.339  18.370  0.00  0.00    +0.000 A 
ATOM      2  C   UNL     1       5.155   6.020  17.831  0.00  0.00    +0.000 A 
ATOM      3  C   UNL     1       5.882   5.468  16.776  0.00  0.00    +0.000 A 
ATOM      4  C   UNL     1       5.540   4.215  16.267  0.00  0.00    +0.000 A 
ATOM      5  C   UNL     1       4.424   3.548  16.770  0.00  0.00    +0.000 A 
ATOM      6  C   UNL     1       3.679   4.112  17.808  0.00  0.00    +0.000 A 
ENDROOT
BRANCH   1   7
ATOM      7  C   UNL     1       3.298   5.904  19.547  0.00  0.00    +0.000 C 
BRANCH   7  11
ATOM      8  C   UNL     1       0.982   9.537  18.948  0.00  0.00    +0.000 A 
ATOM      9  C   UNL     1       1.087   8.932  20.206  0.00  0.00    +0.000 A 
ATOM     10  C   UNL     1       1.830   7.760  20.379  0.00  0.00    +0.000 A 
ATOM     11  C   UNL     1       2.470   7.142  19.295  0.00  0.00    +0.000 A 
ATOM     12  C   UNL     1       2.377   7.752  18.038  0.00  0.00    +0.000 A 
ATOM     13  C   UNL     1       1.646   8.930  17.871  0.00  0.00    +0.000 A 
BRANCH   8  17
ATOM     14  C   UNL     1      -1.557  12.203  18.133  0.00  0.00    +0.000 A 
ATOM     15  C   UNL     1      -0.576  13.099  18.473  0.00  0.00    +0.000 A 
ATOM     16  S   UNL     1       0.864  12.322  18.958  0.00  0.00    +0.000 S 
ATOM     17  C   UNL     1       0.191  10.758  18.719  0.00  0.00    +0.000 A 
ATOM     18  C   UNL     1      -1.118  10.857  18.277  0.00  0.00    +0.000 A 
ENDBRANCH   8  17
ENDBRANCH   7  11
ENDBRANCH   1   7
BRANCH   4  19
ATOM     19  O   UNL     1       6.344   3.756  15.258  0.00  0.00    +0.000 OA
BRANCH  19  20
ATOM     20  C   UNL     1       6.657   4.715  14.244  0.00  0.00    +0.000 C 
BRANCH  20  21
ATOM     21  C   UNL     1       6.347   4.118  12.855  0.00  0.00    +0.000 C 
ATOM     22  C   UNL     1       4.868   3.697  12.779  0.00  0.00    +0.000 C 
ATOM     23  C   UNL     1       4.550   2.992  11.466  0.00  0.00    +0.000 C 
ATOM     24  C   UNL     1       5.527   1.850  11.224  0.00  0.00    +0.000 C 
ATOM     25  C   UNL     1       6.970   2.339  11.314  0.00  0.00    +0.000 C 
ATOM     26  N   UNL     1       7.242   2.973  12.602  0.00  0.00    +0.000 NA
ATOM     27  H   UNL     1       8.211   3.290  12.619  0.00  0.00    +0.000 HD
ENDBRANCH  20  21
ENDBRANCH  19  20
ENDBRANCH   4  19
TORSDOF 6
ENDMDL
MODEL 9
REMARK VINA RESULT:      -7.5      0.431      1.032
REMARK  Name = 
REMARK  6 active torsions:
REMARK  status: ('A' for Active; 'I' for Inactive)
REMARK    1  A    between atoms: C_4  and  C_5
REMARK    2  A    between atoms: C_8  and  C_9
REMARK    3  A    between atoms: C_9  and  C_10
REMARK    4  A    between atoms: C_13  and  O_14
REMARK    5  A    between atoms: O_14  and  C_15
REMARK    6  A    between atoms: C_15  and  C_16
REMARK                            x       y       z     vdW  Elec       q    Type
REMARK                         _______ _______ _______ _____ _____    ______ ____
ROOT
ATOM      1  C   UNL     1       1.502   9.568  18.994  0.00  0.00    +0.000 A 
ATOM      2  C   UNL     1       1.286   8.715  20.084  0.00  0.00    +0.000 A 
ATOM      3  C   UNL     1       1.690   7.380  20.028  0.00  0.00    +0.000 A 
ATOM      4  C   UNL     1       2.285   6.874  18.873  0.00  0.00    +0.000 A 
ATOM      5  C   UNL     1       2.539   7.726  17.799  0.00  0.00    +0.000 A 
ATOM      6  C   UNL     1       2.161   9.069  17.864  0.00  0.00    +0.000 A 
ENDROOT
BRANCH   1   7
ATOM      7  C   UNL     1       1.020  10.999  19.026  0.00  0.00    +0.000 C 
BRANCH   7  11
ATOM      8  C   UNL     1      -3.271  11.490  18.507  0.00  0.00    +0.000 A 
ATOM      9  C   UNL     1      -2.556  10.502  17.819  0.00  0.00    +0.000 A 
ATOM     10  C   UNL     1      -1.175  10.363  17.993  0.00  0.00    +0.000 A 
ATOM     11  C   UNL     1      -0.462  11.224  18.840  0.00  0.00    +0.000 A 
ATOM     12  C   UNL     1      -1.176  12.205  19.539  0.00  0.00    +0.000 A 
ATOM     13  C   UNL     1      -2.557  12.331  19.374  0.00  0.00    +0.000 A 
BRANCH   8  17
ATOM     14  C   UNL     1      -6.808  12.156  17.383  0.00  0.00    +0.000 A 
ATOM     15  C   UNL     1      -7.158  11.929  18.689  0.00  0.00    +0.000 A 
ATOM     16  S   UNL     1      -5.808  11.549  19.661  0.00  0.00    +0.000 S 
ATOM     17  C   UNL     1      -4.720  11.684  18.336  0.00  0.00    +0.000 A 
ATOM     18  C   UNL     1      -5.407  12.012  17.179  0.00  0.00    +0.000 A 
ENDBRANCH   8  17
ENDBRANCH   7  11
ENDBRANCH   1   7
BRANCH   4  19
ATOM     19  O   UNL     1       2.606   5.543  18.917  0.00  0.00    +0.000 OA
BRANCH  19  20
ATOM     20  C   UNL     1       3.791   5.227  19.654  0.00  0.00    +0.000 C 
BRANCH  20  21
ATOM     21  C   UNL     1       5.031   5.483  18.771  0.00  0.00    +0.000 C 
ATOM     22  C   UNL     1       5.062   4.485  17.599  0.00  0.00    +0.000 C 
ATOM     23  C   UNL     1       6.334   4.626  16.772  0.00  0.00    +0.000 C 
ATOM     24  C   UNL     1       7.562   4.559  17.668  0.00  0.00    +0.000 C 
ATOM     25  C   UNL     1       7.465   5.573  18.804  0.00  0.00    +0.000 C 
ATOM     26  N   UNL     1       6.251   5.377  19.594  0.00  0.00    +0.000 NA
ATOM     27  H   UNL     1       6.220   6.076  20.337  0.00  0.00    +0.000 HD
ENDBRANCH  20  21
ENDBRANCH  19  20
ENDBRANCH   4  19
TORSDOF 6
ENDMDL
