MODEL 1
REMARK VINA RESULT:      -8.7      0.000      0.000
REMARK  Name = 
REMARK  7 active torsions:
REMARK  status: ('A' for Active; 'I' for Inactive)
REMARK    1  A    between atoms: C_1  and  C_2
REMARK    2  A    between atoms: C_6  and  N_7
REMARK    3  A    between atoms: N_7  and  N_8
REMARK    4  A    between atoms: C_9  and  C_11
REMARK    5  A    between atoms: N_13  and  N_14
REMARK    6  A    between atoms: N_14  and  C_15
REMARK    7  A    between atoms: C_19  and  C_20
REMARK                            x       y       z     vdW  Elec       q    Type
REMARK                         _______ _______ _______ _____ _____    ______ ____
ROOT
ATOM      1  N   UNL     1       6.485   5.002  17.968  0.00  0.00    +0.000 N 
ATOM      2  C   UNL     1       7.366   5.839  18.629  0.00  0.00    +0.000 C 
ATOM      3  O   UNL     1       7.899   5.625  19.710  0.00  0.00    +0.000 OA
ATOM      4  H   UNL     1       5.890   5.410  17.249  0.00  0.00    +0.000 HD
ENDROOT
BRANCH   2   5
ATOM      5  C   UNL     1       7.643   7.143  17.857  0.00  0.00    +0.000 C 
ATOM      6  O   UNL     1       7.257   7.275  16.701  0.00  0.00    +0.000 OA
ATOM      7  N   UNL     1       8.332   8.087  18.597  0.00  0.00    +0.000 N 
ATOM      8  H   UNL     1       8.330   8.000  19.611  0.00  0.00    +0.000 HD
BRANCH   7   9
ATOM      9  N   UNL     1       8.445   9.381  18.066  0.00  0.00    +0.000 N 
ATOM     10  H   UNL     1       8.620   9.379  17.054  0.00  0.00    +0.000 HD
BRANCH   9  11
ATOM     11  C   UNL     1       9.339  10.253  18.740  0.00  0.00    +0.000 A 
ATOM     12  C   UNL     1       9.287  10.512  20.116  0.00  0.00    +0.000 A 
ATOM     13  C   UNL     1      10.124  11.467  20.701  0.00  0.00    +0.000 A 
ATOM     14  C   UNL     1      11.007  12.204  19.915  0.00  0.00    +0.000 A 
ATOM     15  C   UNL     1      11.065  11.987  18.536  0.00  0.00    +0.000 A 
ATOM     16  C   UNL     1      11.978  12.802  17.667  0.00  0.00    +0.000 C 
ATOM     17  C   UNL     1      10.234  11.009  17.964  0.00  0.00    +0.000 A 
ENDBRANCH   9  11
ENDBRANCH   7   9
ENDBRANCH   2   5
BRANCH   1  18
ATOM     18  N   UNL     1       6.002   3.872  18.641  0.00  0.00    +0.000 N 
ATOM     19  H   UNL     1       6.501   3.014  18.379  0.00  0.00    +0.000 HD
BRANCH  18  25
ATOM     20  C   UNL     1       1.662   2.724  20.850  0.00  0.00    +0.000 C 
ATOM     21  C   UNL     1       2.451   3.063  19.620  0.00  0.00    +0.000 A 
ATOM     22  C   UNL     1       1.849   3.067  18.360  0.00  0.00    +0.000 A 
ATOM     23  C   UNL     1       2.603   3.367  17.230  0.00  0.00    +0.000 A 
ATOM     24  C   UNL     1       3.965   3.662  17.349  0.00  0.00    +0.000 A 
ATOM     25  C   UNL     1       4.595   3.686  18.603  0.00  0.00    +0.000 A 
ATOM     26  C   UNL     1       3.821   3.364  19.729  0.00  0.00    +0.000 A 
ENDBRANCH  18  25
ENDBRANCH   1  18
TORSDOF 5
ENDMDL
MODEL 2
REMARK VINA RESULT:      -8.7      1.144      9.205
REMARK  Name = 
REMARK  7 active torsions:
REMARK  status: ('A' for Active; 'I' for Inactive)
REMARK    1  A    between atoms: C_1  and  C_2
REMARK    2  A    between atoms: C_6  and  N_7
REMARK    3  A    between atoms: N_7  and  N_8
REMARK    4  A    between atoms: C_9  and  C_11
REMARK    5  A    between atoms: N_13  and  N_14
REMARK    6  A    between atoms: N_14  and  C_15
REMARK    7  A    between atoms: C_19  and  C_20
REMARK                            x       y       z     vdW  Elec       q    Type
REMARK                         _______ _______ _______ _____ _____    ______ ____
ROOT
ATOM      1  N   UNL     1       7.841   7.569  18.291  0.00  0.00    +0.000 N 
ATOM      2  C   UNL     1       7.446   6.400  17.666  0.00  0.00    +0.000 C 
ATOM      3  O   UNL     1       7.458   6.180  16.462  0.00  0.00    +0.000 OA
ATOM      4  H   UNL     1       7.507   7.738  19.238  0.00  0.00    +0.000 HD
ENDROOT
BRANCH   2   5
ATOM      5  C   UNL     1       6.957   5.329  18.660  0.00  0.00    +0.000 C 
ATOM      6  O   UNL     1       7.179   5.446  19.859  0.00  0.00    +0.000 OA
ATOM      7  N   UNL     1       6.271   4.290  18.057  0.00  0.00    +0.000 N 
ATOM      8  H   UNL     1       5.885   4.442  17.128  0.00  0.00    +0.000 HD
BRANCH   7   9
ATOM      9  N   UNL     1       5.600   3.380  18.888  0.00  0.00    +0.000 N 
ATOM     10  H   UNL     1       5.975   2.426  18.813  0.00  0.00    +0.000 HD
BRANCH   9  11
ATOM     11  C   UNL     1       4.184   3.382  18.796  0.00  0.00    +0.000 A 
ATOM     12  C   UNL     1       3.476   3.823  17.670  0.00  0.00    +0.000 A 
ATOM     13  C   UNL     1       2.080   3.905  17.682  0.00  0.00    +0.000 A 
ATOM     14  C   UNL     1       1.367   3.578  18.833  0.00  0.00    +0.000 A 
ATOM     15  C   UNL     1       2.045   3.159  19.981  0.00  0.00    +0.000 A 
ATOM     16  C   UNL     1       1.298   2.844  21.244  0.00  0.00    +0.000 C 
ATOM     17  C   UNL     1       3.446   3.059  19.948  0.00  0.00    +0.000 A 
ENDBRANCH   9  11
ENDBRANCH   7   9
ENDBRANCH   2   5
BRANCH   1  18
ATOM     18  N   UNL     1       8.130   8.687  17.498  0.00  0.00    +0.000 N 
ATOM     19  H   UNL     1       8.778   8.471  16.732  0.00  0.00    +0.000 HD
BRANCH  18  25
ATOM     20  C   UNL     1       8.897  13.626  17.731  0.00  0.00    +0.000 C 
ATOM     21  C   UNL     1       8.988  12.261  18.345  0.00  0.00    +0.000 A 
ATOM     22  C   UNL     1       9.604  12.071  19.584  0.00  0.00    +0.000 A 
ATOM     23  C   UNL     1       9.693  10.794  20.129  0.00  0.00    +0.000 A 
ATOM     24  C   UNL     1       9.170   9.695  19.438  0.00  0.00    +0.000 A 
ATOM     25  C   UNL     1       8.528   9.856  18.201  0.00  0.00    +0.000 A 
ATOM     26  C   UNL     1       8.463  11.150  17.661  0.00  0.00    +0.000 A 
ENDBRANCH  18  25
ENDBRANCH   1  18
TORSDOF 5
ENDMDL
MODEL 3
REMARK VINA RESULT:      -8.5      0.447      9.401
REMARK  Name = 
REMARK  7 active torsions:
REMARK  status: ('A' for Active; 'I' for Inactive)
REMARK    1  A    between atoms: C_1  and  C_2
REMARK    2  A    between atoms: C_6  and  N_7
REMARK    3  A    between atoms: N_7  and  N_8
REMARK    4  A    between atoms: C_9  and  C_11
REMARK    5  A    between atoms: N_13  and  N_14
REMARK    6  A    between atoms: N_14  and  C_15
REMARK    7  A    between atoms: C_19  and  C_20
REMARK                            x       y       z     vdW  Elec       q    Type
REMARK                         _______ _______ _______ _____ _____    ______ ____
ROOT
ATOM      1  N   UNL     1       8.245   8.095  18.379  0.00  0.00    +0.000 N 
ATOM      2  C   UNL     1       7.500   7.139  17.715  0.00  0.00    +0.000 C 
ATOM      3  O   UNL     1       7.037   7.234  16.585  0.00  0.00    +0.000 OA
ATOM      4  H   UNL     1       8.311   8.028  19.393  0.00  0.00    +0.000 HD
ENDROOT
BRANCH   2   5
ATOM      5  C   UNL     1       7.279   5.866  18.554  0.00  0.00    +0.000 C 
ATOM      6  O   UNL     1       7.922   5.679  19.580  0.00  0.00    +0.000 OA
ATOM      7  N   UNL     1       6.314   5.022  18.034  0.00  0.00    +0.000 N 
ATOM      8  H   UNL     1       5.643   5.407  17.372  0.00  0.00    +0.000 HD
BRANCH   7   9
ATOM      9  N   UNL     1       5.884   3.949  18.829  0.00  0.00    +0.000 N 
ATOM     10  H   UNL     1       6.497   3.128  18.749  0.00  0.00    +0.000 HD
BRANCH   9  11
ATOM     11  C   UNL     1       4.519   3.586  18.697  0.00  0.00    +0.000 A 
ATOM     12  C   UNL     1       3.959   3.073  17.519  0.00  0.00    +0.000 A 
ATOM     13  C   UNL     1       2.584   2.839  17.417  0.00  0.00    +0.000 A 
ATOM     14  C   UNL     1       1.739   3.143  18.481  0.00  0.00    +0.000 A 
ATOM     15  C   UNL     1       2.262   3.679  19.660  0.00  0.00    +0.000 A 
ATOM     16  C   UNL     1       1.362   4.055  20.802  0.00  0.00    +0.000 C 
ATOM     17  C   UNL     1       3.648   3.889  19.757  0.00  0.00    +0.000 A 
ENDBRANCH   9  11
ENDBRANCH   7   9
ENDBRANCH   2   5
BRANCH   1  18
ATOM     18  N   UNL     1       8.363   9.369  17.808  0.00  0.00    +0.000 N 
ATOM     19  H   UNL     1       8.624   9.334  16.815  0.00  0.00    +0.000 HD
BRANCH  18  25
ATOM     20  C   UNL     1      12.070  12.722  18.020  0.00  0.00    +0.000 C 
ATOM     21  C   UNL     1      11.020  11.893  18.698  0.00  0.00    +0.000 A 
ATOM     22  C   UNL     1      10.891  11.895  20.088  0.00  0.00    +0.000 A 
ATOM     23  C   UNL     1       9.920  11.106  20.698  0.00  0.00    +0.000 A 
ATOM     24  C   UNL     1       9.075  10.304  19.924  0.00  0.00    +0.000 A 
ATOM     25  C   UNL     1       9.167  10.295  18.523  0.00  0.00    +0.000 A 
ATOM     26  C   UNL     1      10.163  11.085  17.929  0.00  0.00    +0.000 A 
ENDBRANCH  18  25
ENDBRANCH   1  18
TORSDOF 5
ENDMDL
MODEL 4
REMARK VINA RESULT:      -8.3      1.191      1.581
REMARK  Name = 
REMARK  7 active torsions:
REMARK  status: ('A' for Active; 'I' for Inactive)
REMARK    1  A    between atoms: C_1  and  C_2
REMARK    2  A    between atoms: C_6  and  N_7
REMARK    3  A    between atoms: N_7  and  N_8
REMARK    4  A    between atoms: C_9  and  C_11
REMARK    5  A    between atoms: N_13  and  N_14
REMARK    6  A    between atoms: N_14  and  C_15
REMARK    7  A    between atoms: C_19  and  C_20
REMARK                            x       y       z     vdW  Elec       q    Type
REMARK                         _______ _______ _______ _____ _____    ______ ____
ROOT
ATOM      1  N   UNL     1       6.492   4.832  18.199  0.00  0.00    +0.000 N 
ATOM      2  C   UNL     1       7.355   5.696  18.848  0.00  0.00    +0.000 C 
ATOM      3  O   UNL     1       7.767   5.584  19.996  0.00  0.00    +0.000 OA
ATOM      4  H   UNL     1       5.996   5.182  17.381  0.00  0.00    +0.000 HD
ENDROOT
BRANCH   2   5
ATOM      5  C   UNL     1       7.783   6.885  17.968  0.00  0.00    +0.000 C 
ATOM      6  O   UNL     1       7.653   6.836  16.751  0.00  0.00    +0.000 OA
ATOM      7  N   UNL     1       8.293   7.950  18.689  0.00  0.00    +0.000 N 
ATOM      8  H   UNL     1       8.074   8.009  19.681  0.00  0.00    +0.000 HD
BRANCH   7   9
ATOM      9  N   UNL     1       8.509   9.158  18.009  0.00  0.00    +0.000 N 
ATOM     10  H   UNL     1       8.840   9.016  17.046  0.00  0.00    +0.000 HD
BRANCH   9  11
ATOM     11  C   UNL     1       9.303  10.119  18.686  0.00  0.00    +0.000 A 
ATOM     12  C   UNL     1       9.248  10.342  20.069  0.00  0.00    +0.000 A 
ATOM     13  C   UNL     1       9.973  11.380  20.661  0.00  0.00    +0.000 A 
ATOM     14  C   UNL     1      10.743  12.236  19.878  0.00  0.00    +0.000 A 
ATOM     15  C   UNL     1      10.799  12.057  18.493  0.00  0.00    +0.000 A 
ATOM     16  C   UNL     1      11.588  12.995  17.627  0.00  0.00    +0.000 C 
ATOM     17  C   UNL     1      10.083  10.996  17.913  0.00  0.00    +0.000 A 
ENDBRANCH   9  11
ENDBRANCH   7   9
ENDBRANCH   2   5
BRANCH   1  18
ATOM     18  N   UNL     1       5.879   3.814  18.940  0.00  0.00    +0.000 N 
ATOM     19  H   UNL     1       5.964   2.894  18.492  0.00  0.00    +0.000 HD
BRANCH  18  25
ATOM     20  C   UNL     1       2.129   6.956  19.987  0.00  0.00    +0.000 C 
ATOM     21  C   UNL     1       2.697   5.568  19.948  0.00  0.00    +0.000 A 
ATOM     22  C   UNL     1       1.977   4.484  20.455  0.00  0.00    +0.000 A 
ATOM     23  C   UNL     1       2.528   3.207  20.424  0.00  0.00    +0.000 A 
ATOM     24  C   UNL     1       3.805   3.003  19.890  0.00  0.00    +0.000 A 
ATOM     25  C   UNL     1       4.545   4.069  19.354  0.00  0.00    +0.000 A 
ATOM     26  C   UNL     1       3.978   5.351  19.410  0.00  0.00    +0.000 A 
ENDBRANCH  18  25
ENDBRANCH   1  18
TORSDOF 5
ENDMDL
MODEL 5
REMARK VINA RESULT:      -8.3      4.813      8.430
REMARK  Name = 
REMARK  7 active torsions:
REMARK  status: ('A' for Active; 'I' for Inactive)
REMARK    1  A    between atoms: C_1  and  C_2
REMARK    2  A    between atoms: C_6  and  N_7
REMARK    3  A    between atoms: N_7  and  N_8
REMARK    4  A    between atoms: C_9  and  C_11
REMARK    5  A    between atoms: N_13  and  N_14
REMARK    6  A    between atoms: N_14  and  C_15
REMARK    7  A    between atoms: C_19  and  C_20
REMARK                            x       y       z     vdW  Elec       q    Type
REMARK                         _______ _______ _______ _____ _____    ______ ____
ROOT
ATOM      1  N   UNL     1       6.527   4.543  15.166  0.00  0.00    +0.000 N 
ATOM      2  C   UNL     1       7.024   5.286  16.220  0.00  0.00    +0.000 C 
ATOM      3  O   UNL     1       7.636   6.343  16.139  0.00  0.00    +0.000 OA
ATOM      4  H   UNL     1       6.314   3.561  15.335  0.00  0.00    +0.000 HD
ENDROOT
BRANCH   2   5
ATOM      5  C   UNL     1       6.736   4.645  17.591  0.00  0.00    +0.000 C 
ATOM      6  O   UNL     1       7.370   4.986  18.582  0.00  0.00    +0.000 OA
ATOM      7  N   UNL     1       5.727   3.700  17.557  0.00  0.00    +0.000 N 
ATOM      8  H   UNL     1       5.076   3.717  16.774  0.00  0.00    +0.000 HD
BRANCH   7   9
ATOM      9  N   UNL     1       5.241   3.216  18.781  0.00  0.00    +0.000 N 
ATOM     10  H   UNL     1       5.605   2.281  19.008  0.00  0.00    +0.000 HD
BRANCH   9  11
ATOM     11  C   UNL     1       3.834   3.275  18.959  0.00  0.00    +0.000 A 
ATOM     12  C   UNL     1       2.955   3.859  18.037  0.00  0.00    +0.000 A 
ATOM     13  C   UNL     1       1.592   3.986  18.321  0.00  0.00    +0.000 A 
ATOM     14  C   UNL     1       1.088   3.561  19.547  0.00  0.00    +0.000 A 
ATOM     15  C   UNL     1       1.942   2.998  20.499  0.00  0.00    +0.000 A 
ATOM     16  C   UNL     1       1.425   2.574  21.843  0.00  0.00    +0.000 C 
ATOM     17  C   UNL     1       3.306   2.856  20.191  0.00  0.00    +0.000 A 
ENDBRANCH   9  11
ENDBRANCH   7   9
ENDBRANCH   2   5
BRANCH   1  18
ATOM     18  N   UNL     1       6.879   4.912  13.861  0.00  0.00    +0.000 N 
ATOM     19  H   UNL     1       6.649   5.890  13.652  0.00  0.00    +0.000 HD
BRANCH  18  25
ATOM     20  C   UNL     1       3.238   2.942  11.050  0.00  0.00    +0.000 C 
ATOM     21  C   UNL     1       4.676   2.993  11.475  0.00  0.00    +0.000 A 
ATOM     22  C   UNL     1       5.606   2.082  10.972  0.00  0.00    +0.000 A 
ATOM     23  C   UNL     1       6.932   2.136  11.392  0.00  0.00    +0.000 A 
ATOM     24  C   UNL     1       7.337   3.100  12.322  0.00  0.00    +0.000 A 
ATOM     25  C   UNL     1       6.431   4.042  12.832  0.00  0.00    +0.000 A 
ATOM     26  C   UNL     1       5.095   3.960  12.407  0.00  0.00    +0.000 A 
ENDBRANCH  18  25
ENDBRANCH   1  18
TORSDOF 5
ENDMDL
MODEL 6
REMARK VINA RESULT:      -8.2      4.989      7.646
REMARK  Name = 
REMARK  7 active torsions:
REMARK  status: ('A' for Active; 'I' for Inactive)
REMARK    1  A    between atoms: C_1  and  C_2
REMARK    2  A    between atoms: C_6  and  N_7
REMARK    3  A    between atoms: N_7  and  N_8
REMARK    4  A    between atoms: C_9  and  C_11
REMARK    5  A    between atoms: N_13  and  N_14
REMARK    6  A    between atoms: N_14  and  C_15
REMARK    7  A    between atoms: C_19  and  C_20
REMARK                            x       y       z     vdW  Elec       q    Type
REMARK                         _______ _______ _______ _____ _____    ______ ____
ROOT
ATOM      1  N   UNL     1       5.684   3.896  17.718  0.00  0.00    +0.000 N 
ATOM      2  C   UNL     1       6.917   4.470  17.472  0.00  0.00    +0.000 C 
ATOM      3  O   UNL     1       7.848   4.558  18.262  0.00  0.00    +0.000 OA
ATOM      4  H   UNL     1       4.911   4.149  17.105  0.00  0.00    +0.000 HD
ENDROOT
BRANCH   2   5
ATOM      5  C   UNL     1       7.041   5.029  16.042  0.00  0.00    +0.000 C 
ATOM      6  O   UNL     1       7.586   6.108  15.841  0.00  0.00    +0.000 OA
ATOM      7  N   UNL     1       6.496   4.201  15.076  0.00  0.00    +0.000 N 
ATOM      8  H   UNL     1       6.354   3.220  15.308  0.00  0.00    +0.000 HD
BRANCH   7   9
ATOM      9  N   UNL     1       6.746   4.511  13.731  0.00  0.00    +0.000 N 
ATOM     10  H   UNL     1       6.468   5.471  13.489  0.00  0.00    +0.000 HD
BRANCH   9  11
ATOM     11  C   UNL     1       6.258   3.580  12.778  0.00  0.00    +0.000 A 
ATOM     12  C   UNL     1       7.050   2.592  12.177  0.00  0.00    +0.000 A 
ATOM     13  C   UNL     1       6.538   1.777  11.162  0.00  0.00    +0.000 A 
ATOM     14  C   UNL     1       5.234   1.956  10.707  0.00  0.00    +0.000 A 
ATOM     15  C   UNL     1       4.427   2.949  11.268  0.00  0.00    +0.000 A 
ATOM     16  C   UNL     1       3.034   3.187  10.761  0.00  0.00    +0.000 C 
ATOM     17  C   UNL     1       4.947   3.747  12.302  0.00  0.00    +0.000 A 
ENDBRANCH   9  11
ENDBRANCH   7   9
ENDBRANCH   2   5
BRANCH   1  18
ATOM     18  N   UNL     1       5.370   3.517  19.030  0.00  0.00    +0.000 N 
ATOM     19  H   UNL     1       5.765   2.603  19.281  0.00  0.00    +0.000 HD
BRANCH  18  25
ATOM     20  C   UNL     1       1.440   6.088  20.755  0.00  0.00    +0.000 C 
ATOM     21  C   UNL     1       2.057   4.801  20.294  0.00  0.00    +0.000 A 
ATOM     22  C   UNL     1       1.338   3.605  20.336  0.00  0.00    +0.000 A 
ATOM     23  C   UNL     1       1.935   2.419  19.919  0.00  0.00    +0.000 A 
ATOM     24  C   UNL     1       3.257   2.418  19.460  0.00  0.00    +0.000 A 
ATOM     25  C   UNL     1       3.999   3.607  19.387  0.00  0.00    +0.000 A 
ATOM     26  C   UNL     1       3.384   4.790  19.828  0.00  0.00    +0.000 A 
ENDBRANCH  18  25
ENDBRANCH   1  18
TORSDOF 5
ENDMDL
MODEL 7
REMARK VINA RESULT:      -8.2      5.024      7.684
REMARK  Name = 
REMARK  7 active torsions:
REMARK  status: ('A' for Active; 'I' for Inactive)
REMARK    1  A    between atoms: C_1  and  C_2
REMARK    2  A    between atoms: C_6  and  N_7
REMARK    3  A    between atoms: N_7  and  N_8
REMARK    4  A    between atoms: C_9  and  C_11
REMARK    5  A    between atoms: N_13  and  N_14
REMARK    6  A    between atoms: N_14  and  C_15
REMARK    7  A    between atoms: C_19  and  C_20
REMARK                            x       y       z     vdW  Elec       q    Type
REMARK                         _______ _______ _______ _____ _____    ______ ____
ROOT
ATOM      1  N   UNL     1       5.650   3.849  17.731  0.00  0.00    +0.000 N 
ATOM      2  C   UNL     1       6.886   4.426  17.501  0.00  0.00    +0.000 C 
ATOM      3  O   UNL     1       7.809   4.507  18.301  0.00  0.00    +0.000 OA
ATOM      4  H   UNL     1       4.883   4.107  17.114  0.00  0.00    +0.000 HD
ENDROOT
BRANCH   2   5
ATOM      5  C   UNL     1       7.021   4.998  16.078  0.00  0.00    +0.000 C 
ATOM      6  O   UNL     1       7.500   6.111  15.898  0.00  0.00    +0.000 OA
ATOM      7  N   UNL     1       6.568   4.139  15.092  0.00  0.00    +0.000 N 
ATOM      8  H   UNL     1       6.482   3.150  15.317  0.00  0.00    +0.000 HD
BRANCH   7   9
ATOM      9  N   UNL     1       6.843   4.470  13.757  0.00  0.00    +0.000 N 
ATOM     10  H   UNL     1       6.837   5.485  13.592  0.00  0.00    +0.000 HD
BRANCH   9  11
ATOM     11  C   UNL     1       6.078   3.787  12.776  0.00  0.00    +0.000 A 
ATOM     12  C   UNL     1       4.811   4.204  12.346  0.00  0.00    +0.000 A 
ATOM     13  C   UNL     1       4.060   3.427  11.459  0.00  0.00    +0.000 A 
ATOM     14  C   UNL     1       4.547   2.202  11.011  0.00  0.00    +0.000 A 
ATOM     15  C   UNL     1       5.796   1.746  11.441  0.00  0.00    +0.000 A 
ATOM     16  C   UNL     1       6.320   0.409  11.004  0.00  0.00    +0.000 C 
ATOM     17  C   UNL     1       6.551   2.547  12.315  0.00  0.00    +0.000 A 
ENDBRANCH   9  11
ENDBRANCH   7   9
ENDBRANCH   2   5
BRANCH   1  18
ATOM     18  N   UNL     1       5.325   3.459  19.037  0.00  0.00    +0.000 N 
ATOM     19  H   UNL     1       5.504   2.462  19.207  0.00  0.00    +0.000 HD
BRANCH  18  25
ATOM     20  C   UNL     1       1.944   6.944  20.244  0.00  0.00    +0.000 C 
ATOM     21  C   UNL     1       2.365   5.506  20.163  0.00  0.00    +0.000 A 
ATOM     22  C   UNL     1       1.552   4.491  20.671  0.00  0.00    +0.000 A 
ATOM     23  C   UNL     1       1.969   3.165  20.602  0.00  0.00    +0.000 A 
ATOM     24  C   UNL     1       3.204   2.844  20.028  0.00  0.00    +0.000 A 
ATOM     25  C   UNL     1       4.035   3.840  19.492  0.00  0.00    +0.000 A 
ATOM     26  C   UNL     1       3.603   5.172  19.586  0.00  0.00    +0.000 A 
ENDBRANCH  18  25
ENDBRANCH   1  18
TORSDOF 5
ENDMDL
MODEL 8
REMARK VINA RESULT:      -8.1      4.916      7.829
REMARK  Name = 
REMARK  7 active torsions:
REMARK  status: ('A' for Active; 'I' for Inactive)
REMARK    1  A    between atoms: C_1  and  C_2
REMARK    2  A    between atoms: C_6  and  N_7
REMARK    3  A    between atoms: N_7  and  N_8
REMARK    4  A    between atoms: C_9  and  C_11
REMARK    5  A    between atoms: N_13  and  N_14
REMARK    6  A    between atoms: N_14  and  C_15
REMARK    7  A    between atoms: C_19  and  C_20
REMARK                            x       y       z     vdW  Elec       q    Type
REMARK                         _______ _______ _______ _____ _____    ______ ____
ROOT
ATOM      1  N   UNL     1       6.622   4.390  15.111  0.00  0.00    +0.000 N 
ATOM      2  C   UNL     1       7.061   5.185  16.153  0.00  0.00    +0.000 C 
ATOM      3  O   UNL     1       7.519   6.316  16.061  0.00  0.00    +0.000 OA
ATOM      4  H   UNL     1       6.552   3.387  15.274  0.00  0.00    +0.000 HD
ENDROOT
BRANCH   2   5
ATOM      5  C   UNL     1       6.928   4.497  17.525  0.00  0.00    +0.000 C 
ATOM      6  O   UNL     1       7.871   4.481  18.307  0.00  0.00    +0.000 OA
ATOM      7  N   UNL     1       5.679   3.943  17.746  0.00  0.00    +0.000 N 
ATOM      8  H   UNL     1       4.899   4.273  17.181  0.00  0.00    +0.000 HD
BRANCH   7   9
ATOM      9  N   UNL     1       5.385   3.486  19.039  0.00  0.00    +0.000 N 
ATOM     10  H   UNL     1       5.573   2.482  19.156  0.00  0.00    +0.000 HD
BRANCH   9  11
ATOM     11  C   UNL     1       4.103   3.829  19.543  0.00  0.00    +0.000 A 
ATOM     12  C   UNL     1       3.113   2.890  19.861  0.00  0.00    +0.000 A 
ATOM     13  C   UNL     1       1.832   3.296  20.246  0.00  0.00    +0.000 A 
ATOM     14  C   UNL     1       1.507   4.650  20.291  0.00  0.00    +0.000 A 
ATOM     15  C   UNL     1       2.465   5.610  19.956  0.00  0.00    +0.000 A 
ATOM     16  C   UNL     1       2.122   7.072  19.956  0.00  0.00    +0.000 C 
ATOM     17  C   UNL     1       3.755   5.189  19.591  0.00  0.00    +0.000 A 
ENDBRANCH   9  11
ENDBRANCH   7   9
ENDBRANCH   2   5
BRANCH   1  18
ATOM     18  N   UNL     1       6.858   4.816  13.797  0.00  0.00    +0.000 N 
ATOM     19  H   UNL     1       6.557   5.784  13.636  0.00  0.00    +0.000 HD
BRANCH  18  25
ATOM     20  C   UNL     1       3.178   2.917  10.989  0.00  0.00    +0.000 C 
ATOM     21  C   UNL     1       4.615   2.935  11.420  0.00  0.00    +0.000 A 
ATOM     22  C   UNL     1       5.523   1.995  10.928  0.00  0.00    +0.000 A 
ATOM     23  C   UNL     1       6.848   2.019  11.353  0.00  0.00    +0.000 A 
ATOM     24  C   UNL     1       7.275   2.979  12.276  0.00  0.00    +0.000 A 
ATOM     25  C   UNL     1       6.391   3.949  12.774  0.00  0.00    +0.000 A 
ATOM     26  C   UNL     1       5.056   3.898  12.345  0.00  0.00    +0.000 A 
ENDBRANCH  18  25
ENDBRANCH   1  18
TORSDOF 5
ENDMDL
MODEL 9
REMARK VINA RESULT:      -8.1      1.440      9.007
REMARK  Name = 
REMARK  7 active torsions:
REMARK  status: ('A' for Active; 'I' for Inactive)
REMARK    1  A    between atoms: C_1  and  C_2
REMARK    2  A    between atoms: C_6  and  N_7
REMARK    3  A    between atoms: N_7  and  N_8
REMARK    4  A    between atoms: C_9  and  C_11
REMARK    5  A    between atoms: N_13  and  N_14
REMARK    6  A    between atoms: N_14  and  C_15
REMARK    7  A    between atoms: C_19  and  C_20
REMARK                            x       y       z     vdW  Elec       q    Type
REMARK                         _______ _______ _______ _____ _____    ______ ____
ROOT
ATOM      1  N   UNL     1       7.606   7.315  17.861  0.00  0.00    +0.000 N 
ATOM      2  C   UNL     1       7.376   6.189  17.092  0.00  0.00    +0.000 C 
ATOM      3  O   UNL     1       7.325   6.142  15.870  0.00  0.00    +0.000 OA
ATOM      4  H   UNL     1       7.329   7.286  18.841  0.00  0.00    +0.000 HD
ENDROOT
BRANCH   2   5
ATOM      5  C   UNL     1       7.174   4.919  17.940  0.00  0.00    +0.000 C 
ATOM      6  O   UNL     1       8.100   4.452  18.592  0.00  0.00    +0.000 OA
ATOM      7  N   UNL     1       5.888   4.412  17.877  0.00  0.00    +0.000 N 
ATOM      8  H   UNL     1       5.141   5.030  17.567  0.00  0.00    +0.000 HD
BRANCH   7   9
ATOM      9  N   UNL     1       5.541   3.391  18.775  0.00  0.00    +0.000 N 
ATOM     10  H   UNL     1       5.963   2.487  18.526  0.00  0.00    +0.000 HD
BRANCH   9  11
ATOM     11  C   UNL     1       4.157   3.252  19.053  0.00  0.00    +0.000 A 
ATOM     12  C   UNL     1       3.361   2.213  18.553  0.00  0.00    +0.000 A 
ATOM     13  C   UNL     1       1.980   2.193  18.772  0.00  0.00    +0.000 A 
ATOM     14  C   UNL     1       1.364   3.229  19.469  0.00  0.00    +0.000 A 
ATOM     15  C   UNL     1       2.126   4.293  19.959  0.00  0.00    +0.000 A 
ATOM     16  C   UNL     1       1.475   5.441  20.673  0.00  0.00    +0.000 C 
ATOM     17  C   UNL     1       3.516   4.290  19.751  0.00  0.00    +0.000 A 
ENDBRANCH   9  11
ENDBRANCH   7   9
ENDBRANCH   2   5
BRANCH   1  18
ATOM     18  N   UNL     1       7.620   8.565  17.231  0.00  0.00    +0.000 N 
ATOM     19  H   UNL     1       7.981   8.519  16.271  0.00  0.00    +0.000 HD
BRANCH  18  25
ATOM     20  C   UNL     1       9.068  13.333  17.688  0.00  0.00    +0.000 C 
ATOM     21  C   UNL     1       9.022  11.927  18.209  0.00  0.00    +0.000 A 
ATOM     22  C   UNL     1       9.705  11.571  19.374  0.00  0.00    +0.000 A 
ATOM     23  C   UNL     1       9.663  10.258  19.832  0.00  0.00    +0.000 A 
ATOM     24  C   UNL     1       8.941   9.288  19.126  0.00  0.00    +0.000 A 
ATOM     25  C   UNL     1       8.229   9.619  17.963  0.00  0.00    +0.000 A 
ATOM     26  C   UNL     1       8.297  10.945  17.510  0.00  0.00    +0.000 A 
ENDBRANCH  18  25
ENDBRANCH   1  18
TORSDOF 5
ENDMDL
