MODEL 1
REMARK VINA RESULT:      -7.2      0.000      0.000
REMARK  Name = 
REMARK  9 active torsions:
REMARK  status: ('A' for Active; 'I' for Inactive)
REMARK    1  A    between atoms: C_1  and  C_2
REMARK    2  A    between atoms: C_5  and  C_6
REMARK    3  A    between atoms: C_7  and  C_8
REMARK    4  A    between atoms: C_8  and  C_10
REMARK    5  A    between atoms: C_12  and  O_13
REMARK    6  A    between atoms: O_13  and  C_14
REMARK    7  A    between atoms: C_14  and  C_15
REMARK    8  A    between atoms: C_14  and  C_16
REMARK    9  A    between atoms: C_19  and  O_20
REMARK                            x       y       z     vdW  Elec       q    Type
REMARK                         _______ _______ _______ _____ _____    ______ ____
ROOT
ATOM      1  C   UNL     1       4.840   4.339  17.363  0.00  0.00    +0.000 A 
ATOM      2  C   UNL     1       4.681   4.380  15.969  0.00  0.00    +0.000 A 
ATOM      3  C   UNL     1       5.789   4.581  15.144  0.00  0.00    +0.000 A 
ATOM      4  C   UNL     1       7.066   4.650  15.706  0.00  0.00    +0.000 A 
ATOM      5  C   UNL     1       7.242   4.573  17.085  0.00  0.00    +0.000 A 
ATOM      6  C   UNL     1       6.129   4.428  17.913  0.00  0.00    +0.000 A 
ENDROOT
BRANCH   1   7
ATOM      7  C   UNL     1       3.607   4.217  18.194  0.00  0.00    +0.000 C 
ATOM      8  O   UNL     1       3.314   3.158  18.736  0.00  0.00    +0.000 OA
BRANCH   7  10
ATOM      9  C   UNL     1       3.067   6.509  18.943  0.00  0.00    +0.000 C 
ATOM     10  C   UNL     1       2.720   5.410  18.257  0.00  0.00    +0.000 C 
BRANCH   9  15
ATOM     11  C   UNL     1      -0.029  10.570  20.316  0.00  0.00    +0.000 C 
ATOM     12  C   UNL     1       0.816   9.611  19.552  0.00  0.00    +0.000 A 
ATOM     13  C   UNL     1       1.153   9.649  18.219  0.00  0.00    +0.000 A 
ATOM     14  C   UNL     1       1.980   8.551  17.846  0.00  0.00    +0.000 A 
ATOM     15  C   UNL     1       2.266   7.690  18.897  0.00  0.00    +0.000 A 
ATOM     16  S   UNL     1       1.504   8.257  20.337  0.00  0.00    +0.000 S 
ENDBRANCH   9  15
ENDBRANCH   7  10
ENDBRANCH   1   7
BRANCH   6  17
ATOM     17  O   UNL     1       6.325   4.357  19.262  0.00  0.00    +0.000 OA
ATOM     18  H   UNL     1       6.576   3.452  19.512  0.00  0.00    +0.000 HD
ENDBRANCH   6  17
BRANCH   3  19
ATOM     19  O   UNL     1       5.760   4.739  13.788  0.00  0.00    +0.000 OA
BRANCH  19  20
ATOM     20  C   UNL     1       6.080   3.605  12.969  0.00  0.00    +0.000 C 
ATOM     21  C   UNL     1       4.904   3.203  12.076  0.00  0.00    +0.000 C 
ATOM     22  C   UNL     1       7.252   4.031  12.084  0.00  0.00    +0.000 C 
ENDBRANCH  19  20
ENDBRANCH   3  19
TORSDOF 6
ENDMDL
MODEL 2
REMARK VINA RESULT:      -6.9      0.808      1.090
REMARK  Name = 
REMARK  9 active torsions:
REMARK  status: ('A' for Active; 'I' for Inactive)
REMARK    1  A    between atoms: C_1  and  C_2
REMARK    2  A    between atoms: C_5  and  C_6
REMARK    3  A    between atoms: C_7  and  C_8
REMARK    4  A    between atoms: C_8  and  C_10
REMARK    5  A    between atoms: C_12  and  O_13
REMARK    6  A    between atoms: O_13  and  C_14
REMARK    7  A    between atoms: C_14  and  C_15
REMARK    8  A    between atoms: C_14  and  C_16
REMARK    9  A    between atoms: C_19  and  O_20
REMARK                            x       y       z     vdW  Elec       q    Type
REMARK                         _______ _______ _______ _____ _____    ______ ____
ROOT
ATOM      1  C   UNL     1       4.919   4.387  17.422  0.00  0.00    +0.000 A 
ATOM      2  C   UNL     1       4.703   4.404  16.035  0.00  0.00    +0.000 A 
ATOM      3  C   UNL     1       5.774   4.608  15.163  0.00  0.00    +0.000 A 
ATOM      4  C   UNL     1       7.071   4.704  15.672  0.00  0.00    +0.000 A 
ATOM      5  C   UNL     1       7.304   4.650  17.043  0.00  0.00    +0.000 A 
ATOM      6  C   UNL     1       6.227   4.503  17.918  0.00  0.00    +0.000 A 
ENDROOT
BRANCH   1   7
ATOM      7  C   UNL     1       3.723   4.261  18.304  0.00  0.00    +0.000 C 
ATOM      8  O   UNL     1       3.414   3.183  18.798  0.00  0.00    +0.000 OA
BRANCH   7  10
ATOM      9  C   UNL     1       2.843   6.141  19.644  0.00  0.00    +0.000 C 
ATOM     10  C   UNL     1       2.886   5.479  18.478  0.00  0.00    +0.000 C 
BRANCH   9  15
ATOM     11  C   UNL     1       0.636  10.826  18.572  0.00  0.00    +0.000 C 
ATOM     12  C   UNL     1       1.085   9.579  19.250  0.00  0.00    +0.000 A 
ATOM     13  C   UNL     1       0.836   9.176  20.542  0.00  0.00    +0.000 A 
ATOM     14  C   UNL     1       1.436   7.919  20.834  0.00  0.00    +0.000 A 
ATOM     15  C   UNL     1       2.135   7.376  19.765  0.00  0.00    +0.000 A 
ATOM     16  S   UNL     1       2.035   8.435  18.407  0.00  0.00    +0.000 S 
ENDBRANCH   9  15
ENDBRANCH   7  10
ENDBRANCH   1   7
BRANCH   6  17
ATOM     17  O   UNL     1       6.479   4.455  19.258  0.00  0.00    +0.000 OA
ATOM     18  H   UNL     1       7.083   5.174  19.508  0.00  0.00    +0.000 HD
ENDBRANCH   6  17
BRANCH   3  19
ATOM     19  O   UNL     1       5.688   4.745  13.807  0.00  0.00    +0.000 OA
BRANCH  19  20
ATOM     20  C   UNL     1       6.176   3.673  12.987  0.00  0.00    +0.000 C 
ATOM     21  C   UNL     1       5.078   3.106  12.085  0.00  0.00    +0.000 C 
ATOM     22  C   UNL     1       7.279   4.269  12.113  0.00  0.00    +0.000 C 
ENDBRANCH  19  20
ENDBRANCH   3  19
TORSDOF 6
ENDMDL
MODEL 3
REMARK VINA RESULT:      -6.8      2.712      5.197
REMARK  Name = 
REMARK  9 active torsions:
REMARK  status: ('A' for Active; 'I' for Inactive)
REMARK    1  A    between atoms: C_1  and  C_2
REMARK    2  A    between atoms: C_5  and  C_6
REMARK    3  A    between atoms: C_7  and  C_8
REMARK    4  A    between atoms: C_8  and  C_10
REMARK    5  A    between atoms: C_12  and  O_13
REMARK    6  A    between atoms: O_13  and  C_14
REMARK    7  A    between atoms: C_14  and  C_15
REMARK    8  A    between atoms: C_14  and  C_16
REMARK    9  A    between atoms: C_19  and  O_20
REMARK                            x       y       z     vdW  Elec       q    Type
REMARK                         _______ _______ _______ _____ _____    ______ ____
ROOT
ATOM      1  C   UNL     1       3.216   6.551  18.096  0.00  0.00    +0.000 A 
ATOM      2  C   UNL     1       2.766   5.596  19.022  0.00  0.00    +0.000 A 
ATOM      3  C   UNL     1       3.286   4.301  18.997  0.00  0.00    +0.000 A 
ATOM      4  C   UNL     1       4.318   3.986  18.110  0.00  0.00    +0.000 A 
ATOM      5  C   UNL     1       4.799   4.935  17.213  0.00  0.00    +0.000 A 
ATOM      6  C   UNL     1       4.241   6.214  17.199  0.00  0.00    +0.000 A 
ENDROOT
BRANCH   1   7
ATOM      7  C   UNL     1       2.554   7.889  18.111  0.00  0.00    +0.000 C 
ATOM      8  O   UNL     1       2.570   8.611  17.122  0.00  0.00    +0.000 OA
BRANCH   7  10
ATOM      9  C   UNL     1       1.095   9.352  19.465  0.00  0.00    +0.000 C 
ATOM     10  C   UNL     1       1.959   8.328  19.401  0.00  0.00    +0.000 C 
BRANCH   9  15
ATOM     11  C   UNL     1      -1.693  11.897  23.168  0.00  0.00    +0.000 C 
ATOM     12  C   UNL     1      -0.889  10.886  22.426  0.00  0.00    +0.000 A 
ATOM     13  C   UNL     1      -0.477   9.646  22.855  0.00  0.00    +0.000 A 
ATOM     14  C   UNL     1       0.281   8.963  21.861  0.00  0.00    +0.000 A 
ATOM     15  C   UNL     1       0.437   9.687  20.687  0.00  0.00    +0.000 A 
ATOM     16  S   UNL     1      -0.363  11.209  20.832  0.00  0.00    +0.000 S 
ENDBRANCH   9  15
ENDBRANCH   7  10
ENDBRANCH   1   7
BRANCH   6  17
ATOM     17  O   UNL     1       4.727   7.127  16.309  0.00  0.00    +0.000 OA
ATOM     18  H   UNL     1       4.183   7.932  16.331  0.00  0.00    +0.000 HD
ENDBRANCH   6  17
BRANCH   3  19
ATOM     19  O   UNL     1       2.869   3.255  19.771  0.00  0.00    +0.000 OA
BRANCH  19  20
ATOM     20  C   UNL     1       1.500   3.236  20.200  0.00  0.00    +0.000 C 
ATOM     21  C   UNL     1       0.618   2.430  19.244  0.00  0.00    +0.000 C 
ATOM     22  C   UNL     1       1.489   2.563  21.572  0.00  0.00    +0.000 C 
ENDBRANCH  19  20
ENDBRANCH   3  19
TORSDOF 6
ENDMDL
MODEL 4
REMARK VINA RESULT:      -6.8      4.568      6.595
REMARK  Name = 
REMARK  9 active torsions:
REMARK  status: ('A' for Active; 'I' for Inactive)
REMARK    1  A    between atoms: C_1  and  C_2
REMARK    2  A    between atoms: C_5  and  C_6
REMARK    3  A    between atoms: C_7  and  C_8
REMARK    4  A    between atoms: C_8  and  C_10
REMARK    5  A    between atoms: C_12  and  O_13
REMARK    6  A    between atoms: O_13  and  C_14
REMARK    7  A    between atoms: C_14  and  C_15
REMARK    8  A    between atoms: C_14  and  C_16
REMARK    9  A    between atoms: C_19  and  O_20
REMARK                            x       y       z     vdW  Elec       q    Type
REMARK                         _______ _______ _______ _____ _____    ______ ____
ROOT
ATOM      1  C   UNL     1       5.995   6.121  17.674  0.00  0.00    +0.000 A 
ATOM      2  C   UNL     1       4.809   6.872  17.722  0.00  0.00    +0.000 A 
ATOM      3  C   UNL     1       3.613   6.265  18.109  0.00  0.00    +0.000 A 
ATOM      4  C   UNL     1       3.618   4.935  18.534  0.00  0.00    +0.000 A 
ATOM      5  C   UNL     1       4.794   4.190  18.528  0.00  0.00    +0.000 A 
ATOM      6  C   UNL     1       5.979   4.780  18.088  0.00  0.00    +0.000 A 
ENDROOT
BRANCH   1   7
ATOM      7  C   UNL     1       7.220   6.801  17.162  0.00  0.00    +0.000 C 
ATOM      8  O   UNL     1       7.742   6.452  16.110  0.00  0.00    +0.000 OA
BRANCH   7  10
ATOM      9  C   UNL     1       8.309   8.990  17.518  0.00  0.00    +0.000 C 
ATOM     10  C   UNL     1       7.816   7.852  18.030  0.00  0.00    +0.000 C 
BRANCH   9  15
ATOM     11  C   UNL     1       9.455  13.769  19.471  0.00  0.00    +0.000 C 
ATOM     12  C   UNL     1       9.294  12.300  19.290  0.00  0.00    +0.000 A 
ATOM     13  C   UNL     1       9.626  11.293  20.167  0.00  0.00    +0.000 A 
ATOM     14  C   UNL     1       9.325  10.005  19.638  0.00  0.00    +0.000 A 
ATOM     15  C   UNL     1       8.767  10.043  18.368  0.00  0.00    +0.000 A 
ATOM     16  S   UNL     1       8.621  11.681  17.845  0.00  0.00    +0.000 S 
ENDBRANCH   9  15
ENDBRANCH   7  10
ENDBRANCH   1   7
BRANCH   6  17
ATOM     17  O   UNL     1       7.120   4.030  18.089  0.00  0.00    +0.000 OA
ATOM     18  H   UNL     1       6.921   3.126  18.385  0.00  0.00    +0.000 HD
ENDBRANCH   6  17
BRANCH   3  19
ATOM     19  O   UNL     1       2.380   6.851  18.104  0.00  0.00    +0.000 OA
BRANCH  19  20
ATOM     20  C   UNL     1       2.259   8.176  18.641  0.00  0.00    +0.000 C 
ATOM     21  C   UNL     1       1.275   9.026  17.834  0.00  0.00    +0.000 C 
ATOM     22  C   UNL     1       1.725   8.016  20.064  0.00  0.00    +0.000 C 
ENDBRANCH  19  20
ENDBRANCH   3  19
TORSDOF 6
ENDMDL
MODEL 5
REMARK VINA RESULT:      -6.6      0.788      1.094
REMARK  Name = 
REMARK  9 active torsions:
REMARK  status: ('A' for Active; 'I' for Inactive)
REMARK    1  A    between atoms: C_1  and  C_2
REMARK    2  A    between atoms: C_5  and  C_6
REMARK    3  A    between atoms: C_7  and  C_8
REMARK    4  A    between atoms: C_8  and  C_10
REMARK    5  A    between atoms: C_12  and  O_13
REMARK    6  A    between atoms: O_13  and  C_14
REMARK    7  A    between atoms: C_14  and  C_15
REMARK    8  A    between atoms: C_14  and  C_16
REMARK    9  A    between atoms: C_19  and  O_20
REMARK                            x       y       z     vdW  Elec       q    Type
REMARK                         _______ _______ _______ _____ _____    ______ ____
ROOT
ATOM      1  C   UNL     1       4.775   4.414  17.747  0.00  0.00    +0.000 A 
ATOM      2  C   UNL     1       4.947   3.867  16.465  0.00  0.00    +0.000 A 
ATOM      3  C   UNL     1       6.205   3.885  15.860  0.00  0.00    +0.000 A 
ATOM      4  C   UNL     1       7.307   4.365  16.571  0.00  0.00    +0.000 A 
ATOM      5  C   UNL     1       7.157   4.874  17.858  0.00  0.00    +0.000 A 
ATOM      6  C   UNL     1       5.891   4.909  18.441  0.00  0.00    +0.000 A 
ENDROOT
BRANCH   1   7
ATOM      7  C   UNL     1       3.390   4.451  18.300  0.00  0.00    +0.000 C 
ATOM      8  O   UNL     1       2.868   3.444  18.762  0.00  0.00    +0.000 OA
BRANCH   7  10
ATOM      9  C   UNL     1       2.641   6.634  19.182  0.00  0.00    +0.000 C 
ATOM     10  C   UNL     1       2.656   5.740  18.183  0.00  0.00    +0.000 C 
BRANCH   9  15
ATOM     11  C   UNL     1       0.085  11.172  20.096  0.00  0.00    +0.000 C 
ATOM     12  C   UNL     1       0.841  10.062  19.454  0.00  0.00    +0.000 A 
ATOM     13  C   UNL     1       1.300   9.982  18.159  0.00  0.00    +0.000 A 
ATOM     14  C   UNL     1       1.982   8.756  17.910  0.00  0.00    +0.000 A 
ATOM     15  C   UNL     1       2.036   7.917  19.015  0.00  0.00    +0.000 A 
ATOM     16  S   UNL     1       1.240   8.663  20.351  0.00  0.00    +0.000 S 
ENDBRANCH   9  15
ENDBRANCH   7  10
ENDBRANCH   1   7
BRANCH   6  17
ATOM     17  O   UNL     1       5.767   5.414  19.702  0.00  0.00    +0.000 OA
ATOM     18  H   UNL     1       6.056   6.342  19.717  0.00  0.00    +0.000 HD
ENDBRANCH   6  17
BRANCH   3  19
ATOM     19  O   UNL     1       6.487   3.479  14.587  0.00  0.00    +0.000 OA
BRANCH  19  20
ATOM     20  C   UNL     1       6.177   4.372  13.509  0.00  0.00    +0.000 C 
ATOM     21  C   UNL     1       7.436   5.029  12.938  0.00  0.00    +0.000 C 
ATOM     22  C   UNL     1       5.524   3.521  12.420  0.00  0.00    +0.000 C 
ENDBRANCH  19  20
ENDBRANCH   3  19
TORSDOF 6
ENDMDL
MODEL 6
REMARK VINA RESULT:      -6.6      4.350      6.762
REMARK  Name = 
REMARK  9 active torsions:
REMARK  status: ('A' for Active; 'I' for Inactive)
REMARK    1  A    between atoms: C_1  and  C_2
REMARK    2  A    between atoms: C_5  and  C_6
REMARK    3  A    between atoms: C_7  and  C_8
REMARK    4  A    between atoms: C_8  and  C_10
REMARK    5  A    between atoms: C_12  and  O_13
REMARK    6  A    between atoms: O_13  and  C_14
REMARK    7  A    between atoms: C_14  and  C_15
REMARK    8  A    between atoms: C_14  and  C_16
REMARK    9  A    between atoms: C_19  and  O_20
REMARK                            x       y       z     vdW  Elec       q    Type
REMARK                         _______ _______ _______ _____ _____    ______ ____
ROOT
ATOM      1  C   UNL     1       1.577   8.715  19.359  0.00  0.00    +0.000 A 
ATOM      2  C   UNL     1       1.812   7.567  20.133  0.00  0.00    +0.000 A 
ATOM      3  C   UNL     1       2.572   6.518  19.613  0.00  0.00    +0.000 A 
ATOM      4  C   UNL     1       3.173   6.653  18.360  0.00  0.00    +0.000 A 
ATOM      5  C   UNL     1       2.980   7.803  17.599  0.00  0.00    +0.000 A 
ATOM      6  C   UNL     1       2.174   8.828  18.094  0.00  0.00    +0.000 A 
ENDROOT
BRANCH   1   7
ATOM      7  C   UNL     1       0.679   9.759  19.932  0.00  0.00    +0.000 C 
ATOM      8  O   UNL     1       1.009  10.404  20.920  0.00  0.00    +0.000 OA
BRANCH   7  10
ATOM      9  C   UNL     1      -1.007  11.037  18.656  0.00  0.00    +0.000 C 
ATOM     10  C   UNL     1      -0.659   9.913  19.299  0.00  0.00    +0.000 C 
BRANCH   9  15
ATOM     11  C   UNL     1      -6.037  12.065  17.389  0.00  0.00    +0.000 C 
ATOM     12  C   UNL     1      -4.615  11.627  17.352  0.00  0.00    +0.000 A 
ATOM     13  C   UNL     1      -3.929  11.049  16.308  0.00  0.00    +0.000 A 
ATOM     14  C   UNL     1      -2.577  10.765  16.651  0.00  0.00    +0.000 A 
ATOM     15  C   UNL     1      -2.245  11.129  17.949  0.00  0.00    +0.000 A 
ATOM     16  S   UNL     1      -3.619  11.823  18.727  0.00  0.00    +0.000 S 
ENDBRANCH   9  15
ENDBRANCH   7  10
ENDBRANCH   1   7
BRANCH   6  17
ATOM     17  O   UNL     1       1.997   9.945  17.329  0.00  0.00    +0.000 OA
ATOM     18  H   UNL     1       2.259   9.762  16.412  0.00  0.00    +0.000 HD
ENDBRANCH   6  17
BRANCH   3  19
ATOM     19  O   UNL     1       2.792   5.313  20.217  0.00  0.00    +0.000 OA
BRANCH  19  20
ATOM     20  C   UNL     1       1.655   4.566  20.671  0.00  0.00    +0.000 C 
ATOM     21  C   UNL     1       0.974   3.817  19.523  0.00  0.00    +0.000 C 
ATOM     22  C   UNL     1       2.184   3.550  21.683  0.00  0.00    +0.000 C 
ENDBRANCH  19  20
ENDBRANCH   3  19
TORSDOF 6
ENDMDL
MODEL 7
REMARK VINA RESULT:      -6.5      2.707      3.977
REMARK  Name = 
REMARK  9 active torsions:
REMARK  status: ('A' for Active; 'I' for Inactive)
REMARK    1  A    between atoms: C_1  and  C_2
REMARK    2  A    between atoms: C_5  and  C_6
REMARK    3  A    between atoms: C_7  and  C_8
REMARK    4  A    between atoms: C_8  and  C_10
REMARK    5  A    between atoms: C_12  and  O_13
REMARK    6  A    between atoms: O_13  and  C_14
REMARK    7  A    between atoms: C_14  and  C_15
REMARK    8  A    between atoms: C_14  and  C_16
REMARK    9  A    between atoms: C_19  and  O_20
REMARK                            x       y       z     vdW  Elec       q    Type
REMARK                         _______ _______ _______ _____ _____    ______ ____
ROOT
ATOM      1  C   UNL     1       2.814   4.257  19.353  0.00  0.00    +0.000 A 
ATOM      2  C   UNL     1       4.168   4.628  19.341  0.00  0.00    +0.000 A 
ATOM      3  C   UNL     1       4.970   4.305  18.246  0.00  0.00    +0.000 A 
ATOM      4  C   UNL     1       4.401   3.692  17.127  0.00  0.00    +0.000 A 
ATOM      5  C   UNL     1       3.051   3.353  17.112  0.00  0.00    +0.000 A 
ATOM      6  C   UNL     1       2.260   3.626  18.228  0.00  0.00    +0.000 A 
ENDROOT
BRANCH   1   7
ATOM      7  C   UNL     1       2.032   4.547  20.591  0.00  0.00    +0.000 C 
ATOM      8  O   UNL     1       1.969   3.732  21.503  0.00  0.00    +0.000 OA
BRANCH   7  10
ATOM      9  C   UNL     1       1.882   7.002  20.819  0.00  0.00    +0.000 C 
ATOM     10  C   UNL     1       1.271   5.825  20.619  0.00  0.00    +0.000 C 
BRANCH   9  15
ATOM     11  C   UNL     1      -0.142  11.545  19.021  0.00  0.00    +0.000 C 
ATOM     12  C   UNL     1       0.200  10.368  19.866  0.00  0.00    +0.000 A 
ATOM     13  C   UNL     1      -0.242  10.074  21.136  0.00  0.00    +0.000 A 
ATOM     14  C   UNL     1       0.309   8.855  21.624  0.00  0.00    +0.000 A 
ATOM     15  C   UNL     1       1.162   8.232  20.723  0.00  0.00    +0.000 A 
ATOM     16  S   UNL     1       1.267   9.169  19.279  0.00  0.00    +0.000 S 
ENDBRANCH   9  15
ENDBRANCH   7  10
ENDBRANCH   1   7
BRANCH   6  17
ATOM     17  O   UNL     1       0.940   3.283  18.192  0.00  0.00    +0.000 OA
ATOM     18  H   UNL     1       0.813   2.519  17.604  0.00  0.00    +0.000 HD
ENDBRANCH   6  17
BRANCH   3  19
ATOM     19  O   UNL     1       6.316   4.518  18.148  0.00  0.00    +0.000 OA
BRANCH  19  20
ATOM     20  C   UNL     1       6.819   5.822  18.469  0.00  0.00    +0.000 C 
ATOM     21  C   UNL     1       8.036   5.748  19.393  0.00  0.00    +0.000 C 
ATOM     22  C   UNL     1       7.238   6.459  17.144  0.00  0.00    +0.000 C 
ENDBRANCH  19  20
ENDBRANCH   3  19
TORSDOF 6
ENDMDL
MODEL 8
REMARK VINA RESULT:      -6.4      2.704      4.003
REMARK  Name = 
REMARK  9 active torsions:
REMARK  status: ('A' for Active; 'I' for Inactive)
REMARK    1  A    between atoms: C_1  and  C_2
REMARK    2  A    between atoms: C_5  and  C_6
REMARK    3  A    between atoms: C_7  and  C_8
REMARK    4  A    between atoms: C_8  and  C_10
REMARK    5  A    between atoms: C_12  and  O_13
REMARK    6  A    between atoms: O_13  and  C_14
REMARK    7  A    between atoms: C_14  and  C_15
REMARK    8  A    between atoms: C_14  and  C_16
REMARK    9  A    between atoms: C_19  and  O_20
REMARK                            x       y       z     vdW  Elec       q    Type
REMARK                         _______ _______ _______ _____ _____    ______ ____
ROOT
ATOM      1  C   UNL     1       2.853   5.124  19.111  0.00  0.00    +0.000 A 
ATOM      2  C   UNL     1       3.989   5.838  18.697  0.00  0.00    +0.000 A 
ATOM      3  C   UNL     1       4.714   5.412  17.583  0.00  0.00    +0.000 A 
ATOM      4  C   UNL     1       4.253   4.329  16.830  0.00  0.00    +0.000 A 
ATOM      5  C   UNL     1       3.106   3.637  17.208  0.00  0.00    +0.000 A 
ATOM      6  C   UNL     1       2.412   4.028  18.353  0.00  0.00    +0.000 A 
ENDROOT
BRANCH   1   7
ATOM      7  C   UNL     1       2.176   5.572  20.363  0.00  0.00    +0.000 C 
ATOM      8  O   UNL     1       2.107   4.837  21.341  0.00  0.00    +0.000 OA
BRANCH   7  10
ATOM      9  C   UNL     1       1.059   7.492  21.446  0.00  0.00    +0.000 C 
ATOM     10  C   UNL     1       1.523   6.908  20.331  0.00  0.00    +0.000 C 
BRANCH   9  15
ATOM     11  C   UNL     1      -1.199  12.061  22.856  0.00  0.00    +0.000 C 
ATOM     12  C   UNL     1      -0.511  10.981  22.096  0.00  0.00    +0.000 A 
ATOM     13  C   UNL     1      -0.040  11.017  20.804  0.00  0.00    +0.000 A 
ATOM     14  C   UNL     1       0.561   9.784  20.421  0.00  0.00    +0.000 A 
ATOM     15  C   UNL     1       0.544   8.824  21.423  0.00  0.00    +0.000 A 
ATOM     16  S   UNL     1      -0.218   9.465  22.831  0.00  0.00    +0.000 S 
ENDBRANCH   9  15
ENDBRANCH   7  10
ENDBRANCH   1   7
BRANCH   6  17
ATOM     17  O   UNL     1       1.292   3.333  18.706  0.00  0.00    +0.000 OA
ATOM     18  H   UNL     1       1.503   2.389  18.798  0.00  0.00    +0.000 HD
ENDBRANCH   6  17
BRANCH   3  19
ATOM     19  O   UNL     1       5.885   5.952  17.136  0.00  0.00    +0.000 OA
BRANCH  19  20
ATOM     20  C   UNL     1       6.841   6.395  18.109  0.00  0.00    +0.000 C 
ATOM     21  C   UNL     1       7.765   5.258  18.553  0.00  0.00    +0.000 C 
ATOM     22  C   UNL     1       7.678   7.478  17.428  0.00  0.00    +0.000 C 
ENDBRANCH  19  20
ENDBRANCH   3  19
TORSDOF 6
ENDMDL
MODEL 9
REMARK VINA RESULT:      -6.4      4.420      6.614
REMARK  Name = 
REMARK  9 active torsions:
REMARK  status: ('A' for Active; 'I' for Inactive)
REMARK    1  A    between atoms: C_1  and  C_2
REMARK    2  A    between atoms: C_5  and  C_6
REMARK    3  A    between atoms: C_7  and  C_8
REMARK    4  A    between atoms: C_8  and  C_10
REMARK    5  A    between atoms: C_12  and  O_13
REMARK    6  A    between atoms: O_13  and  C_14
REMARK    7  A    between atoms: C_14  and  C_15
REMARK    8  A    between atoms: C_14  and  C_16
REMARK    9  A    between atoms: C_19  and  O_20
REMARK                            x       y       z     vdW  Elec       q    Type
REMARK                         _______ _______ _______ _____ _____    ______ ____
ROOT
ATOM      1  C   UNL     1       5.784   5.954  17.902  0.00  0.00    +0.000 A 
ATOM      2  C   UNL     1       5.318   5.291  19.049  0.00  0.00    +0.000 A 
ATOM      3  C   UNL     1       3.952   5.275  19.340  0.00  0.00    +0.000 A 
ATOM      4  C   UNL     1       3.047   5.841  18.440  0.00  0.00    +0.000 A 
ATOM      5  C   UNL     1       3.493   6.467  17.280  0.00  0.00    +0.000 A 
ATOM      6  C   UNL     1       4.862   6.533  17.017  0.00  0.00    +0.000 A 
ENDROOT
BRANCH   1   7
ATOM      7  C   UNL     1       7.261   6.018  17.697  0.00  0.00    +0.000 C 
ATOM      8  O   UNL     1       7.861   5.103  17.146  0.00  0.00    +0.000 OA
BRANCH   7  10
ATOM      9  C   UNL     1       7.930   8.396  17.665  0.00  0.00    +0.000 C 
ATOM     10  C   UNL     1       7.966   7.197  18.266  0.00  0.00    +0.000 C 
BRANCH   9  15
ATOM     11  C   UNL     1       9.314  13.381  18.760  0.00  0.00    +0.000 C 
ATOM     12  C   UNL     1       9.147  11.902  18.800  0.00  0.00    +0.000 A 
ATOM     13  C   UNL     1       9.637  11.016  19.732  0.00  0.00    +0.000 A 
ATOM     14  C   UNL     1       9.271   9.672  19.434  0.00  0.00    +0.000 A 
ATOM     15  C   UNL     1       8.507   9.547  18.281  0.00  0.00    +0.000 A 
ATOM     16  S   UNL     1       8.251  11.104  17.583  0.00  0.00    +0.000 S 
ENDBRANCH   9  15
ENDBRANCH   7  10
ENDBRANCH   1   7
BRANCH   6  17
ATOM     17  O   UNL     1       5.277   7.154  15.874  0.00  0.00    +0.000 OA
ATOM     18  H   UNL     1       5.864   7.896  16.096  0.00  0.00    +0.000 HD
ENDBRANCH   6  17
BRANCH   3  19
ATOM     19  O   UNL     1       3.380   4.756  20.465  0.00  0.00    +0.000 OA
BRANCH  19  20
ATOM     20  C   UNL     1       2.480   3.648  20.317  0.00  0.00    +0.000 C 
ATOM     21  C   UNL     1       3.168   2.442  19.676  0.00  0.00    +0.000 C 
ATOM     22  C   UNL     1       2.027   3.271  21.727  0.00  0.00    +0.000 C 
ENDBRANCH  19  20
ENDBRANCH   3  19
TORSDOF 6
ENDMDL
