MODEL 1
REMARK VINA RESULT:      -7.3      0.000      0.000
REMARK  Name = 
REMARK  5 active torsions:
REMARK  status: ('A' for Active; 'I' for Inactive)
REMARK    1  A    between atoms: C_1  and  N_2
REMARK    2  A    between atoms: N_2  and  C_3
REMARK    3  A    between atoms: C_9  and  C_10
REMARK    4  A    between atoms: C_10  and  N_11
REMARK    5  A    between atoms: C_15  and  C_16
REMARK                            x       y       z     vdW  Elec       q    Type
REMARK                         _______ _______ _______ _____ _____    ______ ____
ROOT
ATOM      1  C   UNL     1       5.891   3.728  13.653  0.00  0.00    +0.000 C 
ATOM      2  N   UNL     1       6.629   4.863  14.168  0.00  0.00    +0.000 N 
ATOM      3  C   UNL     1       7.889   5.220  13.537  0.00  0.00    +0.000 C 
ATOM      4  C   UNL     1       6.550   5.144  15.529  0.00  0.00    +0.000 A 
ATOM      5  N   UNL     1       7.257   6.179  15.984  0.00  0.00    +0.000 NA
ATOM      6  C   UNL     1       7.167   6.438  17.273  0.00  0.00    +0.000 A 
ATOM      7  N   UNL     1       7.869   7.532  17.751  0.00  0.00    +0.000 N 
ATOM      8  N   UNL     1       6.435   5.769  18.140  0.00  0.00    +0.000 NA
ATOM      9  C   UNL     1       5.759   4.739  17.618  0.00  0.00    +0.000 A 
ATOM     10  N   UNL     1       5.780   4.398  16.324  0.00  0.00    +0.000 NA
ATOM     11  H   UNL     1       8.014   8.196  17.003  0.00  0.00    +0.000 HD
ATOM     12  H   UNL     1       7.437   7.879  18.595  0.00  0.00    +0.000 HD
ENDROOT
BRANCH   9  13
ATOM     13  C   UNL     1       4.931   3.896  18.588  0.00  0.00    +0.000 C 
BRANCH  13  14
ATOM     14  N   UNL     1       3.678   4.459  19.156  0.00  0.00    +0.000 NA
ATOM     15  C   UNL     1       2.753   3.433  19.652  0.00  0.00    +0.000 C 
ATOM     16  C   UNL     1       1.770   3.163  18.532  0.00  0.00    +0.000 C 
ATOM     17  C   UNL     1       1.723   4.455  17.736  0.00  0.00    +0.000 C 
ATOM     18  C   UNL     1       2.933   5.282  18.189  0.00  0.00    +0.000 C 
BRANCH  18  19
ATOM     19  C   UNL     1       2.474   6.586  18.822  0.00  0.00    +0.000 A 
ATOM     20  C   UNL     1       2.064   6.799  20.185  0.00  0.00    +0.000 A 
ATOM     21  C   UNL     1       1.572   8.065  20.409  0.00  0.00    +0.000 A 
ATOM     22  S   UNL     1       1.651   9.039  19.011  0.00  0.00    +0.000 S 
ATOM     23  C   UNL     1       2.322   7.759  18.098  0.00  0.00    +0.000 A 
ENDBRANCH  18  19
ENDBRANCH  13  14
ENDBRANCH   9  13
TORSDOF 3
ENDMDL
MODEL 2
REMARK VINA RESULT:      -7.1      1.084      1.348
REMARK  Name = 
REMARK  5 active torsions:
REMARK  status: ('A' for Active; 'I' for Inactive)
REMARK    1  A    between atoms: C_1  and  N_2
REMARK    2  A    between atoms: N_2  and  C_3
REMARK    3  A    between atoms: C_9  and  C_10
REMARK    4  A    between atoms: C_10  and  N_11
REMARK    5  A    between atoms: C_15  and  C_16
REMARK                            x       y       z     vdW  Elec       q    Type
REMARK                         _______ _______ _______ _____ _____    ______ ____
ROOT
ATOM      1  C   UNL     1       6.188   3.516  12.640  0.00  0.00    +0.000 C 
ATOM      2  N   UNL     1       6.792   4.636  13.332  0.00  0.00    +0.000 N 
ATOM      3  C   UNL     1       8.094   5.108  12.890  0.00  0.00    +0.000 C 
ATOM      4  C   UNL     1       6.538   4.792  14.691  0.00  0.00    +0.000 A 
ATOM      5  N   UNL     1       7.125   5.816  15.313  0.00  0.00    +0.000 NA
ATOM      6  C   UNL     1       6.869   5.956  16.597  0.00  0.00    +0.000 A 
ATOM      7  N   UNL     1       7.444   7.036  17.246  0.00  0.00    +0.000 N 
ATOM      8  N   UNL     1       6.081   5.177  17.311  0.00  0.00    +0.000 NA
ATOM      9  C   UNL     1       5.533   4.166  16.629  0.00  0.00    +0.000 A 
ATOM     10  N   UNL     1       5.725   3.942  15.323  0.00  0.00    +0.000 NA
ATOM     11  H   UNL     1       7.636   7.770  16.577  0.00  0.00    +0.000 HD
ATOM     12  H   UNL     1       6.897   7.286  18.056  0.00  0.00    +0.000 HD
ENDROOT
BRANCH   9  13
ATOM     13  C   UNL     1       4.648   3.201  17.418  0.00  0.00    +0.000 C 
BRANCH  13  14
ATOM     14  N   UNL     1       3.799   3.727  18.519  0.00  0.00    +0.000 NA
ATOM     15  C   UNL     1       3.453   2.711  19.520  0.00  0.00    +0.000 C 
ATOM     16  C   UNL     1       2.093   2.170  19.132  0.00  0.00    +0.000 C 
ATOM     17  C   UNL     1       1.424   3.305  18.378  0.00  0.00    +0.000 C 
ATOM     18  C   UNL     1       2.534   4.307  18.037  0.00  0.00    +0.000 C 
BRANCH  18  19
ATOM     19  C   UNL     1       2.261   5.647  18.702  0.00  0.00    +0.000 A 
ATOM     20  C   UNL     1       2.402   6.955  18.122  0.00  0.00    +0.000 A 
ATOM     21  C   UNL     1       2.211   7.972  19.030  0.00  0.00    +0.000 A 
ATOM     22  S   UNL     1       1.798   7.380  20.575  0.00  0.00    +0.000 S 
ATOM     23  C   UNL     1       1.898   5.761  20.036  0.00  0.00    +0.000 A 
ENDBRANCH  18  19
ENDBRANCH  13  14
ENDBRANCH   9  13
TORSDOF 3
ENDMDL
MODEL 3
REMARK VINA RESULT:      -6.9      1.028      1.049
REMARK  Name = 
REMARK  5 active torsions:
REMARK  status: ('A' for Active; 'I' for Inactive)
REMARK    1  A    between atoms: C_1  and  N_2
REMARK    2  A    between atoms: N_2  and  C_3
REMARK    3  A    between atoms: C_9  and  C_10
REMARK    4  A    between atoms: C_10  and  N_11
REMARK    5  A    between atoms: C_15  and  C_16
REMARK                            x       y       z     vdW  Elec       q    Type
REMARK                         _______ _______ _______ _____ _____    ______ ____
ROOT
ATOM      1  C   UNL     1       5.360   4.193  14.608  0.00  0.00    +0.000 C 
ATOM      2  N   UNL     1       6.404   4.930  15.291  0.00  0.00    +0.000 N 
ATOM      3  C   UNL     1       7.720   5.001  14.679  0.00  0.00    +0.000 C 
ATOM      4  C   UNL     1       6.397   4.956  16.682  0.00  0.00    +0.000 A 
ATOM      5  N   UNL     1       7.382   5.619  17.289  0.00  0.00    +0.000 NA
ATOM      6  C   UNL     1       7.359   5.641  18.606  0.00  0.00    +0.000 A 
ATOM      7  N   UNL     1       8.357   6.358  19.247  0.00  0.00    +0.000 N 
ATOM      8  N   UNL     1       6.445   5.073  19.367  0.00  0.00    +0.000 NA
ATOM      9  C   UNL     1       5.493   4.418  18.694  0.00  0.00    +0.000 A 
ATOM     10  N   UNL     1       5.425   4.341  17.359  0.00  0.00    +0.000 NA
ATOM     11  H   UNL     1       8.708   7.076  18.629  0.00  0.00    +0.000 HD
ATOM     12  H   UNL     1       8.041   6.652  20.159  0.00  0.00    +0.000 HD
ENDROOT
BRANCH   9  13
ATOM     13  C   UNL     1       4.433   3.697  19.527  0.00  0.00    +0.000 C 
BRANCH  13  14
ATOM     14  N   UNL     1       3.128   4.362  19.778  0.00  0.00    +0.000 NA
ATOM     15  C   UNL     1       2.006   3.420  19.876  0.00  0.00    +0.000 C 
ATOM     16  C   UNL     1       1.372   3.364  18.502  0.00  0.00    +0.000 C 
ATOM     17  C   UNL     1       1.682   4.711  17.874  0.00  0.00    +0.000 C 
ATOM     18  C   UNL     1       2.778   5.345  18.739  0.00  0.00    +0.000 C 
BRANCH  18  19
ATOM     19  C   UNL     1       2.280   6.640  19.360  0.00  0.00    +0.000 A 
ATOM     20  C   UNL     1       1.819   6.843  20.708  0.00  0.00    +0.000 A 
ATOM     21  C   UNL     1       1.302   8.102  20.918  0.00  0.00    +0.000 A 
ATOM     22  S   UNL     1       1.416   9.081  19.526  0.00  0.00    +0.000 S 
ATOM     23  C   UNL     1       2.137   7.814  18.634  0.00  0.00    +0.000 A 
ENDBRANCH  18  19
ENDBRANCH  13  14
ENDBRANCH   9  13
TORSDOF 3
ENDMDL
MODEL 4
REMARK VINA RESULT:      -6.9      3.520      6.874
REMARK  Name = 
REMARK  5 active torsions:
REMARK  status: ('A' for Active; 'I' for Inactive)
REMARK    1  A    between atoms: C_1  and  N_2
REMARK    2  A    between atoms: N_2  and  C_3
REMARK    3  A    between atoms: C_9  and  C_10
REMARK    4  A    between atoms: C_10  and  N_11
REMARK    5  A    between atoms: C_15  and  C_16
REMARK                            x       y       z     vdW  Elec       q    Type
REMARK                         _______ _______ _______ _____ _____    ______ ____
ROOT
ATOM      1  C   UNL     1      -0.121   9.481  23.151  0.00  0.00    +0.000 C 
ATOM      2  N   UNL     1       0.147  10.098  21.868  0.00  0.00    +0.000 N 
ATOM      3  C   UNL     1      -0.784  11.095  21.365  0.00  0.00    +0.000 C 
ATOM      4  C   UNL     1       0.790   9.345  20.890  0.00  0.00    +0.000 A 
ATOM      5  N   UNL     1       1.003   9.925  19.708  0.00  0.00    +0.000 NA
ATOM      6  C   UNL     1       1.618   9.203  18.795  0.00  0.00    +0.000 A 
ATOM      7  N   UNL     1       1.878   9.807  17.575  0.00  0.00    +0.000 N 
ATOM      8  N   UNL     1       2.044   7.965  18.954  0.00  0.00    +0.000 NA
ATOM      9  C   UNL     1       1.789   7.442  20.158  0.00  0.00    +0.000 A 
ATOM     10  N   UNL     1       1.176   8.095  21.153  0.00  0.00    +0.000 NA
ATOM     11  H   UNL     1       1.927  10.809  17.697  0.00  0.00    +0.000 HD
ATOM     12  H   UNL     1       2.665   9.361  17.128  0.00  0.00    +0.000 HD
ENDROOT
BRANCH   9  13
ATOM     13  C   UNL     1       2.216   5.991  20.383  0.00  0.00    +0.000 C 
BRANCH  13  14
ATOM     14  N   UNL     1       2.610   5.159  19.216  0.00  0.00    +0.000 NA
ATOM     15  C   UNL     1       1.553   4.242  18.773  0.00  0.00    +0.000 C 
ATOM     16  C   UNL     1       1.833   2.910  19.438  0.00  0.00    +0.000 C 
ATOM     17  C   UNL     1       3.334   2.898  19.667  0.00  0.00    +0.000 C 
ATOM     18  C   UNL     1       3.809   4.344  19.475  0.00  0.00    +0.000 C 
BRANCH  18  19
ATOM     19  C   UNL     1       4.788   4.429  18.315  0.00  0.00    +0.000 A 
ATOM     20  C   UNL     1       4.561   4.036  16.950  0.00  0.00    +0.000 A 
ATOM     21  C   UNL     1       5.695   4.109  16.172  0.00  0.00    +0.000 A 
ATOM     22  S   UNL     1       7.032   4.708  17.044  0.00  0.00    +0.000 S 
ATOM     23  C   UNL     1       6.101   4.848  18.471  0.00  0.00    +0.000 A 
ENDBRANCH  18  19
ENDBRANCH  13  14
ENDBRANCH   9  13
TORSDOF 3
ENDMDL
MODEL 5
REMARK VINA RESULT:      -6.7      3.622      6.868
REMARK  Name = 
REMARK  5 active torsions:
REMARK  status: ('A' for Active; 'I' for Inactive)
REMARK    1  A    between atoms: C_1  and  N_2
REMARK    2  A    between atoms: N_2  and  C_3
REMARK    3  A    between atoms: C_9  and  C_10
REMARK    4  A    between atoms: C_10  and  N_11
REMARK    5  A    between atoms: C_15  and  C_16
REMARK                            x       y       z     vdW  Elec       q    Type
REMARK                         _______ _______ _______ _____ _____    ______ ____
ROOT
ATOM      1  C   UNL     1      -0.136   9.629  23.242  0.00  0.00    +0.000 C 
ATOM      2  N   UNL     1       0.124  10.278  21.972  0.00  0.00    +0.000 N 
ATOM      3  C   UNL     1      -0.795  11.305  21.513  0.00  0.00    +0.000 C 
ATOM      4  C   UNL     1       0.737   9.540  20.964  0.00  0.00    +0.000 A 
ATOM      5  N   UNL     1       0.943  10.150  19.796  0.00  0.00    +0.000 NA
ATOM      6  C   UNL     1       1.531   9.443  18.852  0.00  0.00    +0.000 A 
ATOM      7  N   UNL     1       1.784  10.076  17.647  0.00  0.00    +0.000 N 
ATOM      8  N   UNL     1       1.935   8.193  18.970  0.00  0.00    +0.000 NA
ATOM      9  C   UNL     1       1.688   7.640  20.162  0.00  0.00    +0.000 A 
ATOM     10  N   UNL     1       1.103   8.276  21.185  0.00  0.00    +0.000 NA
ATOM     11  H   UNL     1       1.854  11.073  17.796  0.00  0.00    +0.000 HD
ATOM     12  H   UNL     1       2.555   9.628  17.174  0.00  0.00    +0.000 HD
ENDROOT
BRANCH   9  13
ATOM     13  C   UNL     1       2.089   6.176  20.339  0.00  0.00    +0.000 C 
BRANCH  13  14
ATOM     14  N   UNL     1       2.485   5.380  19.148  0.00  0.00    +0.000 NA
ATOM     15  C   UNL     1       1.687   4.161  18.973  0.00  0.00    +0.000 C 
ATOM     16  C   UNL     1       2.475   3.037  19.613  0.00  0.00    +0.000 C 
ATOM     17  C   UNL     1       3.925   3.476  19.520  0.00  0.00    +0.000 C 
ATOM     18  C   UNL     1       3.899   4.971  19.178  0.00  0.00    +0.000 C 
BRANCH  18  19
ATOM     19  C   UNL     1       4.567   5.218  17.834  0.00  0.00    +0.000 A 
ATOM     20  C   UNL     1       4.981   6.481  17.283  0.00  0.00    +0.000 A 
ATOM     21  C   UNL     1       5.427   6.383  15.984  0.00  0.00    +0.000 A 
ATOM     22  S   UNL     1       5.417   4.772  15.424  0.00  0.00    +0.000 S 
ATOM     23  C   UNL     1       4.793   4.207  16.912  0.00  0.00    +0.000 A 
ENDBRANCH  18  19
ENDBRANCH  13  14
ENDBRANCH   9  13
TORSDOF 3
ENDMDL
MODEL 6
REMARK VINA RESULT:      -6.7      3.917      6.689
REMARK  Name = 
REMARK  5 active torsions:
REMARK  status: ('A' for Active; 'I' for Inactive)
REMARK    1  A    between atoms: C_1  and  N_2
REMARK    2  A    between atoms: N_2  and  C_3
REMARK    3  A    between atoms: C_9  and  C_10
REMARK    4  A    between atoms: C_10  and  N_11
REMARK    5  A    between atoms: C_15  and  C_16
REMARK                            x       y       z     vdW  Elec       q    Type
REMARK                         _______ _______ _______ _____ _____    ______ ____
ROOT
ATOM      1  C   UNL     1      -0.192   8.806  21.737  0.00  0.00    +0.000 C 
ATOM      2  N   UNL     1       0.206  10.057  21.124  0.00  0.00    +0.000 N 
ATOM      3  C   UNL     1      -0.650  11.220  21.296  0.00  0.00    +0.000 C 
ATOM      4  C   UNL     1       0.910  10.014  19.924  0.00  0.00    +0.000 A 
ATOM      5  N   UNL     1       1.243  11.178  19.365  0.00  0.00    +0.000 NA
ATOM      6  C   UNL     1       1.916  11.123  18.234  0.00  0.00    +0.000 A 
ATOM      7  N   UNL     1       2.299  12.325  17.663  0.00  0.00    +0.000 N 
ATOM      8  N   UNL     1       2.291  10.019  17.618  0.00  0.00    +0.000 NA
ATOM      9  C   UNL     1       1.916   8.890  18.227  0.00  0.00    +0.000 A 
ATOM     10  N   UNL     1       1.236   8.840  19.380  0.00  0.00    +0.000 NA
ATOM     11  H   UNL     1       2.365  13.035  18.380  0.00  0.00    +0.000 HD
ATOM     12  H   UNL     1       3.109  12.188  17.077  0.00  0.00    +0.000 HD
ENDROOT
BRANCH   9  13
ATOM     13  C   UNL     1       2.280   7.578  17.532  0.00  0.00    +0.000 C 
BRANCH  13  14
ATOM     14  N   UNL     1       2.922   6.491  18.316  0.00  0.00    +0.000 NA
ATOM     15  C   UNL     1       4.357   6.347  18.041  0.00  0.00    +0.000 C 
ATOM     16  C   UNL     1       4.486   5.259  16.995  0.00  0.00    +0.000 C 
ATOM     17  C   UNL     1       3.267   4.377  17.198  0.00  0.00    +0.000 C 
ATOM     18  C   UNL     1       2.303   5.176  18.084  0.00  0.00    +0.000 C 
BRANCH  18  19
ATOM     19  C   UNL     1       2.063   4.447  19.397  0.00  0.00    +0.000 A 
ATOM     20  C   UNL     1       2.397   4.899  20.721  0.00  0.00    +0.000 A 
ATOM     21  C   UNL     1       2.177   3.944  21.688  0.00  0.00    +0.000 A 
ATOM     22  S   UNL     1       1.510   2.516  21.038  0.00  0.00    +0.000 S 
ATOM     23  C   UNL     1       1.536   3.165  19.457  0.00  0.00    +0.000 A 
ENDBRANCH  18  19
ENDBRANCH  13  14
ENDBRANCH   9  13
TORSDOF 3
ENDMDL
MODEL 7
REMARK VINA RESULT:      -6.5      1.240      2.736
REMARK  Name = 
REMARK  5 active torsions:
REMARK  status: ('A' for Active; 'I' for Inactive)
REMARK    1  A    between atoms: C_1  and  N_2
REMARK    2  A    between atoms: N_2  and  C_3
REMARK    3  A    between atoms: C_9  and  C_10
REMARK    4  A    between atoms: C_10  and  N_11
REMARK    5  A    between atoms: C_15  and  C_16
REMARK                            x       y       z     vdW  Elec       q    Type
REMARK                         _______ _______ _______ _____ _____    ______ ____
ROOT
ATOM      1  C   UNL     1       7.445   6.314  19.472  0.00  0.00    +0.000 C 
ATOM      2  N   UNL     1       7.726   6.418  18.054  0.00  0.00    +0.000 N 
ATOM      3  C   UNL     1       8.148   7.703  17.521  0.00  0.00    +0.000 C 
ATOM      4  C   UNL     1       6.998   5.623  17.173  0.00  0.00    +0.000 A 
ATOM      5  N   UNL     1       7.256   5.755  15.871  0.00  0.00    +0.000 NA
ATOM      6  C   UNL     1       6.566   4.991  15.049  0.00  0.00    +0.000 A 
ATOM      7  N   UNL     1       6.850   5.093  13.697  0.00  0.00    +0.000 N 
ATOM      8  N   UNL     1       5.654   4.109  15.406  0.00  0.00    +0.000 NA
ATOM      9  C   UNL     1       5.439   4.035  16.724  0.00  0.00    +0.000 A 
ATOM     10  N   UNL     1       6.091   4.763  17.640  0.00  0.00    +0.000 NA
ATOM     11  H   UNL     1       7.797   5.424  13.574  0.00  0.00    +0.000 HD
ATOM     12  H   UNL     1       6.599   4.238  13.225  0.00  0.00    +0.000 HD
ENDROOT
BRANCH   9  13
ATOM     13  C   UNL     1       4.356   3.064  17.192  0.00  0.00    +0.000 C 
BRANCH  13  14
ATOM     14  N   UNL     1       3.585   3.372  18.426  0.00  0.00    +0.000 NA
ATOM     15  C   UNL     1       3.242   2.178  19.208  0.00  0.00    +0.000 C 
ATOM     16  C   UNL     1       1.840   1.781  18.792  0.00  0.00    +0.000 C 
ATOM     17  C   UNL     1       1.189   3.074  18.334  0.00  0.00    +0.000 C 
ATOM     18  C   UNL     1       2.328   4.086  18.150  0.00  0.00    +0.000 C 
BRANCH  18  19
ATOM     19  C   UNL     1       2.149   5.261  19.098  0.00  0.00    +0.000 A 
ATOM     20  C   UNL     1       1.598   5.237  20.426  0.00  0.00    +0.000 A 
ATOM     21  C   UNL     1       1.444   6.492  20.970  0.00  0.00    +0.000 A 
ATOM     22  S   UNL     1       2.013   7.716  19.927  0.00  0.00    +0.000 S 
ATOM     23  C   UNL     1       2.445   6.568  18.736  0.00  0.00    +0.000 A 
ENDBRANCH  18  19
ENDBRANCH  13  14
ENDBRANCH   9  13
TORSDOF 3
ENDMDL
MODEL 8
REMARK VINA RESULT:      -6.2      2.216      6.039
REMARK  Name = 
REMARK  5 active torsions:
REMARK  status: ('A' for Active; 'I' for Inactive)
REMARK    1  A    between atoms: C_1  and  N_2
REMARK    2  A    between atoms: N_2  and  C_3
REMARK    3  A    between atoms: C_9  and  C_10
REMARK    4  A    between atoms: C_10  and  N_11
REMARK    5  A    between atoms: C_15  and  C_16
REMARK                            x       y       z     vdW  Elec       q    Type
REMARK                         _______ _______ _______ _____ _____    ______ ____
ROOT
ATOM      1  C   UNL     1       1.951   8.680  18.702  0.00  0.00    +0.000 C 
ATOM      2  N   UNL     1       1.650   7.749  19.771  0.00  0.00    +0.000 N 
ATOM      3  C   UNL     1       1.539   8.259  21.128  0.00  0.00    +0.000 C 
ATOM      4  C   UNL     1       2.121   6.444  19.667  0.00  0.00    +0.000 A 
ATOM      5  N   UNL     1       1.853   5.612  20.674  0.00  0.00    +0.000 NA
ATOM      6  C   UNL     1       2.299   4.378  20.559  0.00  0.00    +0.000 A 
ATOM      7  N   UNL     1       1.996   3.494  21.582  0.00  0.00    +0.000 N 
ATOM      8  N   UNL     1       2.976   3.899  19.534  0.00  0.00    +0.000 NA
ATOM      9  C   UNL     1       3.218   4.788  18.565  0.00  0.00    +0.000 A 
ATOM     10  N   UNL     1       2.803   6.062  18.585  0.00  0.00    +0.000 NA
ATOM     11  H   UNL     1       1.157   3.800  22.056  0.00  0.00    +0.000 HD
ATOM     12  H   UNL     1       2.008   2.546  21.237  0.00  0.00    +0.000 HD
ENDROOT
BRANCH   9  13
ATOM     13  C   UNL     1       4.042   4.302  17.374  0.00  0.00    +0.000 C 
BRANCH  13  14
ATOM     14  N   UNL     1       5.080   5.195  16.793  0.00  0.00    +0.000 NA
ATOM     15  C   UNL     1       5.111   5.172  15.326  0.00  0.00    +0.000 C 
ATOM     16  C   UNL     1       6.180   4.173  14.935  0.00  0.00    +0.000 C 
ATOM     17  C   UNL     1       7.155   4.171  16.099  0.00  0.00    +0.000 C 
ATOM     18  C   UNL     1       6.438   4.871  17.260  0.00  0.00    +0.000 C 
BRANCH  18  19
ATOM     19  C   UNL     1       7.190   6.129  17.665  0.00  0.00    +0.000 A 
ATOM     20  C   UNL     1       8.031   6.311  18.817  0.00  0.00    +0.000 A 
ATOM     21  C   UNL     1       8.455   7.612  18.976  0.00  0.00    +0.000 A 
ATOM     22  S   UNL     1       7.905   8.622  17.717  0.00  0.00    +0.000 S 
ATOM     23  C   UNL     1       7.080   7.325  16.970  0.00  0.00    +0.000 A 
ENDBRANCH  18  19
ENDBRANCH  13  14
ENDBRANCH   9  13
TORSDOF 3
ENDMDL
MODEL 9
REMARK VINA RESULT:      -6.2      2.682      6.053
REMARK  Name = 
REMARK  5 active torsions:
REMARK  status: ('A' for Active; 'I' for Inactive)
REMARK    1  A    between atoms: C_1  and  N_2
REMARK    2  A    between atoms: N_2  and  C_3
REMARK    3  A    between atoms: C_9  and  C_10
REMARK    4  A    between atoms: C_10  and  N_11
REMARK    5  A    between atoms: C_15  and  C_16
REMARK                            x       y       z     vdW  Elec       q    Type
REMARK                         _______ _______ _______ _____ _____    ______ ____
ROOT
ATOM      1  C   UNL     1       3.210   1.065  18.570  0.00  0.00    +0.000 C 
ATOM      2  N   UNL     1       2.517   2.225  19.092  0.00  0.00    +0.000 N 
ATOM      3  C   UNL     1       1.093   2.362  18.834  0.00  0.00    +0.000 C 
ATOM      4  C   UNL     1       3.216   3.424  19.196  0.00  0.00    +0.000 A 
ATOM      5  N   UNL     1       2.551   4.485  19.656  0.00  0.00    +0.000 NA
ATOM      6  C   UNL     1       3.227   5.611  19.756  0.00  0.00    +0.000 A 
ATOM      7  N   UNL     1       2.557   6.711  20.267  0.00  0.00    +0.000 N 
ATOM      8  N   UNL     1       4.499   5.773  19.449  0.00  0.00    +0.000 NA
ATOM      9  C   UNL     1       5.101   4.673  18.986  0.00  0.00    +0.000 A 
ATOM     10  N   UNL     1       4.504   3.481  18.852  0.00  0.00    +0.000 NA
ATOM     11  H   UNL     1       1.795   6.401  20.854  0.00  0.00    +0.000 HD
ATOM     12  H   UNL     1       3.215   7.360  20.674  0.00  0.00    +0.000 HD
ENDROOT
BRANCH   9  13
ATOM     13  C   UNL     1       6.564   4.813  18.566  0.00  0.00    +0.000 C 
BRANCH  13  14
ATOM     14  N   UNL     1       6.887   5.379  17.230  0.00  0.00    +0.000 NA
ATOM     15  C   UNL     1       7.307   6.784  17.281  0.00  0.00    +0.000 C 
ATOM     16  C   UNL     1       6.070   7.612  16.999  0.00  0.00    +0.000 C 
ATOM     17  C   UNL     1       5.184   6.713  16.154  0.00  0.00    +0.000 C 
ATOM     18  C   UNL     1       5.759   5.297  16.287  0.00  0.00    +0.000 C 
BRANCH  18  19
ATOM     19  C   UNL     1       6.217   4.783  14.931  0.00  0.00    +0.000 A 
ATOM     20  C   UNL     1       7.365   5.211  14.177  0.00  0.00    +0.000 A 
ATOM     21  C   UNL     1       7.425   4.649  12.921  0.00  0.00    +0.000 A 
ATOM     22  S   UNL     1       6.146   3.554  12.648  0.00  0.00    +0.000 S 
ATOM     23  C   UNL     1       5.497   3.849  14.201  0.00  0.00    +0.000 A 
ENDBRANCH  18  19
ENDBRANCH  13  14
ENDBRANCH   9  13
TORSDOF 3
ENDMDL
