MODEL 1
REMARK VINA RESULT:      -6.5      0.000      0.000
REMARK  Name = 
REMARK  5 active torsions:
REMARK  status: ('A' for Active; 'I' for Inactive)
REMARK    1  A    between atoms: C_1  and  N_2
REMARK    2  A    between atoms: N_2  and  C_3
REMARK    3  A    between atoms: C_8  and  O_9
REMARK    4  A    between atoms: C_10  and  C_11
REMARK    5  A    between atoms: C_11  and  O_12
REMARK                            x       y       z     vdW  Elec       q    Type
REMARK                         _______ _______ _______ _____ _____    ______ ____
ROOT
ATOM      1  C   UNL     1       7.082   5.927  16.735  0.00  0.00    +0.000 C 
ATOM      2  N   UNL     1       5.803   5.307  16.403  0.00  0.00    +0.000 N 
ATOM      3  C   UNL     1       5.598   5.006  14.989  0.00  0.00    +0.000 C 
ATOM      4  C   UNL     1       5.104   4.561  17.328  0.00  0.00    +0.000 C 
ATOM      5  N   UNL     1       4.237   3.650  17.008  0.00  0.00    +0.000 NA
ATOM      6  C   UNL     1       3.868   2.851  18.199  0.00  0.00    +0.000 C 
ATOM      7  C   UNL     1       2.503   2.208  17.960  0.00  0.00    +0.000 C 
ATOM      8  C   UNL     1       1.339   3.088  18.405  0.00  0.00    +0.000 C 
ATOM      9  C   UNL     1       1.583   3.671  19.802  0.00  0.00    +0.000 C 
ATOM     10  O   UNL     1       2.802   4.444  19.807  0.00  0.00    +0.000 OA
ATOM     11  C   UNL     1       3.973   3.712  19.462  0.00  0.00    +0.000 C 
ATOM     12  S   UNL     1       5.336   4.821  19.048  0.00  0.00    +0.000 S 
ENDROOT
BRANCH   8  13
ATOM     13  O   UNL     1       1.155   4.148  17.466  0.00  0.00    +0.000 OA
ATOM     14  H   UNL     1       0.390   4.676  17.770  0.00  0.00    +0.000 HD
ENDBRANCH   8  13
BRANCH   9  15
ATOM     15  C   UNL     1       1.590   2.591  20.898  0.00  0.00    +0.000 C 
BRANCH  15  16
ATOM     16  O   UNL     1       1.972   3.144  22.154  0.00  0.00    +0.000 OA
ATOM     17  H   UNL     1       2.928   2.981  22.261  0.00  0.00    +0.000 HD
ENDBRANCH  15  16
ENDBRANCH   9  15
TORSDOF 3
ENDMDL
MODEL 2
REMARK VINA RESULT:      -6.0      1.372      1.597
REMARK  Name = 
REMARK  5 active torsions:
REMARK  status: ('A' for Active; 'I' for Inactive)
REMARK    1  A    between atoms: C_1  and  N_2
REMARK    2  A    between atoms: N_2  and  C_3
REMARK    3  A    between atoms: C_8  and  O_9
REMARK    4  A    between atoms: C_10  and  C_11
REMARK    5  A    between atoms: C_11  and  O_12
REMARK                            x       y       z     vdW  Elec       q    Type
REMARK                         _______ _______ _______ _____ _____    ______ ____
ROOT
ATOM      1  C   UNL     1       5.422   6.379  15.333  0.00  0.00    +0.000 C 
ATOM      2  N   UNL     1       5.165   5.028  15.822  0.00  0.00    +0.000 N 
ATOM      3  C   UNL     1       5.981   3.977  15.221  0.00  0.00    +0.000 C 
ATOM      4  C   UNL     1       4.650   4.804  17.081  0.00  0.00    +0.000 C 
ATOM      5  N   UNL     1       4.805   3.692  17.733  0.00  0.00    +0.000 NA
ATOM      6  C   UNL     1       4.379   3.860  19.141  0.00  0.00    +0.000 C 
ATOM      7  C   UNL     1       4.031   2.488  19.718  0.00  0.00    +0.000 C 
ATOM      8  C   UNL     1       2.572   2.100  19.505  0.00  0.00    +0.000 C 
ATOM      9  C   UNL     1       1.628   3.253  19.869  0.00  0.00    +0.000 C 
ATOM     10  O   UNL     1       1.941   4.416  19.072  0.00  0.00    +0.000 OA
ATOM     11  C   UNL     1       3.266   4.909  19.232  0.00  0.00    +0.000 C 
ATOM     12  S   UNL     1       3.706   6.039  17.895  0.00  0.00    +0.000 S 
ENDROOT
BRANCH   8  13
ATOM     13  O   UNL     1       2.370   1.727  18.140  0.00  0.00    +0.000 OA
ATOM     14  H   UNL     1       1.467   1.361  18.069  0.00  0.00    +0.000 HD
ENDBRANCH   8  13
BRANCH   9  15
ATOM     15  C   UNL     1       1.645   3.574  21.374  0.00  0.00    +0.000 C 
BRANCH  15  16
ATOM     16  O   UNL     1       1.510   2.387  22.149  0.00  0.00    +0.000 OA
ATOM     17  H   UNL     1       0.586   2.349  22.458  0.00  0.00    +0.000 HD
ENDBRANCH  15  16
ENDBRANCH   9  15
TORSDOF 3
ENDMDL
MODEL 3
REMARK VINA RESULT:      -5.9      2.281      2.951
REMARK  Name = 
REMARK  5 active torsions:
REMARK  status: ('A' for Active; 'I' for Inactive)
REMARK    1  A    between atoms: C_1  and  N_2
REMARK    2  A    between atoms: N_2  and  C_3
REMARK    3  A    between atoms: C_8  and  O_9
REMARK    4  A    between atoms: C_10  and  C_11
REMARK    5  A    between atoms: C_11  and  O_12
REMARK                            x       y       z     vdW  Elec       q    Type
REMARK                         _______ _______ _______ _____ _____    ______ ____
ROOT
ATOM      1  C   UNL     1       7.429   7.253  17.421  0.00  0.00    +0.000 C 
ATOM      2  N   UNL     1       7.092   6.089  18.235  0.00  0.00    +0.000 N 
ATOM      3  C   UNL     1       8.033   5.778  19.307  0.00  0.00    +0.000 C 
ATOM      4  C   UNL     1       5.788   5.665  18.380  0.00  0.00    +0.000 C 
ATOM      5  N   UNL     1       5.369   4.961  19.386  0.00  0.00    +0.000 NA
ATOM      6  C   UNL     1       3.890   4.902  19.390  0.00  0.00    +0.000 C 
ATOM      7  C   UNL     1       3.447   3.670  20.178  0.00  0.00    +0.000 C 
ATOM      8  C   UNL     1       3.321   2.419  19.315  0.00  0.00    +0.000 C 
ATOM      9  C   UNL     1       2.556   2.710  18.018  0.00  0.00    +0.000 C 
ATOM     10  O   UNL     1       3.230   3.746  17.272  0.00  0.00    +0.000 OA
ATOM     11  C   UNL     1       3.356   4.987  17.957  0.00  0.00    +0.000 C 
ATOM     12  S   UNL     1       4.583   6.047  17.163  0.00  0.00    +0.000 S 
ENDROOT
BRANCH   8  13
ATOM     13  O   UNL     1       4.623   1.919  19.004  0.00  0.00    +0.000 OA
ATOM     14  H   UNL     1       5.024   1.612  19.841  0.00  0.00    +0.000 HD
ENDBRANCH   8  13
BRANCH   9  15
ATOM     15  C   UNL     1       1.080   3.060  18.271  0.00  0.00    +0.000 C 
BRANCH  15  16
ATOM     16  O   UNL     1       0.293   1.880  18.407  0.00  0.00    +0.000 OA
ATOM     17  H   UNL     1       0.330   1.616  19.345  0.00  0.00    +0.000 HD
ENDBRANCH  15  16
ENDBRANCH   9  15
TORSDOF 3
ENDMDL
MODEL 4
REMARK VINA RESULT:      -5.8      2.946      5.527
REMARK  Name = 
REMARK  5 active torsions:
REMARK  status: ('A' for Active; 'I' for Inactive)
REMARK    1  A    between atoms: C_1  and  N_2
REMARK    2  A    between atoms: N_2  and  C_3
REMARK    3  A    between atoms: C_8  and  O_9
REMARK    4  A    between atoms: C_10  and  C_11
REMARK    5  A    between atoms: C_11  and  O_12
REMARK                            x       y       z     vdW  Elec       q    Type
REMARK                         _______ _______ _______ _____ _____    ______ ____
ROOT
ATOM      1  C   UNL     1       1.094   2.835  19.963  0.00  0.00    +0.000 C 
ATOM      2  N   UNL     1       1.877   4.052  19.771  0.00  0.00    +0.000 N 
ATOM      3  C   UNL     1       1.717   5.071  20.805  0.00  0.00    +0.000 C 
ATOM      4  C   UNL     1       3.051   4.046  19.049  0.00  0.00    +0.000 C 
ATOM      5  N   UNL     1       3.992   4.927  19.199  0.00  0.00    +0.000 NA
ATOM      6  C   UNL     1       5.217   4.496  18.489  0.00  0.00    +0.000 C 
ATOM      7  C   UNL     1       6.075   5.725  18.195  0.00  0.00    +0.000 C 
ATOM      8  C   UNL     1       5.742   6.383  16.859  0.00  0.00    +0.000 C 
ATOM      9  C   UNL     1       5.631   5.344  15.737  0.00  0.00    +0.000 C 
ATOM     10  O   UNL     1       4.613   4.373  16.064  0.00  0.00    +0.000 OA
ATOM     11  C   UNL     1       4.846   3.649  17.267  0.00  0.00    +0.000 C 
ATOM     12  S   UNL     1       3.344   2.819  17.828  0.00  0.00    +0.000 S 
ENDROOT
BRANCH   8  13
ATOM     13  O   UNL     1       4.513   7.101  16.973  0.00  0.00    +0.000 OA
ATOM     14  H   UNL     1       4.735   8.052  17.020  0.00  0.00    +0.000 HD
ENDBRANCH   8  13
BRANCH   9  15
ATOM     15  C   UNL     1       6.978   4.671  15.422  0.00  0.00    +0.000 C 
BRANCH  15  16
ATOM     16  O   UNL     1       7.726   5.442  14.486  0.00  0.00    +0.000 OA
ATOM     17  H   UNL     1       7.865   4.883  13.699  0.00  0.00    +0.000 HD
ENDBRANCH  15  16
ENDBRANCH   9  15
TORSDOF 3
ENDMDL
MODEL 5
REMARK VINA RESULT:      -5.7      2.818      5.460
REMARK  Name = 
REMARK  5 active torsions:
REMARK  status: ('A' for Active; 'I' for Inactive)
REMARK    1  A    between atoms: C_1  and  N_2
REMARK    2  A    between atoms: N_2  and  C_3
REMARK    3  A    between atoms: C_8  and  O_9
REMARK    4  A    between atoms: C_10  and  C_11
REMARK    5  A    between atoms: C_11  and  O_12
REMARK                            x       y       z     vdW  Elec       q    Type
REMARK                         _______ _______ _______ _____ _____    ______ ____
ROOT
ATOM      1  C   UNL     1       2.048   2.805  20.100  0.00  0.00    +0.000 C 
ATOM      2  N   UNL     1       3.203   2.650  19.220  0.00  0.00    +0.000 N 
ATOM      3  C   UNL     1       3.263   1.394  18.478  0.00  0.00    +0.000 C 
ATOM      4  C   UNL     1       3.857   3.743  18.691  0.00  0.00    +0.000 C 
ATOM      5  N   UNL     1       4.564   3.699  17.604  0.00  0.00    +0.000 NA
ATOM      6  C   UNL     1       4.903   5.069  17.157  0.00  0.00    +0.000 C 
ATOM      7  C   UNL     1       6.146   5.007  16.271  0.00  0.00    +0.000 C 
ATOM      8  C   UNL     1       7.449   5.128  17.055  0.00  0.00    +0.000 C 
ATOM      9  C   UNL     1       7.388   6.281  18.064  0.00  0.00    +0.000 C 
ATOM     10  O   UNL     1       6.290   6.077  18.979  0.00  0.00    +0.000 OA
ATOM     11  C   UNL     1       5.008   6.006  18.366  0.00  0.00    +0.000 C 
ATOM     12  S   UNL     1       3.786   5.302  19.492  0.00  0.00    +0.000 S 
ENDROOT
BRANCH   8  13
ATOM     13  O   UNL     1       7.710   3.902  17.740  0.00  0.00    +0.000 OA
ATOM     14  H   UNL     1       7.862   4.122  18.680  0.00  0.00    +0.000 HD
ENDBRANCH   8  13
BRANCH   9  15
ATOM     15  C   UNL     1       7.310   7.657  17.381  0.00  0.00    +0.000 C 
BRANCH  15  16
ATOM     16  O   UNL     1       8.232   8.570  17.968  0.00  0.00    +0.000 OA
ATOM     17  H   UNL     1       7.728   9.128  18.589  0.00  0.00    +0.000 HD
ENDBRANCH  15  16
ENDBRANCH   9  15
TORSDOF 3
ENDMDL
MODEL 6
REMARK VINA RESULT:      -5.6      1.897      2.616
REMARK  Name = 
REMARK  5 active torsions:
REMARK  status: ('A' for Active; 'I' for Inactive)
REMARK    1  A    between atoms: C_1  and  N_2
REMARK    2  A    between atoms: N_2  and  C_3
REMARK    3  A    between atoms: C_8  and  O_9
REMARK    4  A    between atoms: C_10  and  C_11
REMARK    5  A    between atoms: C_11  and  O_12
REMARK                            x       y       z     vdW  Elec       q    Type
REMARK                         _______ _______ _______ _____ _____    ______ ____
ROOT
ATOM      1  C   UNL     1       7.400   4.816  15.864  0.00  0.00    +0.000 C 
ATOM      2  N   UNL     1       6.967   4.585  17.239  0.00  0.00    +0.000 N 
ATOM      3  C   UNL     1       7.852   5.114  18.273  0.00  0.00    +0.000 C 
ATOM      4  C   UNL     1       5.636   4.414  17.555  0.00  0.00    +0.000 C 
ATOM      5  N   UNL     1       5.143   4.644  18.733  0.00  0.00    +0.000 NA
ATOM      6  C   UNL     1       3.664   4.633  18.682  0.00  0.00    +0.000 C 
ATOM      7  C   UNL     1       3.122   4.338  20.080  0.00  0.00    +0.000 C 
ATOM      8  C   UNL     1       2.951   2.847  20.355  0.00  0.00    +0.000 C 
ATOM      9  C   UNL     1       2.248   2.141  19.188  0.00  0.00    +0.000 C 
ATOM     10  O   UNL     1       3.007   2.325  17.973  0.00  0.00    +0.000 OA
ATOM     11  C   UNL     1       3.183   3.681  17.581  0.00  0.00    +0.000 C 
ATOM     12  S   UNL     1       4.497   3.837  16.352  0.00  0.00    +0.000 S 
ENDROOT
BRANCH   8  13
ATOM     13  O   UNL     1       4.230   2.251  20.576  0.00  0.00    +0.000 OA
ATOM     14  H   UNL     1       4.652   2.736  21.313  0.00  0.00    +0.000 HD
ENDBRANCH   8  13
BRANCH   9  15
ATOM     15  C   UNL     1       0.787   2.594  19.020  0.00  0.00    +0.000 C 
BRANCH  15  16
ATOM     16  O   UNL     1       0.256   3.065  20.255  0.00  0.00    +0.000 OA
ATOM     17  H   UNL     1       0.570   3.981  20.372  0.00  0.00    +0.000 HD
ENDBRANCH  15  16
ENDBRANCH   9  15
TORSDOF 3
ENDMDL
MODEL 7
REMARK VINA RESULT:      -5.5      1.743      2.120
REMARK  Name = 
REMARK  5 active torsions:
REMARK  status: ('A' for Active; 'I' for Inactive)
REMARK    1  A    between atoms: C_1  and  N_2
REMARK    2  A    between atoms: N_2  and  C_3
REMARK    3  A    between atoms: C_8  and  O_9
REMARK    4  A    between atoms: C_10  and  C_11
REMARK    5  A    between atoms: C_11  and  O_12
REMARK                            x       y       z     vdW  Elec       q    Type
REMARK                         _______ _______ _______ _____ _____    ______ ____
ROOT
ATOM      1  C   UNL     1       6.694   6.996  17.215  0.00  0.00    +0.000 C 
ATOM      2  N   UNL     1       6.550   5.560  17.433  0.00  0.00    +0.000 N 
ATOM      3  C   UNL     1       7.777   4.779  17.306  0.00  0.00    +0.000 C 
ATOM      4  C   UNL     1       5.540   5.049  18.221  0.00  0.00    +0.000 C 
ATOM      5  N   UNL     1       5.600   3.892  18.806  0.00  0.00    +0.000 NA
ATOM      6  C   UNL     1       4.498   3.753  19.784  0.00  0.00    +0.000 C 
ATOM      7  C   UNL     1       4.239   2.268  20.029  0.00  0.00    +0.000 C 
ATOM      8  C   UNL     1       3.223   1.669  19.061  0.00  0.00    +0.000 C 
ATOM      9  C   UNL     1       1.985   2.564  18.926  0.00  0.00    +0.000 C 
ATOM     10  O   UNL     1       2.375   3.876  18.467  0.00  0.00    +0.000 OA
ATOM     11  C   UNL     1       3.281   4.562  19.323  0.00  0.00    +0.000 C 
ATOM     12  S   UNL     1       4.056   5.952  18.470  0.00  0.00    +0.000 S 
ENDROOT
BRANCH   8  13
ATOM     13  O   UNL     1       3.830   1.491  17.781  0.00  0.00    +0.000 OA
ATOM     14  H   UNL     1       3.528   2.226  17.211  0.00  0.00    +0.000 HD
ENDBRANCH   8  13
BRANCH   9  15
ATOM     15  C   UNL     1       1.167   2.637  20.227  0.00  0.00    +0.000 C 
BRANCH  15  16
ATOM     16  O   UNL     1       0.331   3.791  20.238  0.00  0.00    +0.000 OA
ATOM     17  H   UNL     1      -0.558   3.504  19.957  0.00  0.00    +0.000 HD
ENDBRANCH  15  16
ENDBRANCH   9  15
TORSDOF 3
ENDMDL
MODEL 8
REMARK VINA RESULT:      -5.5      2.604      5.089
REMARK  Name = 
REMARK  5 active torsions:
REMARK  status: ('A' for Active; 'I' for Inactive)
REMARK    1  A    between atoms: C_1  and  N_2
REMARK    2  A    between atoms: N_2  and  C_3
REMARK    3  A    between atoms: C_8  and  O_9
REMARK    4  A    between atoms: C_10  and  C_11
REMARK    5  A    between atoms: C_11  and  O_12
REMARK                            x       y       z     vdW  Elec       q    Type
REMARK                         _______ _______ _______ _____ _____    ______ ____
ROOT
ATOM      1  C   UNL     1       1.174   3.166  20.572  0.00  0.00    +0.000 C 
ATOM      2  N   UNL     1       1.832   3.123  19.270  0.00  0.00    +0.000 N 
ATOM      3  C   UNL     1       1.027   2.586  18.176  0.00  0.00    +0.000 C 
ATOM      4  C   UNL     1       2.854   3.993  18.951  0.00  0.00    +0.000 C 
ATOM      5  N   UNL     1       3.171   4.312  17.734  0.00  0.00    +0.000 NA
ATOM      6  C   UNL     1       4.110   5.457  17.732  0.00  0.00    +0.000 C 
ATOM      7  C   UNL     1       4.890   5.455  16.418  0.00  0.00    +0.000 C 
ATOM      8  C   UNL     1       6.170   4.628  16.481  0.00  0.00    +0.000 C 
ATOM      9  C   UNL     1       6.973   4.939  17.750  0.00  0.00    +0.000 C 
ATOM     10  O   UNL     1       6.169   4.674  18.919  0.00  0.00    +0.000 OA
ATOM     11  C   UNL     1       4.969   5.435  19.001  0.00  0.00    +0.000 C 
ATOM     12  S   UNL     1       3.831   4.726  20.210  0.00  0.00    +0.000 S 
ENDROOT
BRANCH   8  13
ATOM     13  O   UNL     1       5.844   3.238  16.447  0.00  0.00    +0.000 OA
ATOM     14  H   UNL     1       5.274   3.054  17.220  0.00  0.00    +0.000 HD
ENDBRANCH   8  13
BRANCH   9  15
ATOM     15  C   UNL     1       7.531   6.374  17.757  0.00  0.00    +0.000 C 
BRANCH  15  16
ATOM     16  O   UNL     1       8.278   6.623  18.944  0.00  0.00    +0.000 OA
ATOM     17  H   UNL     1       9.163   6.927  18.667  0.00  0.00    +0.000 HD
ENDBRANCH  15  16
ENDBRANCH   9  15
TORSDOF 3
ENDMDL
MODEL 9
REMARK VINA RESULT:      -5.4      1.746      2.043
REMARK  Name = 
REMARK  5 active torsions:
REMARK  status: ('A' for Active; 'I' for Inactive)
REMARK    1  A    between atoms: C_1  and  N_2
REMARK    2  A    between atoms: N_2  and  C_3
REMARK    3  A    between atoms: C_8  and  O_9
REMARK    4  A    between atoms: C_10  and  C_11
REMARK    5  A    between atoms: C_11  and  O_12
REMARK                            x       y       z     vdW  Elec       q    Type
REMARK                         _______ _______ _______ _____ _____    ______ ____
ROOT
ATOM      1  C   UNL     1       5.263   6.724  15.567  0.00  0.00    +0.000 C 
ATOM      2  N   UNL     1       5.471   5.378  16.091  0.00  0.00    +0.000 N 
ATOM      3  C   UNL     1       6.767   4.778  15.783  0.00  0.00    +0.000 C 
ATOM      4  C   UNL     1       4.803   4.930  17.211  0.00  0.00    +0.000 C 
ATOM      5  N   UNL     1       5.236   3.970  17.969  0.00  0.00    +0.000 NA
ATOM      6  C   UNL     1       4.450   3.911  19.222  0.00  0.00    +0.000 C 
ATOM      7  C   UNL     1       4.565   2.506  19.812  0.00  0.00    +0.000 C 
ATOM      8  C   UNL     1       3.494   1.549  19.299  0.00  0.00    +0.000 C 
ATOM      9  C   UNL     1       2.103   2.194  19.340  0.00  0.00    +0.000 C 
ATOM     10  O   UNL     1       2.096   3.400  18.546  0.00  0.00    +0.000 OA
ATOM     11  C   UNL     1       3.019   4.397  18.968  0.00  0.00    +0.000 C 
ATOM     12  S   UNL     1       3.269   5.639  17.681  0.00  0.00    +0.000 S 
ENDROOT
BRANCH   8  13
ATOM     13  O   UNL     1       3.803   1.159  17.960  0.00  0.00    +0.000 OA
ATOM     14  H   UNL     1       4.295   1.896  17.548  0.00  0.00    +0.000 HD
ENDBRANCH   8  13
BRANCH   9  15
ATOM     15  C   UNL     1       1.619   2.458  20.777  0.00  0.00    +0.000 C 
BRANCH  15  16
ATOM     16  O   UNL     1       0.466   3.294  20.780  0.00  0.00    +0.000 OA
ATOM     17  H   UNL     1      -0.278   2.757  21.111  0.00  0.00    +0.000 HD
ENDBRANCH  15  16
ENDBRANCH   9  15
TORSDOF 3
ENDMDL
