MODEL 1
REMARK VINA RESULT:      -7.6      0.000      0.000
REMARK  Name = 
REMARK  9 active torsions:
REMARK  status: ('A' for Active; 'I' for Inactive)
REMARK    1  A    between atoms: C_1  and  O_2
REMARK    2  A    between atoms: O_2  and  C_3
REMARK    3  A    between atoms: C_6  and  C_7
REMARK    4  A    between atoms: C_8  and  C_9
REMARK    5  A    between atoms: C_11  and  N_12
REMARK    6  A    between atoms: C_17  and  C_18
REMARK    7  A    between atoms: C_21  and  C_22
REMARK    8  A    between atoms: C_22  and  S_23
REMARK    9  A    between atoms: S_23  and  C_24
REMARK                            x       y       z     vdW  Elec       q    Type
REMARK                         _______ _______ _______ _____ _____    ______ ____
ROOT
ATOM      1  C   UNL     1       1.592   8.702  18.903  0.00  0.00    +0.000 A 
ATOM      2  C   UNL     1       1.868   7.985  17.728  0.00  0.00    +0.000 A 
ATOM      3  C   UNL     1       2.550   6.779  17.768  0.00  0.00    +0.000 A 
ATOM      4  C   UNL     1       2.951   6.241  18.990  0.00  0.00    +0.000 A 
ATOM      5  C   UNL     1       2.583   6.904  20.173  0.00  0.00    +0.000 A 
ATOM      6  C   UNL     1       1.919   8.148  20.161  0.00  0.00    +0.000 A 
ENDROOT
BRANCH   4   7
ATOM      7  C   UNL     1       3.757   4.960  18.987  0.00  0.00    +0.000 C 
ATOM      8  C   UNL     1       4.853   4.903  17.929  0.00  0.00    +0.000 C 
ATOM      9  C   UNL     1       4.998   3.844  17.083  0.00  0.00    +0.000 C 
ATOM     10  O   UNL     1       4.097   2.765  17.079  0.00  0.00    +0.000 OA
ATOM     11  C   UNL     1       3.056   2.861  17.899  0.00  0.00    +0.000 A 
ATOM     12  N   UNL     1       2.039   1.965  17.972  0.00  0.00    +0.000 N 
ATOM     13  N   UNL     1       1.106   2.307  18.884  0.00  0.00    +0.000 NA
ATOM     14  C   UNL     1       1.553   3.466  19.398  0.00  0.00    +0.000 A 
ATOM     15  C   UNL     1       0.766   4.169  20.443  0.00  0.00    +0.000 C 
ATOM     16  C   UNL     1       2.787   3.845  18.811  0.00  0.00    +0.000 A 
ATOM     17  H   UNL     1       1.913   1.111  17.441  0.00  0.00    +0.000 HD
BRANCH   9  18
ATOM     18  N   UNL     1       6.005   3.704  16.157  0.00  0.00    +0.000 N 
ATOM     19  H   UNL     1       5.708   3.633  15.186  0.00  0.00    +0.000 HD
ATOM     20  H   UNL     1       6.679   2.992  16.425  0.00  0.00    +0.000 HD
ENDBRANCH   9  18
BRANCH   8  21
ATOM     21  C   UNL     1       5.754   6.002  17.871  0.00  0.00    +0.000 C 
ATOM     22  N   UNL     1       6.506   6.888  17.804  0.00  0.00    +0.000 NA
ENDBRANCH   8  21
ENDBRANCH   4   7
BRANCH   1  24
ATOM     23  C   UNL     1      -0.168  10.019  18.030  0.00  0.00    +0.000 C 
ATOM     24  O   UNL     1       0.998   9.942  18.859  0.00  0.00    +0.000 OA
ENDBRANCH   1  24
BRANCH   6  25
ATOM     25  C   UNL     1       1.500   8.813  21.471  0.00  0.00    +0.000 C 
BRANCH  25  26
ATOM     26  S   UNL     1      -0.328   8.904  21.733  0.00  0.00    +0.000 S 
BRANCH  26  27
ATOM     27  C   UNL     1      -0.560  10.647  22.011  0.00  0.00    +0.000 A 
ATOM     28  C   UNL     1      -1.467  11.075  22.978  0.00  0.00    +0.000 A 
ATOM     29  C   UNL     1      -1.546  12.437  23.270  0.00  0.00    +0.000 A 
ATOM     30  C   UNL     1      -0.728  13.324  22.582  0.00  0.00    +0.000 A 
ATOM     31  C   UNL     1       0.113  12.814  21.608  0.00  0.00    +0.000 A 
ATOM     32  N   UNL     1       0.211  11.503  21.309  0.00  0.00    +0.000 NA
ENDBRANCH  26  27
ENDBRANCH  25  26
ENDBRANCH   6  25
TORSDOF 7
ENDMDL
MODEL 2
REMARK VINA RESULT:      -7.3      5.472      8.275
REMARK  Name = 
REMARK  9 active torsions:
REMARK  status: ('A' for Active; 'I' for Inactive)
REMARK    1  A    between atoms: C_1  and  O_2
REMARK    2  A    between atoms: O_2  and  C_3
REMARK    3  A    between atoms: C_6  and  C_7
REMARK    4  A    between atoms: C_8  and  C_9
REMARK    5  A    between atoms: C_11  and  N_12
REMARK    6  A    between atoms: C_17  and  C_18
REMARK    7  A    between atoms: C_21  and  C_22
REMARK    8  A    between atoms: C_22  and  S_23
REMARK    9  A    between atoms: S_23  and  C_24
REMARK                            x       y       z     vdW  Elec       q    Type
REMARK                         _______ _______ _______ _____ _____    ______ ____
ROOT
ATOM      1  C   UNL     1      -3.455  12.466  22.182  0.00  0.00    +0.000 A 
ATOM      2  C   UNL     1      -2.385  12.348  23.083  0.00  0.00    +0.000 A 
ATOM      3  C   UNL     1      -1.070  12.442  22.650  0.00  0.00    +0.000 A 
ATOM      4  C   UNL     1      -0.790  12.685  21.307  0.00  0.00    +0.000 A 
ATOM      5  C   UNL     1      -1.860  12.907  20.424  0.00  0.00    +0.000 A 
ATOM      6  C   UNL     1      -3.206  12.785  20.828  0.00  0.00    +0.000 A 
ENDROOT
BRANCH   4   7
ATOM      7  C   UNL     1       0.656  12.706  20.862  0.00  0.00    +0.000 C 
ATOM      8  C   UNL     1       1.112  14.025  20.249  0.00  0.00    +0.000 C 
ATOM      9  C   UNL     1       1.763  14.089  19.054  0.00  0.00    +0.000 C 
ATOM     10  O   UNL     1       1.992  12.946  18.267  0.00  0.00    +0.000 OA
ATOM     11  C   UNL     1       1.481  11.806  18.719  0.00  0.00    +0.000 A 
ATOM     12  N   UNL     1       1.522  10.620  18.060  0.00  0.00    +0.000 N 
ATOM     13  N   UNL     1       0.921   9.623  18.740  0.00  0.00    +0.000 NA
ATOM     14  C   UNL     1       0.481  10.208  19.868  0.00  0.00    +0.000 A 
ATOM     15  C   UNL     1      -0.260   9.411  20.879  0.00  0.00    +0.000 C 
ATOM     16  C   UNL     1       0.823  11.584  19.899  0.00  0.00    +0.000 A 
ATOM     17  H   UNL     1       1.935  10.417  17.157  0.00  0.00    +0.000 HD
BRANCH   9  18
ATOM     18  N   UNL     1       2.258  15.239  18.484  0.00  0.00    +0.000 N 
ATOM     19  H   UNL     1       2.376  16.030  19.112  0.00  0.00    +0.000 HD
ATOM     20  H   UNL     1       1.779  15.478  17.620  0.00  0.00    +0.000 HD
ENDBRANCH   9  18
BRANCH   8  21
ATOM     21  C   UNL     1       0.852  15.208  20.994  0.00  0.00    +0.000 C 
ATOM     22  N   UNL     1       0.620  16.162  21.621  0.00  0.00    +0.000 NA
ENDBRANCH   8  21
ENDBRANCH   4   7
BRANCH   1  24
ATOM     23  C   UNL     1      -5.125  13.018  23.762  0.00  0.00    +0.000 C 
ATOM     24  O   UNL     1      -4.755  12.281  22.591  0.00  0.00    +0.000 OA
ENDBRANCH   1  24
BRANCH   6  25
ATOM     25  C   UNL     1      -4.338  13.078  19.845  0.00  0.00    +0.000 C 
BRANCH  25  26
ATOM     26  S   UNL     1      -5.182  11.574  19.179  0.00  0.00    +0.000 S 
BRANCH  26  27
ATOM     27  C   UNL     1      -4.105  11.130  17.833  0.00  0.00    +0.000 A 
ATOM     28  C   UNL     1      -2.965  10.369  18.086  0.00  0.00    +0.000 A 
ATOM     29  C   UNL     1      -2.200   9.925  17.008  0.00  0.00    +0.000 A 
ATOM     30  C   UNL     1      -2.590  10.262  15.718  0.00  0.00    +0.000 A 
ATOM     31  C   UNL     1      -3.713  11.056  15.564  0.00  0.00    +0.000 A 
ATOM     32  N   UNL     1      -4.471  11.496  16.588  0.00  0.00    +0.000 NA
ENDBRANCH  26  27
ENDBRANCH  25  26
ENDBRANCH   6  25
TORSDOF 7
ENDMDL
MODEL 3
REMARK VINA RESULT:      -7.2      5.810     10.731
REMARK  Name = 
REMARK  9 active torsions:
REMARK  status: ('A' for Active; 'I' for Inactive)
REMARK    1  A    between atoms: C_1  and  O_2
REMARK    2  A    between atoms: O_2  and  C_3
REMARK    3  A    between atoms: C_6  and  C_7
REMARK    4  A    between atoms: C_8  and  C_9
REMARK    5  A    between atoms: C_11  and  N_12
REMARK    6  A    between atoms: C_17  and  C_18
REMARK    7  A    between atoms: C_21  and  C_22
REMARK    8  A    between atoms: C_22  and  S_23
REMARK    9  A    between atoms: S_23  and  C_24
REMARK                            x       y       z     vdW  Elec       q    Type
REMARK                         _______ _______ _______ _____ _____    ______ ____
ROOT
ATOM      1  C   UNL     1      -3.682  11.178  17.232  0.00  0.00    +0.000 A 
ATOM      2  C   UNL     1      -4.954  11.100  16.643  0.00  0.00    +0.000 A 
ATOM      3  C   UNL     1      -6.077  11.584  17.297  0.00  0.00    +0.000 A 
ATOM      4  C   UNL     1      -5.954  12.187  18.548  0.00  0.00    +0.000 A 
ATOM      5  C   UNL     1      -4.670  12.361  19.091  0.00  0.00    +0.000 A 
ATOM      6  C   UNL     1      -3.515  11.849  18.464  0.00  0.00    +0.000 A 
ENDROOT
BRANCH   4   7
ATOM      7  C   UNL     1      -7.211  12.636  19.260  0.00  0.00    +0.000 C 
ATOM      8  C   UNL     1      -7.175  14.073  19.768  0.00  0.00    +0.000 C 
ATOM      9  C   UNL     1      -7.504  14.404  21.048  0.00  0.00    +0.000 C 
ATOM     10  O   UNL     1      -7.827  13.431  22.011  0.00  0.00    +0.000 OA
ATOM     11  C   UNL     1      -7.731  12.164  21.625  0.00  0.00    +0.000 A 
ATOM     12  N   UNL     1      -7.917  11.089  22.433  0.00  0.00    +0.000 N 
ATOM     13  N   UNL     1      -7.751   9.916  21.789  0.00  0.00    +0.000 NA
ATOM     14  C   UNL     1      -7.445  10.270  20.528  0.00  0.00    +0.000 A 
ATOM     15  C   UNL     1      -7.172   9.225  19.508  0.00  0.00    +0.000 C 
ATOM     16  C   UNL     1      -7.432  11.680  20.380  0.00  0.00    +0.000 A 
ATOM     17  H   UNL     1      -8.153  11.076  23.418  0.00  0.00    +0.000 HD
BRANCH   9  18
ATOM     18  N   UNL     1      -7.557  15.686  21.544  0.00  0.00    +0.000 N 
ATOM     19  H   UNL     1      -8.489  16.065  21.695  0.00  0.00    +0.000 HD
ATOM     20  H   UNL     1      -6.940  16.319  21.043  0.00  0.00    +0.000 HD
ENDBRANCH   9  18
BRANCH   8  21
ATOM     21  C   UNL     1      -6.803  15.078  18.834  0.00  0.00    +0.000 C 
ATOM     22  N   UNL     1      -6.521  15.919  18.079  0.00  0.00    +0.000 NA
ENDBRANCH   8  21
ENDBRANCH   4   7
BRANCH   1  24
ATOM     23  C   UNL     1      -2.781  10.222  15.267  0.00  0.00    +0.000 C 
ATOM     24  O   UNL     1      -2.581  10.617  16.629  0.00  0.00    +0.000 OA
ENDBRANCH   1  24
BRANCH   6  25
ATOM     25  C   UNL     1      -2.133  12.098  19.069  0.00  0.00    +0.000 C 
BRANCH  25  26
ATOM     26  S   UNL     1      -2.117  12.235  20.913  0.00  0.00    +0.000 S 
BRANCH  26  27
ATOM     27  C   UNL     1      -0.958  10.958  21.353  0.00  0.00    +0.000 A 
ATOM     28  C   UNL     1      -0.727  10.672  22.697  0.00  0.00    +0.000 A 
ATOM     29  C   UNL     1       0.087   9.588  23.023  0.00  0.00    +0.000 A 
ATOM     30  C   UNL     1       0.652   8.835  22.002  0.00  0.00    +0.000 A 
ATOM     31  C   UNL     1       0.401   9.218  20.695  0.00  0.00    +0.000 A 
ATOM     32  N   UNL     1      -0.384  10.259  20.353  0.00  0.00    +0.000 NA
ENDBRANCH  26  27
ENDBRANCH  25  26
ENDBRANCH   6  25
TORSDOF 7
ENDMDL
MODEL 4
REMARK VINA RESULT:      -6.9      8.960     10.113
REMARK  Name = 
REMARK  9 active torsions:
REMARK  status: ('A' for Active; 'I' for Inactive)
REMARK    1  A    between atoms: C_1  and  O_2
REMARK    2  A    between atoms: O_2  and  C_3
REMARK    3  A    between atoms: C_6  and  C_7
REMARK    4  A    between atoms: C_8  and  C_9
REMARK    5  A    between atoms: C_11  and  N_12
REMARK    6  A    between atoms: C_17  and  C_18
REMARK    7  A    between atoms: C_21  and  C_22
REMARK    8  A    between atoms: C_22  and  S_23
REMARK    9  A    between atoms: S_23  and  C_24
REMARK                            x       y       z     vdW  Elec       q    Type
REMARK                         _______ _______ _______ _____ _____    ______ ____
ROOT
ATOM      1  C   UNL     1       7.029  16.922  19.355  0.00  0.00    +0.000 A 
ATOM      2  C   UNL     1       8.239  17.326  19.942  0.00  0.00    +0.000 A 
ATOM      3  C   UNL     1       9.276  16.427  20.137  0.00  0.00    +0.000 A 
ATOM      4  C   UNL     1       9.141  15.102  19.724  0.00  0.00    +0.000 A 
ATOM      5  C   UNL     1       7.973  14.723  19.042  0.00  0.00    +0.000 A 
ATOM      6  C   UNL     1       6.890  15.607  18.860  0.00  0.00    +0.000 A 
ENDROOT
BRANCH   4   7
ATOM      7  C   UNL     1      10.266  14.135  20.021  0.00  0.00    +0.000 C 
ATOM      8  C   UNL     1      10.991  13.605  18.789  0.00  0.00    +0.000 C 
ATOM      9  C   UNL     1      11.212  12.276  18.586  0.00  0.00    +0.000 C 
ATOM     10  O   UNL     1      10.719  11.295  19.466  0.00  0.00    +0.000 OA
ATOM     11  C   UNL     1       9.968  11.728  20.472  0.00  0.00    +0.000 A 
ATOM     12  N   UNL     1       9.334  10.930  21.369  0.00  0.00    +0.000 N 
ATOM     13  N   UNL     1       8.631  11.627  22.284  0.00  0.00    +0.000 NA
ATOM     14  C   UNL     1       8.827  12.913  21.944  0.00  0.00    +0.000 A 
ATOM     15  C   UNL     1       8.183  13.996  22.730  0.00  0.00    +0.000 C 
ATOM     16  C   UNL     1       9.674  13.021  20.812  0.00  0.00    +0.000 A 
ATOM     17  H   UNL     1       9.334   9.918  21.420  0.00  0.00    +0.000 HD
BRANCH   9  18
ATOM     18  N   UNL     1      11.917  11.743  17.532  0.00  0.00    +0.000 N 
ATOM     19  H   UNL     1      11.718  12.144  16.618  0.00  0.00    +0.000 HD
ATOM     20  H   UNL     1      11.908  10.727  17.537  0.00  0.00    +0.000 HD
ENDBRANCH   9  18
BRANCH   8  21
ATOM     21  C   UNL     1      11.460  14.567  17.853  0.00  0.00    +0.000 C 
ATOM     22  N   UNL     1      11.870  15.351  17.096  0.00  0.00    +0.000 NA
ENDBRANCH   8  21
ENDBRANCH   4   7
BRANCH   1  24
ATOM     23  C   UNL     1       5.380  18.179  20.492  0.00  0.00    +0.000 C 
ATOM     24  O   UNL     1       5.966  17.788  19.245  0.00  0.00    +0.000 OA
ENDBRANCH   1  24
BRANCH   6  25
ATOM     25  C   UNL     1       5.656  15.165  18.074  0.00  0.00    +0.000 C 
BRANCH  25  26
ATOM     26  S   UNL     1       4.182  14.772  19.120  0.00  0.00    +0.000 S 
BRANCH  26  27
ATOM     27  C   UNL     1       3.027  16.017  18.586  0.00  0.00    +0.000 A 
ATOM     28  C   UNL     1       3.193  16.621  17.341  0.00  0.00    +0.000 A 
ATOM     29  C   UNL     1       2.212  17.501  16.885  0.00  0.00    +0.000 A 
ATOM     30  C   UNL     1       1.108  17.758  17.688  0.00  0.00    +0.000 A 
ATOM     31  C   UNL     1       1.047  17.145  18.927  0.00  0.00    +0.000 A 
ATOM     32  N   UNL     1       1.979  16.289  19.391  0.00  0.00    +0.000 NA
ENDBRANCH  26  27
ENDBRANCH  25  26
ENDBRANCH   6  25
TORSDOF 7
ENDMDL
MODEL 5
REMARK VINA RESULT:      -6.8      2.149      4.177
REMARK  Name = 
REMARK  9 active torsions:
REMARK  status: ('A' for Active; 'I' for Inactive)
REMARK    1  A    between atoms: C_1  and  O_2
REMARK    2  A    between atoms: O_2  and  C_3
REMARK    3  A    between atoms: C_6  and  C_7
REMARK    4  A    between atoms: C_8  and  C_9
REMARK    5  A    between atoms: C_11  and  N_12
REMARK    6  A    between atoms: C_17  and  C_18
REMARK    7  A    between atoms: C_21  and  C_22
REMARK    8  A    between atoms: C_22  and  S_23
REMARK    9  A    between atoms: S_23  and  C_24
REMARK                            x       y       z     vdW  Elec       q    Type
REMARK                         _______ _______ _______ _____ _____    ______ ____
ROOT
ATOM      1  C   UNL     1       1.631   8.273  19.885  0.00  0.00    +0.000 A 
ATOM      2  C   UNL     1       2.104   7.104  20.502  0.00  0.00    +0.000 A 
ATOM      3  C   UNL     1       2.708   6.098  19.762  0.00  0.00    +0.000 A 
ATOM      4  C   UNL     1       2.880   6.246  18.387  0.00  0.00    +0.000 A 
ATOM      5  C   UNL     1       2.503   7.459  17.786  0.00  0.00    +0.000 A 
ATOM      6  C   UNL     1       1.857   8.485  18.506  0.00  0.00    +0.000 A 
ENDROOT
BRANCH   4   7
ATOM      7  C   UNL     1       3.476   5.096  17.605  0.00  0.00    +0.000 C 
ATOM      8  C   UNL     1       2.920   3.724  17.970  0.00  0.00    +0.000 C 
ATOM      9  C   UNL     1       3.724   2.663  18.259  0.00  0.00    +0.000 C 
ATOM     10  O   UNL     1       5.124   2.781  18.313  0.00  0.00    +0.000 OA
ATOM     11  C   UNL     1       5.622   4.000  18.133  0.00  0.00    +0.000 A 
ATOM     12  N   UNL     1       6.935   4.326  18.235  0.00  0.00    +0.000 N 
ATOM     13  N   UNL     1       7.167   5.635  18.011  0.00  0.00    +0.000 NA
ATOM     14  C   UNL     1       5.950   6.151  17.764  0.00  0.00    +0.000 A 
ATOM     15  C   UNL     1       5.800   7.602  17.483  0.00  0.00    +0.000 C 
ATOM     16  C   UNL     1       4.948   5.149  17.821  0.00  0.00    +0.000 A 
ATOM     17  H   UNL     1       7.718   3.721  18.451  0.00  0.00    +0.000 HD
BRANCH   9  18
ATOM     18  N   UNL     1       3.284   1.387  18.528  0.00  0.00    +0.000 N 
ATOM     19  H   UNL     1       2.431   1.103  18.050  0.00  0.00    +0.000 HD
ATOM     20  H   UNL     1       3.274   1.185  19.523  0.00  0.00    +0.000 HD
ENDBRANCH   9  18
BRANCH   8  21
ATOM     21  C   UNL     1       1.505   3.581  17.975  0.00  0.00    +0.000 C 
ATOM     22  N   UNL     1       0.349   3.443  17.999  0.00  0.00    +0.000 NA
ENDBRANCH   8  21
ENDBRANCH   4   7
BRANCH   1  24
ATOM     23  C   UNL     1       0.048   8.714  21.585  0.00  0.00    +0.000 C 
ATOM     24  O   UNL     1       0.950   9.231  20.599  0.00  0.00    +0.000 OA
ENDBRANCH   1  24
BRANCH   6  25
ATOM     25  C   UNL     1       1.503   9.805  17.822  0.00  0.00    +0.000 C 
BRANCH  25  26
ATOM     26  S   UNL     1       0.686  11.044  18.925  0.00  0.00    +0.000 S 
BRANCH  26  27
ATOM     27  C   UNL     1      -1.003  10.951  18.371  0.00  0.00    +0.000 A 
ATOM     28  C   UNL     1      -1.377   9.962  17.463  0.00  0.00    +0.000 A 
ATOM     29  C   UNL     1      -2.725   9.825  17.136  0.00  0.00    +0.000 A 
ATOM     30  C   UNL     1      -3.652  10.682  17.714  0.00  0.00    +0.000 A 
ATOM     31  C   UNL     1      -3.186  11.662  18.574  0.00  0.00    +0.000 A 
ATOM     32  N   UNL     1      -1.889  11.814  18.909  0.00  0.00    +0.000 NA
ENDBRANCH  26  27
ENDBRANCH  25  26
ENDBRANCH   6  25
TORSDOF 7
ENDMDL
MODEL 6
REMARK VINA RESULT:      -6.8      3.897      6.740
REMARK  Name = 
REMARK  9 active torsions:
REMARK  status: ('A' for Active; 'I' for Inactive)
REMARK    1  A    between atoms: C_1  and  O_2
REMARK    2  A    between atoms: O_2  and  C_3
REMARK    3  A    between atoms: C_6  and  C_7
REMARK    4  A    between atoms: C_8  and  C_9
REMARK    5  A    between atoms: C_11  and  N_12
REMARK    6  A    between atoms: C_17  and  C_18
REMARK    7  A    between atoms: C_21  and  C_22
REMARK    8  A    between atoms: C_22  and  S_23
REMARK    9  A    between atoms: S_23  and  C_24
REMARK                            x       y       z     vdW  Elec       q    Type
REMARK                         _______ _______ _______ _____ _____    ______ ____
ROOT
ATOM      1  C   UNL     1       6.262   5.495  15.970  0.00  0.00    +0.000 A 
ATOM      2  C   UNL     1       5.254   4.538  15.775  0.00  0.00    +0.000 A 
ATOM      3  C   UNL     1       4.078   4.578  16.509  0.00  0.00    +0.000 A 
ATOM      4  C   UNL     1       3.866   5.595  17.439  0.00  0.00    +0.000 A 
ATOM      5  C   UNL     1       4.828   6.611  17.559  0.00  0.00    +0.000 A 
ATOM      6  C   UNL     1       6.047   6.578  16.850  0.00  0.00    +0.000 A 
ENDROOT
BRANCH   4   7
ATOM      7  C   UNL     1       2.603   5.561  18.271  0.00  0.00    +0.000 C 
ATOM      8  C   UNL     1       2.268   6.873  18.970  0.00  0.00    +0.000 C 
ATOM      9  C   UNL     1       1.975   6.939  20.300  0.00  0.00    +0.000 C 
ATOM     10  O   UNL     1       2.035   5.808  21.134  0.00  0.00    +0.000 OA
ATOM     11  C   UNL     1       2.458   4.681  20.571  0.00  0.00    +0.000 A 
ATOM     12  N   UNL     1       2.665   3.513  21.230  0.00  0.00    +0.000 N 
ATOM     13  N   UNL     1       3.103   2.527  20.422  0.00  0.00    +0.000 NA
ATOM     14  C   UNL     1       3.178   3.101  19.208  0.00  0.00    +0.000 A 
ATOM     15  C   UNL     1       3.648   2.313  18.040  0.00  0.00    +0.000 C 
ATOM     16  C   UNL     1       2.770   4.458  19.257  0.00  0.00    +0.000 A 
ATOM     17  H   UNL     1       2.533   3.315  22.215  0.00  0.00    +0.000 HD
BRANCH   9  18
ATOM     18  N   UNL     1       1.599   8.079  20.971  0.00  0.00    +0.000 N 
ATOM     19  H   UNL     1       0.836   8.608  20.555  0.00  0.00    +0.000 HD
ATOM     20  H   UNL     1       2.396   8.656  21.227  0.00  0.00    +0.000 HD
ENDBRANCH   9  18
BRANCH   8  21
ATOM     21  C   UNL     1       2.247   8.046  18.167  0.00  0.00    +0.000 C 
ATOM     22  N   UNL     1       2.253   8.997  17.495  0.00  0.00    +0.000 NA
ENDBRANCH   8  21
ENDBRANCH   4   7
BRANCH   1  24
ATOM     23  C   UNL     1       7.386   4.876  13.983  0.00  0.00    +0.000 C 
ATOM     24  O   UNL     1       7.467   5.405  15.312  0.00  0.00    +0.000 OA
ENDBRANCH   1  24
BRANCH   6  25
ATOM     25  C   UNL     1       7.047   7.727  16.979  0.00  0.00    +0.000 C 
BRANCH  25  26
ATOM     26  S   UNL     1       8.124   7.641  18.479  0.00  0.00    +0.000 S 
BRANCH  26  27
ATOM     27  C   UNL     1       8.661   9.332  18.627  0.00  0.00    +0.000 A 
ATOM     28  C   UNL     1       8.350  10.243  17.619  0.00  0.00    +0.000 A 
ATOM     29  C   UNL     1       8.668  11.588  17.808  0.00  0.00    +0.000 A 
ATOM     30  C   UNL     1       9.293  11.977  18.986  0.00  0.00    +0.000 A 
ATOM     31  C   UNL     1       9.601  10.996  19.914  0.00  0.00    +0.000 A 
ATOM     32  N   UNL     1       9.302   9.691  19.758  0.00  0.00    +0.000 NA
ENDBRANCH  26  27
ENDBRANCH  25  26
ENDBRANCH   6  25
TORSDOF 7
ENDMDL
MODEL 7
REMARK VINA RESULT:      -6.8      1.409      3.312
REMARK  Name = 
REMARK  9 active torsions:
REMARK  status: ('A' for Active; 'I' for Inactive)
REMARK    1  A    between atoms: C_1  and  O_2
REMARK    2  A    between atoms: O_2  and  C_3
REMARK    3  A    between atoms: C_6  and  C_7
REMARK    4  A    between atoms: C_8  and  C_9
REMARK    5  A    between atoms: C_11  and  N_12
REMARK    6  A    between atoms: C_17  and  C_18
REMARK    7  A    between atoms: C_21  and  C_22
REMARK    8  A    between atoms: C_22  and  S_23
REMARK    9  A    between atoms: S_23  and  C_24
REMARK                            x       y       z     vdW  Elec       q    Type
REMARK                         _______ _______ _______ _____ _____    ______ ____
ROOT
ATOM      1  C   UNL     1       1.793   8.842  18.748  0.00  0.00    +0.000 A 
ATOM      2  C   UNL     1       2.369   8.625  17.486  0.00  0.00    +0.000 A 
ATOM      3  C   UNL     1       3.041   7.447  17.199  0.00  0.00    +0.000 A 
ATOM      4  C   UNL     1       3.133   6.441  18.158  0.00  0.00    +0.000 A 
ATOM      5  C   UNL     1       2.468   6.613  19.384  0.00  0.00    +0.000 A 
ATOM      6  C   UNL     1       1.805   7.813  19.716  0.00  0.00    +0.000 A 
ENDROOT
BRANCH   4   7
ATOM      7  C   UNL     1       3.938   5.202  17.831  0.00  0.00    +0.000 C 
ATOM      8  C   UNL     1       3.397   3.914  18.441  0.00  0.00    +0.000 C 
ATOM      9  C   UNL     1       4.185   3.050  19.142  0.00  0.00    +0.000 C 
ATOM     10  O   UNL     1       5.536   3.327  19.415  0.00  0.00    +0.000 OA
ATOM     11  C   UNL     1       5.990   4.508  19.010  0.00  0.00    +0.000 A 
ATOM     12  N   UNL     1       7.236   4.988  19.258  0.00  0.00    +0.000 N 
ATOM     13  N   UNL     1       7.434   6.217  18.740  0.00  0.00    +0.000 NA
ATOM     14  C   UNL     1       6.266   6.521  18.149  0.00  0.00    +0.000 A 
ATOM     15  C   UNL     1       6.094   7.832  17.470  0.00  0.00    +0.000 C 
ATOM     16  C   UNL     1       5.330   5.465  18.288  0.00  0.00    +0.000 A 
ATOM     17  H   UNL     1       7.992   4.544  19.765  0.00  0.00    +0.000 HD
BRANCH   9  18
ATOM     18  N   UNL     1       3.771   1.843  19.656  0.00  0.00    +0.000 N 
ATOM     19  H   UNL     1       2.777   1.764  19.859  0.00  0.00    +0.000 HD
ATOM     20  H   UNL     1       4.364   1.525  20.418  0.00  0.00    +0.000 HD
ENDBRANCH   9  18
BRANCH   8  21
ATOM     21  C   UNL     1       2.021   3.626  18.228  0.00  0.00    +0.000 C 
ATOM     22  N   UNL     1       0.891   3.388  18.082  0.00  0.00    +0.000 NA
ENDBRANCH   8  21
ENDBRANCH   4   7
BRANCH   1  24
ATOM     23  C   UNL     1       0.002  10.333  18.347  0.00  0.00    +0.000 C 
ATOM     24  O   UNL     1       1.207  10.045  19.067  0.00  0.00    +0.000 OA
ENDBRANCH   1  24
BRANCH   6  25
ATOM     25  C   UNL     1       1.059   7.942  21.043  0.00  0.00    +0.000 C 
BRANCH  25  26
ATOM     26  S   UNL     1       1.773   9.189  22.206  0.00  0.00    +0.000 S 
BRANCH  26  27
ATOM     27  C   UNL     1       0.448  10.373  22.314  0.00  0.00    +0.000 A 
ATOM     28  C   UNL     1      -0.689  10.066  23.059  0.00  0.00    +0.000 A 
ATOM     29  C   UNL     1      -1.662  11.050  23.236  0.00  0.00    +0.000 A 
ATOM     30  C   UNL     1      -1.474  12.299  22.657  0.00  0.00    +0.000 A 
ATOM     31  C   UNL     1      -0.334  12.500  21.899  0.00  0.00    +0.000 A 
ATOM     32  N   UNL     1       0.623  11.568  21.714  0.00  0.00    +0.000 NA
ENDBRANCH  26  27
ENDBRANCH  25  26
ENDBRANCH   6  25
TORSDOF 7
ENDMDL
MODEL 8
REMARK VINA RESULT:      -6.7      1.727      3.671
REMARK  Name = 
REMARK  9 active torsions:
REMARK  status: ('A' for Active; 'I' for Inactive)
REMARK    1  A    between atoms: C_1  and  O_2
REMARK    2  A    between atoms: O_2  and  C_3
REMARK    3  A    between atoms: C_6  and  C_7
REMARK    4  A    between atoms: C_8  and  C_9
REMARK    5  A    between atoms: C_11  and  N_12
REMARK    6  A    between atoms: C_17  and  C_18
REMARK    7  A    between atoms: C_21  and  C_22
REMARK    8  A    between atoms: C_22  and  S_23
REMARK    9  A    between atoms: S_23  and  C_24
REMARK                            x       y       z     vdW  Elec       q    Type
REMARK                         _______ _______ _______ _____ _____    ______ ____
ROOT
ATOM      1  C   UNL     1       1.670   8.164  20.102  0.00  0.00    +0.000 A 
ATOM      2  C   UNL     1       2.196   6.990  20.662  0.00  0.00    +0.000 A 
ATOM      3  C   UNL     1       2.757   6.004  19.863  0.00  0.00    +0.000 A 
ATOM      4  C   UNL     1       2.832   6.180  18.482  0.00  0.00    +0.000 A 
ATOM      5  C   UNL     1       2.401   7.399  17.932  0.00  0.00    +0.000 A 
ATOM      6  C   UNL     1       1.797   8.404  18.715  0.00  0.00    +0.000 A 
ENDROOT
BRANCH   4   7
ATOM      7  C   UNL     1       3.382   5.050  17.639  0.00  0.00    +0.000 C 
ATOM      8  C   UNL     1       2.854   3.668  18.005  0.00  0.00    +0.000 C 
ATOM      9  C   UNL     1       3.678   2.604  18.220  0.00  0.00    +0.000 C 
ATOM     10  O   UNL     1       5.079   2.727  18.192  0.00  0.00    +0.000 OA
ATOM     11  C   UNL     1       5.560   3.952  18.010  0.00  0.00    +0.000 A 
ATOM     12  N   UNL     1       6.876   4.282  18.040  0.00  0.00    +0.000 N 
ATOM     13  N   UNL     1       7.089   5.598  17.834  0.00  0.00    +0.000 NA
ATOM     14  C   UNL     1       5.859   6.113  17.673  0.00  0.00    +0.000 A 
ATOM     15  C   UNL     1       5.687   7.569  17.436  0.00  0.00    +0.000 C 
ATOM     16  C   UNL     1       4.865   5.106  17.767  0.00  0.00    +0.000 A 
ATOM     17  H   UNL     1       7.673   3.677  18.194  0.00  0.00    +0.000 HD
BRANCH   9  18
ATOM     18  N   UNL     1       3.259   1.321  18.485  0.00  0.00    +0.000 N 
ATOM     19  H   UNL     1       3.884   0.578  18.177  0.00  0.00    +0.000 HD
ATOM     20  H   UNL     1       2.290   1.169  18.218  0.00  0.00    +0.000 HD
ENDBRANCH   9  18
BRANCH   8  21
ATOM     21  C   UNL     1       1.443   3.518  18.092  0.00  0.00    +0.000 C 
ATOM     22  N   UNL     1       0.289   3.369  18.151  0.00  0.00    +0.000 NA
ENDBRANCH   8  21
ENDBRANCH   4   7
BRANCH   1  24
ATOM     23  C   UNL     1      -0.153   8.629  21.534  0.00  0.00    +0.000 C 
ATOM     24  O   UNL     1       1.031   9.101  20.880  0.00  0.00    +0.000 OA
ENDBRANCH   1  24
BRANCH   6  25
ATOM     25  C   UNL     1       1.383   9.732  18.082  0.00  0.00    +0.000 C 
BRANCH  25  26
ATOM     26  S   UNL     1      -0.442   9.949  17.883  0.00  0.00    +0.000 S 
BRANCH  26  27
ATOM     27  C   UNL     1      -0.738  11.392  18.884  0.00  0.00    +0.000 A 
ATOM     28  C   UNL     1      -2.045  11.734  19.227  0.00  0.00    +0.000 A 
ATOM     29  C   UNL     1      -2.251  12.792  20.112  0.00  0.00    +0.000 A 
ATOM     30  C   UNL     1      -1.153  13.478  20.615  0.00  0.00    +0.000 A 
ATOM     31  C   UNL     1       0.106  13.095  20.186  0.00  0.00    +0.000 A 
ATOM     32  N   UNL     1       0.334  12.075  19.334  0.00  0.00    +0.000 NA
ENDBRANCH  26  27
ENDBRANCH  25  26
ENDBRANCH   6  25
TORSDOF 7
ENDMDL
MODEL 9
REMARK VINA RESULT:      -6.7      2.911      8.630
REMARK  Name = 
REMARK  9 active torsions:
REMARK  status: ('A' for Active; 'I' for Inactive)
REMARK    1  A    between atoms: C_1  and  O_2
REMARK    2  A    between atoms: O_2  and  C_3
REMARK    3  A    between atoms: C_6  and  C_7
REMARK    4  A    between atoms: C_8  and  C_9
REMARK    5  A    between atoms: C_11  and  N_12
REMARK    6  A    between atoms: C_17  and  C_18
REMARK    7  A    between atoms: C_21  and  C_22
REMARK    8  A    between atoms: C_22  and  S_23
REMARK    9  A    between atoms: S_23  and  C_24
REMARK                            x       y       z     vdW  Elec       q    Type
REMARK                         _______ _______ _______ _____ _____    ______ ____
ROOT
ATOM      1  C   UNL     1       1.730   8.058  19.840  0.00  0.00    +0.000 A 
ATOM      2  C   UNL     1       0.752   8.589  20.695  0.00  0.00    +0.000 A 
ATOM      3  C   UNL     1       0.175   9.825  20.442  0.00  0.00    +0.000 A 
ATOM      4  C   UNL     1       0.542  10.552  19.311  0.00  0.00    +0.000 A 
ATOM      5  C   UNL     1       1.443   9.975  18.401  0.00  0.00    +0.000 A 
ATOM      6  C   UNL     1       2.070   8.735  18.648  0.00  0.00    +0.000 A 
ENDROOT
BRANCH   4   7
ATOM      7  C   UNL     1      -0.054  11.928  19.111  0.00  0.00    +0.000 C 
ATOM      8  C   UNL     1       0.167  12.891  20.271  0.00  0.00    +0.000 C 
ATOM      9  C   UNL     1      -0.850  13.604  20.833  0.00  0.00    +0.000 C 
ATOM     10  O   UNL     1      -2.187  13.442  20.429  0.00  0.00    +0.000 OA
ATOM     11  C   UNL     1      -2.418  12.507  19.514  0.00  0.00    +0.000 A 
ATOM     12  N   UNL     1      -3.647  12.146  19.065  0.00  0.00    +0.000 N 
ATOM     13  N   UNL     1      -3.598  11.165  18.141  0.00  0.00    +0.000 NA
ATOM     14  C   UNL     1      -2.287  10.898  18.009  0.00  0.00    +0.000 A 
ATOM     15  C   UNL     1      -1.835   9.839  17.071  0.00  0.00    +0.000 C 
ATOM     16  C   UNL     1      -1.507  11.730  18.851  0.00  0.00    +0.000 A 
ATOM     17  H   UNL     1      -4.550  12.516  19.337  0.00  0.00    +0.000 HD
BRANCH   9  18
ATOM     18  N   UNL     1      -0.702  14.537  21.834  0.00  0.00    +0.000 N 
ATOM     19  H   UNL     1      -1.385  15.292  21.839  0.00  0.00    +0.000 HD
ATOM     20  H   UNL     1       0.257  14.860  21.921  0.00  0.00    +0.000 HD
ENDBRANCH   9  18
BRANCH   8  21
ATOM     21  C   UNL     1       1.501  13.043  20.739  0.00  0.00    +0.000 C 
ATOM     22  N   UNL     1       2.603  13.156  21.098  0.00  0.00    +0.000 NA
ENDBRANCH   8  21
ENDBRANCH   4   7
BRANCH   1  24
ATOM     23  C   UNL     1       1.564   5.916  20.828  0.00  0.00    +0.000 C 
ATOM     24  O   UNL     1       2.370   6.877  20.136  0.00  0.00    +0.000 OA
ENDBRANCH   1  24
BRANCH   6  25
ATOM     25  C   UNL     1       3.010   8.124  17.610  0.00  0.00    +0.000 C 
BRANCH  25  26
ATOM     26  S   UNL     1       3.228   6.294  17.757  0.00  0.00    +0.000 S 
BRANCH  26  27
ATOM     27  C   UNL     1       4.987   6.164  17.995  0.00  0.00    +0.000 A 
ATOM     28  C   UNL     1       5.848   6.881  17.166  0.00  0.00    +0.000 A 
ATOM     29  C   UNL     1       7.214   6.867  17.444  0.00  0.00    +0.000 A 
ATOM     30  C   UNL     1       7.677   6.133  18.528  0.00  0.00    +0.000 A 
ATOM     31  C   UNL     1       6.754   5.418  19.271  0.00  0.00    +0.000 A 
ATOM     32  N   UNL     1       5.428   5.416  19.026  0.00  0.00    +0.000 NA
ENDBRANCH  26  27
ENDBRANCH  25  26
ENDBRANCH   6  25
TORSDOF 7
ENDMDL
