MODEL 1
REMARK VINA RESULT:      -6.7      0.000      0.000
REMARK  Name = 
REMARK  3 active torsions:
REMARK  status: ('A' for Active; 'I' for Inactive)
REMARK    1  A    between atoms: C_2  and  C_3
REMARK    2  A    between atoms: C_5  and  C_6
REMARK    3  A    between atoms: C_14  and  O_15
REMARK                            x       y       z     vdW  Elec       q    Type
REMARK                         _______ _______ _______ _____ _____    ______ ____
ROOT
ATOM      1  C   UNL     1       2.729   3.188  19.982  0.00  0.00    +0.000 A 
ATOM      2  C   UNL     1       3.894   3.446  19.241  0.00  0.00    +0.000 A 
ATOM      3  C   UNL     1       3.831   3.928  17.920  0.00  0.00    +0.000 A 
ATOM      4  C   UNL     1       2.549   4.138  17.375  0.00  0.00    +0.000 A 
ATOM      5  C   UNL     1       1.383   3.893  18.114  0.00  0.00    +0.000 A 
ATOM      6  C   UNL     1       1.477   3.417  19.418  0.00  0.00    +0.000 A 
ENDROOT
BRANCH   3   7
ATOM      7  C   UNL     1       5.056   4.199  17.141  0.00  0.00    +0.000 A 
ATOM      8  C   UNL     1       6.278   4.518  17.716  0.00  0.00    +0.000 A 
ATOM      9  N   UNL     1       7.415   4.780  17.030  0.00  0.00    +0.000 NA
ATOM     10  C   UNL     1       7.316   4.712  15.697  0.00  0.00    +0.000 A 
ATOM     11  N   UNL     1       6.207   4.412  15.009  0.00  0.00    +0.000 NA
ATOM     12  C   UNL     1       5.105   4.168  15.754  0.00  0.00    +0.000 A 
ENDBRANCH   3   7
BRANCH   1  14
ATOM     13  O   UNL     1       2.146   3.097  22.270  0.00  0.00    +0.000 OA
ATOM     14  C   UNL     1       2.848   2.669  21.360  0.00  0.00    +0.000 C 
ENDBRANCH   1  14
BRANCH   6  15
ATOM     15  O   UNL     1       0.344   3.175  20.139  0.00  0.00    +0.000 OA
ATOM     16  H   UNL     1      -0.432   3.475  19.635  0.00  0.00    +0.000 HD
ENDBRANCH   6  15
TORSDOF 3
ENDMDL
MODEL 2
REMARK VINA RESULT:      -6.7      0.083      1.215
REMARK  Name = 
REMARK  3 active torsions:
REMARK  status: ('A' for Active; 'I' for Inactive)
REMARK    1  A    between atoms: C_2  and  C_3
REMARK    2  A    between atoms: C_5  and  C_6
REMARK    3  A    between atoms: C_14  and  O_15
REMARK                            x       y       z     vdW  Elec       q    Type
REMARK                         _______ _______ _______ _____ _____    ______ ____
ROOT
ATOM      1  C   UNL     1       2.778   3.126  19.967  0.00  0.00    +0.000 A 
ATOM      2  C   UNL     1       3.926   3.399  19.205  0.00  0.00    +0.000 A 
ATOM      3  C   UNL     1       3.835   3.905  17.895  0.00  0.00    +0.000 A 
ATOM      4  C   UNL     1       2.541   4.124  17.382  0.00  0.00    +0.000 A 
ATOM      5  C   UNL     1       1.392   3.864  18.141  0.00  0.00    +0.000 A 
ATOM      6  C   UNL     1       1.514   3.365  19.433  0.00  0.00    +0.000 A 
ENDROOT
BRANCH   3   7
ATOM      7  C   UNL     1       5.042   4.191  17.095  0.00  0.00    +0.000 A 
ATOM      8  C   UNL     1       5.065   4.181  15.707  0.00  0.00    +0.000 A 
ATOM      9  N   UNL     1       6.156   4.429  14.946  0.00  0.00    +0.000 NA
ATOM     10  C   UNL     1       7.281   4.706  15.617  0.00  0.00    +0.000 A 
ATOM     11  N   UNL     1       7.403   4.756  16.950  0.00  0.00    +0.000 NA
ATOM     12  C   UNL     1       6.278   4.491  17.651  0.00  0.00    +0.000 A 
ENDBRANCH   3   7
BRANCH   1  14
ATOM     13  O   UNL     1       2.316   3.059  22.283  0.00  0.00    +0.000 OA
ATOM     14  C   UNL     1       2.927   2.583  21.332  0.00  0.00    +0.000 C 
ENDBRANCH   1  14
BRANCH   6  15
ATOM     15  O   UNL     1       0.397   3.109  20.175  0.00  0.00    +0.000 OA
ATOM     16  H   UNL     1       0.146   2.174  20.072  0.00  0.00    +0.000 HD
ENDBRANCH   6  15
TORSDOF 3
ENDMDL
MODEL 3
REMARK VINA RESULT:      -6.6      1.636      1.974
REMARK  Name = 
REMARK  3 active torsions:
REMARK  status: ('A' for Active; 'I' for Inactive)
REMARK    1  A    between atoms: C_2  and  C_3
REMARK    2  A    between atoms: C_5  and  C_6
REMARK    3  A    between atoms: C_14  and  O_15
REMARK                            x       y       z     vdW  Elec       q    Type
REMARK                         _______ _______ _______ _____ _____    ______ ____
ROOT
ATOM      1  C   UNL     1       2.338   3.920  20.309  0.00  0.00    +0.000 A 
ATOM      2  C   UNL     1       3.527   4.561  19.923  0.00  0.00    +0.000 A 
ATOM      3  C   UNL     1       3.763   4.928  18.585  0.00  0.00    +0.000 A 
ATOM      4  C   UNL     1       2.754   4.622  17.650  0.00  0.00    +0.000 A 
ATOM      5  C   UNL     1       1.561   3.993  18.030  0.00  0.00    +0.000 A 
ATOM      6  C   UNL     1       1.356   3.643  19.360  0.00  0.00    +0.000 A 
ENDROOT
BRANCH   3   7
ATOM      7  C   UNL     1       5.013   5.601  18.181  0.00  0.00    +0.000 A 
ATOM      8  C   UNL     1       5.112   6.442  17.081  0.00  0.00    +0.000 A 
ATOM      9  N   UNL     1       6.244   7.066  16.680  0.00  0.00    +0.000 NA
ATOM     10  C   UNL     1       7.331   6.834  17.427  0.00  0.00    +0.000 A 
ATOM     11  N   UNL     1       7.379   6.053  18.514  0.00  0.00    +0.000 NA
ATOM     12  C   UNL     1       6.216   5.454  18.856  0.00  0.00    +0.000 A 
ENDBRANCH   3   7
BRANCH   1  14
ATOM     13  O   UNL     1       1.708   2.441  22.040  0.00  0.00    +0.000 OA
ATOM     14  C   UNL     1       2.144   3.543  21.723  0.00  0.00    +0.000 C 
ENDBRANCH   1  14
BRANCH   6  15
ATOM     15  O   UNL     1       0.196   3.028  19.734  0.00  0.00    +0.000 OA
ATOM     16  H   UNL     1      -0.397   3.678  20.150  0.00  0.00    +0.000 HD
ENDBRANCH   6  15
TORSDOF 3
ENDMDL
MODEL 4
REMARK VINA RESULT:      -6.6      1.586      1.586
REMARK  Name = 
REMARK  3 active torsions:
REMARK  status: ('A' for Active; 'I' for Inactive)
REMARK    1  A    between atoms: C_2  and  C_3
REMARK    2  A    between atoms: C_5  and  C_6
REMARK    3  A    between atoms: C_14  and  O_15
REMARK                            x       y       z     vdW  Elec       q    Type
REMARK                         _______ _______ _______ _____ _____    ______ ____
ROOT
ATOM      1  C   UNL     1       2.344   3.886  20.329  0.00  0.00    +0.000 A 
ATOM      2  C   UNL     1       3.532   4.515  19.921  0.00  0.00    +0.000 A 
ATOM      3  C   UNL     1       3.741   4.892  18.581  0.00  0.00    +0.000 A 
ATOM      4  C   UNL     1       2.707   4.607  17.667  0.00  0.00    +0.000 A 
ATOM      5  C   UNL     1       1.514   3.989  18.070  0.00  0.00    +0.000 A 
ATOM      6  C   UNL     1       1.337   3.629  19.402  0.00  0.00    +0.000 A 
ENDROOT
BRANCH   3   7
ATOM      7  C   UNL     1       4.989   5.553  18.153  0.00  0.00    +0.000 A 
ATOM      8  C   UNL     1       6.186   5.459  18.849  0.00  0.00    +0.000 A 
ATOM      9  N   UNL     1       7.344   6.060  18.489  0.00  0.00    +0.000 NA
ATOM     10  C   UNL     1       7.294   6.789  17.367  0.00  0.00    +0.000 A 
ATOM     11  N   UNL     1       6.213   6.963  16.595  0.00  0.00    +0.000 NA
ATOM     12  C   UNL     1       5.089   6.341  17.015  0.00  0.00    +0.000 A 
ENDBRANCH   3   7
BRANCH   1  14
ATOM     13  O   UNL     1       1.604   2.462  22.063  0.00  0.00    +0.000 OA
ATOM     14  C   UNL     1       2.179   3.498  21.744  0.00  0.00    +0.000 C 
ENDBRANCH   1  14
BRANCH   6  15
ATOM     15  O   UNL     1       0.178   3.025  19.797  0.00  0.00    +0.000 OA
ATOM     16  H   UNL     1      -0.408   2.913  19.029  0.00  0.00    +0.000 HD
ENDBRANCH   6  15
TORSDOF 3
ENDMDL
MODEL 5
REMARK VINA RESULT:      -6.6      4.272      5.932
REMARK  Name = 
REMARK  3 active torsions:
REMARK  status: ('A' for Active; 'I' for Inactive)
REMARK    1  A    between atoms: C_2  and  C_3
REMARK    2  A    between atoms: C_5  and  C_6
REMARK    3  A    between atoms: C_14  and  O_15
REMARK                            x       y       z     vdW  Elec       q    Type
REMARK                         _______ _______ _______ _____ _____    ______ ____
ROOT
ATOM      1  C   UNL     1       6.426   5.943  17.312  0.00  0.00    +0.000 A 
ATOM      2  C   UNL     1       5.332   5.691  18.157  0.00  0.00    +0.000 A 
ATOM      3  C   UNL     1       4.330   4.768  17.804  0.00  0.00    +0.000 A 
ATOM      4  C   UNL     1       4.472   4.110  16.567  0.00  0.00    +0.000 A 
ATOM      5  C   UNL     1       5.567   4.349  15.724  0.00  0.00    +0.000 A 
ATOM      6  C   UNL     1       6.542   5.266  16.100  0.00  0.00    +0.000 A 
ENDROOT
BRANCH   3   7
ATOM      7  C   UNL     1       3.181   4.504  18.692  0.00  0.00    +0.000 A 
ATOM      8  C   UNL     1       2.144   3.639  18.371  0.00  0.00    +0.000 A 
ATOM      9  N   UNL     1       1.073   3.383  19.159  0.00  0.00    +0.000 NA
ATOM     10  C   UNL     1       1.048   4.028  20.332  0.00  0.00    +0.000 A 
ATOM     11  N   UNL     1       1.979   4.885  20.772  0.00  0.00    +0.000 NA
ATOM     12  C   UNL     1       3.018   5.101  19.935  0.00  0.00    +0.000 A 
ENDBRANCH   3   7
BRANCH   1  14
ATOM     13  O   UNL     1       7.721   7.897  17.017  0.00  0.00    +0.000 OA
ATOM     14  C   UNL     1       7.444   6.931  17.721  0.00  0.00    +0.000 C 
ENDBRANCH   1  14
BRANCH   6  15
ATOM     15  O   UNL     1       7.608   5.503  15.282  0.00  0.00    +0.000 OA
ATOM     16  H   UNL     1       8.421   5.556  15.815  0.00  0.00    +0.000 HD
ENDBRANCH   6  15
TORSDOF 3
ENDMDL
MODEL 6
REMARK VINA RESULT:      -6.5      4.275      5.824
REMARK  Name = 
REMARK  3 active torsions:
REMARK  status: ('A' for Active; 'I' for Inactive)
REMARK    1  A    between atoms: C_2  and  C_3
REMARK    2  A    between atoms: C_5  and  C_6
REMARK    3  A    between atoms: C_14  and  O_15
REMARK                            x       y       z     vdW  Elec       q    Type
REMARK                         _______ _______ _______ _____ _____    ______ ____
ROOT
ATOM      1  C   UNL     1       6.404   5.951  17.320  0.00  0.00    +0.000 A 
ATOM      2  C   UNL     1       5.309   5.699  18.163  0.00  0.00    +0.000 A 
ATOM      3  C   UNL     1       4.306   4.778  17.809  0.00  0.00    +0.000 A 
ATOM      4  C   UNL     1       4.448   4.121  16.571  0.00  0.00    +0.000 A 
ATOM      5  C   UNL     1       5.544   4.359  15.730  0.00  0.00    +0.000 A 
ATOM      6  C   UNL     1       6.520   5.275  16.107  0.00  0.00    +0.000 A 
ENDROOT
BRANCH   3   7
ATOM      7  C   UNL     1       3.155   4.515  18.696  0.00  0.00    +0.000 A 
ATOM      8  C   UNL     1       2.982   5.124  19.930  0.00  0.00    +0.000 A 
ATOM      9  N   UNL     1       1.944   4.897  20.770  0.00  0.00    +0.000 NA
ATOM     10  C   UNL     1       1.033   4.015  20.340  0.00  0.00    +0.000 A 
ATOM     11  N   UNL     1       1.070   3.359  19.173  0.00  0.00    +0.000 NA
ATOM     12  C   UNL     1       2.136   3.626  18.386  0.00  0.00    +0.000 A 
ENDBRANCH   3   7
BRANCH   1  14
ATOM     13  O   UNL     1       7.717   7.892  17.018  0.00  0.00    +0.000 OA
ATOM     14  C   UNL     1       7.423   6.937  17.730  0.00  0.00    +0.000 C 
ENDBRANCH   1  14
BRANCH   6  15
ATOM     15  O   UNL     1       7.588   5.512  15.290  0.00  0.00    +0.000 OA
ATOM     16  H   UNL     1       8.030   6.334  15.564  0.00  0.00    +0.000 HD
ENDBRANCH   6  15
TORSDOF 3
ENDMDL
MODEL 7
REMARK VINA RESULT:      -6.5      3.815      5.419
REMARK  Name = 
REMARK  3 active torsions:
REMARK  status: ('A' for Active; 'I' for Inactive)
REMARK    1  A    between atoms: C_2  and  C_3
REMARK    2  A    between atoms: C_5  and  C_6
REMARK    3  A    between atoms: C_14  and  O_15
REMARK                            x       y       z     vdW  Elec       q    Type
REMARK                         _______ _______ _______ _____ _____    ______ ____
ROOT
ATOM      1  C   UNL     1       6.701   5.635  18.246  0.00  0.00    +0.000 A 
ATOM      2  C   UNL     1       5.599   4.835  18.592  0.00  0.00    +0.000 A 
ATOM      3  C   UNL     1       4.525   4.641  17.703  0.00  0.00    +0.000 A 
ATOM      4  C   UNL     1       4.603   5.287  16.454  0.00  0.00    +0.000 A 
ATOM      5  C   UNL     1       5.705   6.078  16.098  0.00  0.00    +0.000 A 
ATOM      6  C   UNL     1       6.752   6.251  16.997  0.00  0.00    +0.000 A 
ENDROOT
BRANCH   3   7
ATOM      7  C   UNL     1       3.368   3.800  18.068  0.00  0.00    +0.000 A 
ATOM      8  C   UNL     1       2.063   4.083  17.689  0.00  0.00    +0.000 A 
ATOM      9  N   UNL     1       0.981   3.337  18.014  0.00  0.00    +0.000 NA
ATOM     10  C   UNL     1       1.227   2.250  18.755  0.00  0.00    +0.000 A 
ATOM     11  N   UNL     1       2.432   1.855  19.187  0.00  0.00    +0.000 NA
ATOM     12  C   UNL     1       3.468   2.647  18.833  0.00  0.00    +0.000 A 
ENDBRANCH   3   7
BRANCH   1  14
ATOM     13  O   UNL     1       7.793   5.249  20.306  0.00  0.00    +0.000 OA
ATOM     14  C   UNL     1       7.796   5.819  19.219  0.00  0.00    +0.000 C 
ENDBRANCH   1  14
BRANCH   6  15
ATOM     15  O   UNL     1       7.825   7.022  16.656  0.00  0.00    +0.000 OA
ATOM     16  H   UNL     1       8.559   6.846  17.270  0.00  0.00    +0.000 HD
ENDBRANCH   6  15
TORSDOF 3
ENDMDL
MODEL 8
REMARK VINA RESULT:      -6.5      3.845      5.361
REMARK  Name = 
REMARK  3 active torsions:
REMARK  status: ('A' for Active; 'I' for Inactive)
REMARK    1  A    between atoms: C_2  and  C_3
REMARK    2  A    between atoms: C_5  and  C_6
REMARK    3  A    between atoms: C_14  and  O_15
REMARK                            x       y       z     vdW  Elec       q    Type
REMARK                         _______ _______ _______ _____ _____    ______ ____
ROOT
ATOM      1  C   UNL     1       6.700   5.678  18.357  0.00  0.00    +0.000 A 
ATOM      2  C   UNL     1       5.595   4.911  18.761  0.00  0.00    +0.000 A 
ATOM      3  C   UNL     1       4.452   4.787  17.950  0.00  0.00    +0.000 A 
ATOM      4  C   UNL     1       4.464   5.467  16.716  0.00  0.00    +0.000 A 
ATOM      5  C   UNL     1       5.569   6.224  16.302  0.00  0.00    +0.000 A 
ATOM      6  C   UNL     1       6.685   6.329  17.125  0.00  0.00    +0.000 A 
ENDROOT
BRANCH   3   7
ATOM      7  C   UNL     1       3.291   3.981  18.376  0.00  0.00    +0.000 A 
ATOM      8  C   UNL     1       3.275   3.203  19.525  0.00  0.00    +0.000 A 
ATOM      9  N   UNL     1       2.230   2.447  19.938  0.00  0.00    +0.000 NA
ATOM     10  C   UNL     1       1.145   2.480  19.154  0.00  0.00    +0.000 A 
ATOM     11  N   UNL     1       1.019   3.187  18.024  0.00  0.00    +0.000 NA
ATOM     12  C   UNL     1       2.100   3.915  17.665  0.00  0.00    +0.000 A 
ENDBRANCH   3   7
BRANCH   1  14
ATOM     13  O   UNL     1       7.847   5.352  20.397  0.00  0.00    +0.000 OA
ATOM     14  C   UNL     1       7.871   5.788  19.250  0.00  0.00    +0.000 C 
ENDBRANCH   1  14
BRANCH   6  15
ATOM     15  O   UNL     1       7.762   7.067  16.726  0.00  0.00    +0.000 OA
ATOM     16  H   UNL     1       8.478   6.975  17.379  0.00  0.00    +0.000 HD
ENDBRANCH   6  15
TORSDOF 3
ENDMDL
MODEL 9
REMARK VINA RESULT:      -6.4      4.142      5.766
REMARK  Name = 
REMARK  3 active torsions:
REMARK  status: ('A' for Active; 'I' for Inactive)
REMARK    1  A    between atoms: C_2  and  C_3
REMARK    2  A    between atoms: C_5  and  C_6
REMARK    3  A    between atoms: C_14  and  O_15
REMARK                            x       y       z     vdW  Elec       q    Type
REMARK                         _______ _______ _______ _____ _____    ______ ____
ROOT
ATOM      1  C   UNL     1       6.479   5.643  16.869  0.00  0.00    +0.000 A 
ATOM      2  C   UNL     1       5.397   5.104  17.584  0.00  0.00    +0.000 A 
ATOM      3  C   UNL     1       4.569   4.112  17.025  0.00  0.00    +0.000 A 
ATOM      4  C   UNL     1       4.874   3.685  15.718  0.00  0.00    +0.000 A 
ATOM      5  C   UNL     1       5.960   4.210  15.004  0.00  0.00    +0.000 A 
ATOM      6  C   UNL     1       6.760   5.190  15.582  0.00  0.00    +0.000 A 
ENDROOT
BRANCH   3   7
ATOM      7  C   UNL     1       3.432   3.547  17.777  0.00  0.00    +0.000 A 
ATOM      8  C   UNL     1       3.574   2.665  18.840  0.00  0.00    +0.000 A 
ATOM      9  N   UNL     1       2.552   2.123  19.543  0.00  0.00    +0.000 NA
ATOM     10  C   UNL     1       1.324   2.491  19.158  0.00  0.00    +0.000 A 
ATOM     11  N   UNL     1       1.039   3.335  18.157  0.00  0.00    +0.000 NA
ATOM     12  C   UNL     1       2.104   3.835  17.492  0.00  0.00    +0.000 A 
ENDBRANCH   3   7
BRANCH   1  14
ATOM     13  O   UNL     1       7.504   7.770  16.941  0.00  0.00    +0.000 OA
ATOM     14  C   UNL     1       7.309   6.692  17.494  0.00  0.00    +0.000 C 
ENDBRANCH   1  14
BRANCH   6  15
ATOM     15  O   UNL     1       7.817   5.706  14.889  0.00  0.00    +0.000 OA
ATOM     16  H   UNL     1       8.613   5.684  15.448  0.00  0.00    +0.000 HD
ENDBRANCH   6  15
TORSDOF 3
ENDMDL
