MODEL 1
REMARK VINA RESULT:      -8.3      0.000      0.000
REMARK  Name = 
REMARK  4 active torsions:
REMARK  status: ('A' for Active; 'I' for Inactive)
REMARK    1  A    between atoms: C_1  and  N_2
REMARK    2  A    between atoms: C_4  and  C_5
REMARK    3  A    between atoms: C_11  and  C_12
REMARK    4  A    between atoms: C_12  and  C_13
REMARK                            x       y       z     vdW  Elec       q    Type
REMARK                         _______ _______ _______ _____ _____    ______ ____
ROOT
ATOM      1  C   UNL     1       4.597   3.953  18.885  0.00  0.00    +0.000 A 
ATOM      2  C   UNL     1       4.376   2.739  19.502  0.00  0.00    +0.000 A 
ATOM      3  N   UNL     1       3.315   2.805  20.374  0.00  0.00    +0.000 NA
ATOM      4  C   UNL     1       2.873   4.040  20.274  0.00  0.00    +0.000 A 
ATOM      5  C   UNL     1       1.755   4.665  20.858  0.00  0.00    +0.000 A 
ATOM      6  C   UNL     1       1.465   5.933  20.539  0.00  0.00    +0.000 A 
ATOM      7  C   UNL     1       2.386   6.645  19.594  0.00  0.00    +0.000 A 
ATOM      8  N   UNL     1       3.436   6.105  19.048  0.00  0.00    +0.000 NA
ATOM      9  N   UNL     1       3.637   4.798  19.399  0.00  0.00    +0.000 N 
ENDROOT
BRANCH   1  13
ATOM     10  C   UNL     1       6.899   4.727  14.529  0.00  0.00    +0.000 C 
ATOM     11  N   UNL     1       6.603   4.601  15.935  0.00  0.00    +0.000 N 
ATOM     12  C   UNL     1       5.426   4.191  16.493  0.00  0.00    +0.000 A 
ATOM     13  C   UNL     1       5.611   4.265  17.854  0.00  0.00    +0.000 A 
ATOM     14  C   UNL     1       6.937   4.713  18.012  0.00  0.00    +0.000 A 
ATOM     15  N   UNL     1       7.549   4.913  16.838  0.00  0.00    +0.000 NA
ENDBRANCH   1  13
BRANCH   7  16
ATOM     16  C   UNL     1       2.052   8.089  19.245  0.00  0.00    +0.000 C 
BRANCH  16  17
ATOM     17  C   UNL     1       1.243   8.789  20.314  0.00  0.00    +0.000 A 
ATOM     18  C   UNL     1       0.174   9.628  19.961  0.00  0.00    +0.000 A 
ATOM     19  C   UNL     1      -0.545  10.311  20.944  0.00  0.00    +0.000 A 
ATOM     20  C   UNL     1      -0.213  10.138  22.281  0.00  0.00    +0.000 A 
ATOM     21  F   UNL     1      -0.886  10.812  23.223  0.00  0.00    +0.000 F 
ATOM     22  C   UNL     1       0.809   9.274  22.655  0.00  0.00    +0.000 A 
ATOM     23  C   UNL     1       1.535   8.596  21.673  0.00  0.00    +0.000 A 
ENDBRANCH  16  17
ENDBRANCH   7  16
TORSDOF 3
ENDMDL
MODEL 2
REMARK VINA RESULT:      -8.3      0.082      1.011
REMARK  Name = 
REMARK  4 active torsions:
REMARK  status: ('A' for Active; 'I' for Inactive)
REMARK    1  A    between atoms: C_1  and  N_2
REMARK    2  A    between atoms: C_4  and  C_5
REMARK    3  A    between atoms: C_11  and  C_12
REMARK    4  A    between atoms: C_12  and  C_13
REMARK                            x       y       z     vdW  Elec       q    Type
REMARK                         _______ _______ _______ _____ _____    ______ ____
ROOT
ATOM      1  C   UNL     1       4.585   4.001  18.866  0.00  0.00    +0.000 A 
ATOM      2  C   UNL     1       4.358   2.783  19.474  0.00  0.00    +0.000 A 
ATOM      3  N   UNL     1       3.297   2.848  20.345  0.00  0.00    +0.000 NA
ATOM      4  C   UNL     1       2.859   4.085  20.253  0.00  0.00    +0.000 A 
ATOM      5  C   UNL     1       1.743   4.710  20.840  0.00  0.00    +0.000 A 
ATOM      6  C   UNL     1       1.458   5.982  20.530  0.00  0.00    +0.000 A 
ATOM      7  C   UNL     1       2.382   6.696  19.590  0.00  0.00    +0.000 A 
ATOM      8  N   UNL     1       3.431   6.156  19.043  0.00  0.00    +0.000 NA
ATOM      9  N   UNL     1       3.627   4.846  19.385  0.00  0.00    +0.000 N 
ENDROOT
BRANCH   1  13
ATOM     10  C   UNL     1       6.910   4.741  14.517  0.00  0.00    +0.000 C 
ATOM     11  N   UNL     1       6.604   4.637  15.923  0.00  0.00    +0.000 N 
ATOM     12  C   UNL     1       5.432   4.209  16.478  0.00  0.00    +0.000 A 
ATOM     13  C   UNL     1       5.600   4.316  17.839  0.00  0.00    +0.000 A 
ATOM     14  C   UNL     1       6.914   4.799  17.999  0.00  0.00    +0.000 A 
ATOM     15  N   UNL     1       7.533   4.990  16.828  0.00  0.00    +0.000 NA
ENDBRANCH   1  13
BRANCH   7  16
ATOM     16  C   UNL     1       2.054   8.143  19.251  0.00  0.00    +0.000 C 
BRANCH  16  17
ATOM     17  C   UNL     1       1.236   8.835  20.318  0.00  0.00    +0.000 A 
ATOM     18  C   UNL     1       1.545   8.662  21.677  0.00  0.00    +0.000 A 
ATOM     19  C   UNL     1       0.764   9.264  22.665  0.00  0.00    +0.000 A 
ATOM     20  C   UNL     1      -0.313  10.059  22.296  0.00  0.00    +0.000 A 
ATOM     21  F   UNL     1      -1.079  10.616  23.243  0.00  0.00    +0.000 F 
ATOM     22  C   UNL     1      -0.608  10.283  20.957  0.00  0.00    +0.000 A 
ATOM     23  C   UNL     1       0.168   9.676  19.967  0.00  0.00    +0.000 A 
ENDBRANCH  16  17
ENDBRANCH   7  16
TORSDOF 3
ENDMDL
MODEL 3
REMARK VINA RESULT:      -8.2      2.925      6.626
REMARK  Name = 
REMARK  4 active torsions:
REMARK  status: ('A' for Active; 'I' for Inactive)
REMARK    1  A    between atoms: C_1  and  N_2
REMARK    2  A    between atoms: C_4  and  C_5
REMARK    3  A    between atoms: C_11  and  C_12
REMARK    4  A    between atoms: C_12  and  C_13
REMARK                            x       y       z     vdW  Elec       q    Type
REMARK                         _______ _______ _______ _____ _____    ______ ____
ROOT
ATOM      1  C   UNL     1       1.751   4.735  19.959  0.00  0.00    +0.000 A 
ATOM      2  C   UNL     1       1.059   3.782  20.678  0.00  0.00    +0.000 A 
ATOM      3  N   UNL     1       1.383   2.510  20.266  0.00  0.00    +0.000 NA
ATOM      4  C   UNL     1       2.284   2.680  19.323  0.00  0.00    +0.000 A 
ATOM      5  C   UNL     1       3.043   1.742  18.599  0.00  0.00    +0.000 A 
ATOM      6  C   UNL     1       3.966   2.169  17.728  0.00  0.00    +0.000 A 
ATOM      7  C   UNL     1       4.116   3.648  17.537  0.00  0.00    +0.000 A 
ATOM      8  N   UNL     1       3.422   4.543  18.175  0.00  0.00    +0.000 NA
ATOM      9  N   UNL     1       2.528   4.022  19.070  0.00  0.00    +0.000 N 
ENDROOT
BRANCH   1  13
ATOM     10  C   UNL     1       1.056   9.296  21.850  0.00  0.00    +0.000 C 
ATOM     11  N   UNL     1       1.399   8.194  20.985  0.00  0.00    +0.000 N 
ATOM     12  C   UNL     1       1.192   6.866  21.227  0.00  0.00    +0.000 A 
ATOM     13  C   UNL     1       1.710   6.202  20.140  0.00  0.00    +0.000 A 
ATOM     14  C   UNL     1       2.186   7.220  19.292  0.00  0.00    +0.000 A 
ATOM     15  N   UNL     1       1.991   8.442  19.804  0.00  0.00    +0.000 NA
ENDBRANCH   1  13
BRANCH   7  16
ATOM     16  C   UNL     1       5.162   4.123  16.538  0.00  0.00    +0.000 C 
BRANCH  16  17
ATOM     17  C   UNL     1       6.130   5.128  17.119  0.00  0.00    +0.000 A 
ATOM     18  C   UNL     1       7.040   4.746  18.117  0.00  0.00    +0.000 A 
ATOM     19  C   UNL     1       7.904   5.683  18.688  0.00  0.00    +0.000 A 
ATOM     20  C   UNL     1       7.876   6.998  18.245  0.00  0.00    +0.000 A 
ATOM     21  F   UNL     1       8.686   7.904  18.808  0.00  0.00    +0.000 F 
ATOM     22  C   UNL     1       7.017   7.389  17.224  0.00  0.00    +0.000 A 
ATOM     23  C   UNL     1       6.147   6.454  16.658  0.00  0.00    +0.000 A 
ENDBRANCH  16  17
ENDBRANCH   7  16
TORSDOF 3
ENDMDL
MODEL 4
REMARK VINA RESULT:      -8.2      2.928      6.535
REMARK  Name = 
REMARK  4 active torsions:
REMARK  status: ('A' for Active; 'I' for Inactive)
REMARK    1  A    between atoms: C_1  and  N_2
REMARK    2  A    between atoms: C_4  and  C_5
REMARK    3  A    between atoms: C_11  and  C_12
REMARK    4  A    between atoms: C_12  and  C_13
REMARK                            x       y       z     vdW  Elec       q    Type
REMARK                         _______ _______ _______ _____ _____    ______ ____
ROOT
ATOM      1  C   UNL     1       1.747   4.716  19.889  0.00  0.00    +0.000 A 
ATOM      2  C   UNL     1       1.013   3.763  20.566  0.00  0.00    +0.000 A 
ATOM      3  N   UNL     1       1.338   2.493  20.153  0.00  0.00    +0.000 NA
ATOM      4  C   UNL     1       2.281   2.662  19.251  0.00  0.00    +0.000 A 
ATOM      5  C   UNL     1       3.059   1.723  18.549  0.00  0.00    +0.000 A 
ATOM      6  C   UNL     1       4.025   2.149  17.723  0.00  0.00    +0.000 A 
ATOM      7  C   UNL     1       4.201   3.628  17.558  0.00  0.00    +0.000 A 
ATOM      8  N   UNL     1       3.490   4.525  18.177  0.00  0.00    +0.000 NA
ATOM      9  N   UNL     1       2.552   4.004  19.026  0.00  0.00    +0.000 N 
ENDROOT
BRANCH   1  13
ATOM     10  C   UNL     1       1.112   9.259  21.844  0.00  0.00    +0.000 C 
ATOM     11  N   UNL     1       1.431   8.165  20.961  0.00  0.00    +0.000 N 
ATOM     12  C   UNL     1       1.224   6.835  21.192  0.00  0.00    +0.000 A 
ATOM     13  C   UNL     1       1.715   6.181  20.087  0.00  0.00    +0.000 A 
ATOM     14  C   UNL     1       2.179   7.207  19.241  0.00  0.00    +0.000 A 
ATOM     15  N   UNL     1       1.999   8.423  19.770  0.00  0.00    +0.000 NA
ENDBRANCH   1  13
BRANCH   7  16
ATOM     16  C   UNL     1       5.295   4.102  16.611  0.00  0.00    +0.000 C 
BRANCH  16  17
ATOM     17  C   UNL     1       6.193   5.156  17.216  0.00  0.00    +0.000 A 
ATOM     18  C   UNL     1       6.179   6.471  16.724  0.00  0.00    +0.000 A 
ATOM     19  C   UNL     1       7.040   7.436  17.251  0.00  0.00    +0.000 A 
ATOM     20  C   UNL     1       7.899   7.094  18.287  0.00  0.00    +0.000 A 
ATOM     21  F   UNL     1       8.743   8.012  18.776  0.00  0.00    +0.000 F 
ATOM     22  C   UNL     1       7.895   5.812  18.822  0.00  0.00    +0.000 A 
ATOM     23  C   UNL     1       7.040   4.843  18.291  0.00  0.00    +0.000 A 
ENDBRANCH  16  17
ENDBRANCH   7  16
TORSDOF 3
ENDMDL
MODEL 5
REMARK VINA RESULT:      -8.1      1.636      2.126
REMARK  Name = 
REMARK  4 active torsions:
REMARK  status: ('A' for Active; 'I' for Inactive)
REMARK    1  A    between atoms: C_1  and  N_2
REMARK    2  A    between atoms: C_4  and  C_5
REMARK    3  A    between atoms: C_11  and  C_12
REMARK    4  A    between atoms: C_12  and  C_13
REMARK                            x       y       z     vdW  Elec       q    Type
REMARK                         _______ _______ _______ _____ _____    ______ ____
ROOT
ATOM      1  C   UNL     1       3.752   3.463  17.923  0.00  0.00    +0.000 A 
ATOM      2  C   UNL     1       3.113   2.262  17.688  0.00  0.00    +0.000 A 
ATOM      3  N   UNL     1       1.971   2.146  18.445  0.00  0.00    +0.000 NA
ATOM      4  C   UNL     1       1.896   3.273  19.118  0.00  0.00    +0.000 A 
ATOM      5  C   UNL     1       0.898   3.762  19.983  0.00  0.00    +0.000 A 
ATOM      6  C   UNL     1       1.014   4.992  20.498  0.00  0.00    +0.000 A 
ATOM      7  C   UNL     1       2.241   5.782  20.154  0.00  0.00    +0.000 A 
ATOM      8  N   UNL     1       3.190   5.358  19.373  0.00  0.00    +0.000 NA
ATOM      9  N   UNL     1       2.974   4.107  18.862  0.00  0.00    +0.000 N 
ENDROOT
BRANCH   1  13
ATOM     10  C   UNL     1       7.100   4.914  14.525  0.00  0.00    +0.000 C 
ATOM     11  N   UNL     1       6.431   4.604  15.764  0.00  0.00    +0.000 N 
ATOM     12  C   UNL     1       5.197   4.040  15.913  0.00  0.00    +0.000 A 
ATOM     13  C   UNL     1       4.976   3.971  17.268  0.00  0.00    +0.000 A 
ATOM     14  C   UNL     1       6.145   4.502  17.848  0.00  0.00    +0.000 A 
ATOM     15  N   UNL     1       7.041   4.884  16.930  0.00  0.00    +0.000 NA
ENDBRANCH   1  13
BRANCH   7  16
ATOM     16  C   UNL     1       2.367   7.176  20.752  0.00  0.00    +0.000 C 
BRANCH  16  17
ATOM     17  C   UNL     1       1.574   8.222  20.002  0.00  0.00    +0.000 A 
ATOM     18  C   UNL     1       0.585   8.973  20.658  0.00  0.00    +0.000 A 
ATOM     19  C   UNL     1      -0.179   9.907  19.957  0.00  0.00    +0.000 A 
ATOM     20  C   UNL     1       0.059  10.109  18.604  0.00  0.00    +0.000 A 
ATOM     21  F   UNL     1      -0.690  10.987  17.924  0.00  0.00    +0.000 F 
ATOM     22  C   UNL     1       1.065   9.413  17.945  0.00  0.00    +0.000 A 
ATOM     23  C   UNL     1       1.825   8.472  18.643  0.00  0.00    +0.000 A 
ENDBRANCH  16  17
ENDBRANCH   7  16
TORSDOF 3
ENDMDL
MODEL 6
REMARK VINA RESULT:      -8.0      1.623      2.057
REMARK  Name = 
REMARK  4 active torsions:
REMARK  status: ('A' for Active; 'I' for Inactive)
REMARK    1  A    between atoms: C_1  and  N_2
REMARK    2  A    between atoms: C_4  and  C_5
REMARK    3  A    between atoms: C_11  and  C_12
REMARK    4  A    between atoms: C_12  and  C_13
REMARK                            x       y       z     vdW  Elec       q    Type
REMARK                         _______ _______ _______ _____ _____    ______ ____
ROOT
ATOM      1  C   UNL     1       3.750   3.451  17.933  0.00  0.00    +0.000 A 
ATOM      2  C   UNL     1       3.112   2.249  17.704  0.00  0.00    +0.000 A 
ATOM      3  N   UNL     1       1.972   2.134  18.464  0.00  0.00    +0.000 NA
ATOM      4  C   UNL     1       1.897   3.264  19.133  0.00  0.00    +0.000 A 
ATOM      5  C   UNL     1       0.901   3.754  19.998  0.00  0.00    +0.000 A 
ATOM      6  C   UNL     1       1.016   4.987  20.509  0.00  0.00    +0.000 A 
ATOM      7  C   UNL     1       2.241   5.777  20.158  0.00  0.00    +0.000 A 
ATOM      8  N   UNL     1       3.189   5.351  19.377  0.00  0.00    +0.000 NA
ATOM      9  N   UNL     1       2.974   4.098  18.871  0.00  0.00    +0.000 N 
ENDROOT
BRANCH   1  13
ATOM     10  C   UNL     1       7.064   4.955  14.523  0.00  0.00    +0.000 C 
ATOM     11  N   UNL     1       6.412   4.615  15.764  0.00  0.00    +0.000 N 
ATOM     12  C   UNL     1       5.170   4.069  15.916  0.00  0.00    +0.000 A 
ATOM     13  C   UNL     1       4.972   3.959  17.273  0.00  0.00    +0.000 A 
ATOM     14  C   UNL     1       6.160   4.448  17.849  0.00  0.00    +0.000 A 
ATOM     15  N   UNL     1       7.047   4.844  16.927  0.00  0.00    +0.000 NA
ENDBRANCH   1  13
BRANCH   7  16
ATOM     16  C   UNL     1       2.367   7.174  20.751  0.00  0.00    +0.000 C 
BRANCH  16  17
ATOM     17  C   UNL     1       1.554   8.211  20.011  0.00  0.00    +0.000 A 
ATOM     18  C   UNL     1       1.802   8.475  18.654  0.00  0.00    +0.000 A 
ATOM     19  C   UNL     1       1.084   9.465  17.980  0.00  0.00    +0.000 A 
ATOM     20  C   UNL     1       0.100  10.176  18.654  0.00  0.00    +0.000 A 
ATOM     21  F   UNL     1      -0.572  11.142  18.017  0.00  0.00    +0.000 F 
ATOM     22  C   UNL     1      -0.196   9.898  19.983  0.00  0.00    +0.000 A 
ATOM     23  C   UNL     1       0.527   8.914  20.662  0.00  0.00    +0.000 A 
ENDBRANCH  16  17
ENDBRANCH   7  16
TORSDOF 3
ENDMDL
MODEL 7
REMARK VINA RESULT:      -8.0      2.245      3.322
REMARK  Name = 
REMARK  4 active torsions:
REMARK  status: ('A' for Active; 'I' for Inactive)
REMARK    1  A    between atoms: C_1  and  N_2
REMARK    2  A    between atoms: C_4  and  C_5
REMARK    3  A    between atoms: C_11  and  C_12
REMARK    4  A    between atoms: C_12  and  C_13
REMARK                            x       y       z     vdW  Elec       q    Type
REMARK                         _______ _______ _______ _____ _____    ______ ____
ROOT
ATOM      1  C   UNL     1       5.996   5.298  17.327  0.00  0.00    +0.000 A 
ATOM      2  C   UNL     1       6.146   4.452  16.247  0.00  0.00    +0.000 A 
ATOM      3  N   UNL     1       5.040   3.652  16.080  0.00  0.00    +0.000 NA
ATOM      4  C   UNL     1       4.209   4.022  17.030  0.00  0.00    +0.000 A 
ATOM      5  C   UNL     1       2.887   3.623  17.300  0.00  0.00    +0.000 A 
ATOM      6  C   UNL     1       2.210   4.208  18.297  0.00  0.00    +0.000 A 
ATOM      7  C   UNL     1       2.922   5.245  19.111  0.00  0.00    +0.000 A 
ATOM      8  N   UNL     1       4.147   5.628  18.902  0.00  0.00    +0.000 NA
ATOM      9  N   UNL     1       4.752   5.007  17.843  0.00  0.00    +0.000 N 
ENDROOT
BRANCH   1  13
ATOM     10  C   UNL     1       8.465   9.587  17.939  0.00  0.00    +0.000 C 
ATOM     11  N   UNL     1       8.014   8.222  18.050  0.00  0.00    +0.000 N 
ATOM     12  C   UNL     1       7.044   7.614  17.306  0.00  0.00    +0.000 A 
ATOM     13  C   UNL     1       6.943   6.333  17.795  0.00  0.00    +0.000 A 
ATOM     14  C   UNL     1       7.908   6.264  18.819  0.00  0.00    +0.000 A 
ATOM     15  N   UNL     1       8.570   7.417  18.973  0.00  0.00    +0.000 NA
ENDBRANCH   1  13
BRANCH   7  16
ATOM     16  C   UNL     1       2.146   5.898  20.247  0.00  0.00    +0.000 C 
BRANCH  16  17
ATOM     17  C   UNL     1       1.778   7.337  19.969  0.00  0.00    +0.000 A 
ATOM     18  C   UNL     1       1.226   8.139  20.982  0.00  0.00    +0.000 A 
ATOM     19  C   UNL     1       0.844   9.455  20.715  0.00  0.00    +0.000 A 
ATOM     20  C   UNL     1       1.034   9.980  19.444  0.00  0.00    +0.000 A 
ATOM     21  F   UNL     1       0.644  11.233  19.180  0.00  0.00    +0.000 F 
ATOM     22  C   UNL     1       1.623   9.220  18.440  0.00  0.00    +0.000 A 
ATOM     23  C   UNL     1       1.999   7.900  18.702  0.00  0.00    +0.000 A 
ENDBRANCH  16  17
ENDBRANCH   7  16
TORSDOF 3
ENDMDL
MODEL 8
REMARK VINA RESULT:      -8.0      4.097      8.225
REMARK  Name = 
REMARK  4 active torsions:
REMARK  status: ('A' for Active; 'I' for Inactive)
REMARK    1  A    between atoms: C_1  and  N_2
REMARK    2  A    between atoms: C_4  and  C_5
REMARK    3  A    between atoms: C_11  and  C_12
REMARK    4  A    between atoms: C_12  and  C_13
REMARK                            x       y       z     vdW  Elec       q    Type
REMARK                         _______ _______ _______ _____ _____    ______ ____
ROOT
ATOM      1  C   UNL     1       0.961   9.963  19.906  0.00  0.00    +0.000 A 
ATOM      2  C   UNL     1       1.179  10.711  18.767  0.00  0.00    +0.000 A 
ATOM      3  N   UNL     1       1.858   9.988  17.814  0.00  0.00    +0.000 NA
ATOM      4  C   UNL     1       2.033   8.801  18.353  0.00  0.00    +0.000 A 
ATOM      5  C   UNL     1       2.583   7.621  17.817  0.00  0.00    +0.000 A 
ATOM      6  C   UNL     1       2.583   6.500  18.549  0.00  0.00    +0.000 A 
ATOM      7  C   UNL     1       2.025   6.571  19.938  0.00  0.00    +0.000 A 
ATOM      8  N   UNL     1       1.524   7.645  20.472  0.00  0.00    +0.000 NA
ATOM      9  N   UNL     1       1.530   8.735  19.644  0.00  0.00    +0.000 N 
ENDROOT
BRANCH   1  13
ATOM     10  C   UNL     1      -2.282  12.095  23.037  0.00  0.00    +0.000 C 
ATOM     11  N   UNL     1      -1.203  11.316  22.480  0.00  0.00    +0.000 N 
ATOM     12  C   UNL     1      -0.810  11.274  21.174  0.00  0.00    +0.000 A 
ATOM     13  C   UNL     1       0.228  10.373  21.122  0.00  0.00    +0.000 A 
ATOM     14  C   UNL     1       0.393   9.942  22.453  0.00  0.00    +0.000 A 
ATOM     15  N   UNL     1      -0.477  10.523  23.288  0.00  0.00    +0.000 NA
ENDBRANCH   1  13
BRANCH   7  16
ATOM     16  C   UNL     1       2.038   5.292  20.764  0.00  0.00    +0.000 C 
BRANCH  16  17
ATOM     17  C   UNL     1       2.505   4.083  19.986  0.00  0.00    +0.000 A 
ATOM     18  C   UNL     1       3.869   3.750  19.938  0.00  0.00    +0.000 A 
ATOM     19  C   UNL     1       4.307   2.661  19.183  0.00  0.00    +0.000 A 
ATOM     20  C   UNL     1       3.382   1.889  18.494  0.00  0.00    +0.000 A 
ATOM     21  F   UNL     1       3.803   0.859  17.749  0.00  0.00    +0.000 F 
ATOM     22  C   UNL     1       2.023   2.171  18.566  0.00  0.00    +0.000 A 
ATOM     23  C   UNL     1       1.583   3.265  19.314  0.00  0.00    +0.000 A 
ENDBRANCH  16  17
ENDBRANCH   7  16
TORSDOF 3
ENDMDL
MODEL 9
REMARK VINA RESULT:      -7.9      1.716      2.069
REMARK  Name = 
REMARK  4 active torsions:
REMARK  status: ('A' for Active; 'I' for Inactive)
REMARK    1  A    between atoms: C_1  and  N_2
REMARK    2  A    between atoms: C_4  and  C_5
REMARK    3  A    between atoms: C_11  and  C_12
REMARK    4  A    between atoms: C_12  and  C_13
REMARK                            x       y       z     vdW  Elec       q    Type
REMARK                         _______ _______ _______ _____ _____    ______ ____
ROOT
ATOM      1  C   UNL     1       4.629   4.998  18.110  0.00  0.00    +0.000 A 
ATOM      2  C   UNL     1       4.495   3.998  19.050  0.00  0.00    +0.000 A 
ATOM      3  N   UNL     1       3.575   4.336  20.015  0.00  0.00    +0.000 NA
ATOM      4  C   UNL     1       3.130   5.521  19.655  0.00  0.00    +0.000 A 
ATOM      5  C   UNL     1       2.113   6.325  20.205  0.00  0.00    +0.000 A 
ATOM      6  C   UNL     1       1.786   7.478  19.606  0.00  0.00    +0.000 A 
ATOM      7  C   UNL     1       2.560   7.876  18.386  0.00  0.00    +0.000 A 
ATOM      8  N   UNL     1       3.516   7.168  17.860  0.00  0.00    +0.000 NA
ATOM      9  N   UNL     1       3.760   5.990  18.512  0.00  0.00    +0.000 N 
ENDROOT
BRANCH   1  13
ATOM     10  C   UNL     1       6.457   4.068  13.564  0.00  0.00    +0.000 C 
ATOM     11  N   UNL     1       6.266   4.567  14.904  0.00  0.00    +0.000 N 
ATOM     12  C   UNL     1       5.262   4.237  15.768  0.00  0.00    +0.000 A 
ATOM     13  C   UNL     1       5.480   4.986  16.901  0.00  0.00    +0.000 A 
ATOM     14  C   UNL     1       6.651   5.718  16.625  0.00  0.00    +0.000 A 
ATOM     15  N   UNL     1       7.139   5.459  15.405  0.00  0.00    +0.000 NA
ENDBRANCH   1  13
BRANCH   7  16
ATOM     16  C   UNL     1       2.187   9.193  17.719  0.00  0.00    +0.000 C 
BRANCH  16  17
ATOM     17  C   UNL     1       0.988   9.863  18.351  0.00  0.00    +0.000 A 
ATOM     18  C   UNL     1      -0.301   9.648  17.836  0.00  0.00    +0.000 A 
ATOM     19  C   UNL     1      -1.404  10.301  18.389  0.00  0.00    +0.000 A 
ATOM     20  C   UNL     1      -1.224  11.151  19.473  0.00  0.00    +0.000 A 
ATOM     21  F   UNL     1      -2.278  11.797  19.989  0.00  0.00    +0.000 F 
ATOM     22  C   UNL     1       0.035  11.340  20.029  0.00  0.00    +0.000 A 
ATOM     23  C   UNL     1       1.141  10.694  19.472  0.00  0.00    +0.000 A 
ENDBRANCH  16  17
ENDBRANCH   7  16
TORSDOF 3
ENDMDL
