MODEL 1
REMARK VINA RESULT:      -9.4      0.000      0.000
REMARK  Name = 
REMARK  7 active torsions:
REMARK  status: ('A' for Active; 'I' for Inactive)
REMARK    1  A    between atoms: C_1  and  C_2
REMARK    2  A    between atoms: C_10  and  C_11
REMARK    3  A    between atoms: C_12  and  C_13
REMARK    4  A    between atoms: C_13  and  C_14
REMARK    5  A    between atoms: C_14  and  C_15
REMARK    6  A    between atoms: C_20  and  C_21
REMARK    7  A    between atoms: C_24  and  C_25
REMARK                            x       y       z     vdW  Elec       q    Type
REMARK                         _______ _______ _______ _____ _____    ______ ____
ROOT
ATOM      1  C   UNL     1       1.391  11.284  18.572  0.00  0.00    +0.000 C 
ATOM      2  C   UNL     1       1.212  10.341  19.725  0.00  0.00    +0.000 A 
ATOM      3  C   UNL     1       0.742  10.722  20.922  0.00  0.00    +0.000 A 
ATOM      4  C   UNL     1       0.613   9.706  21.987  0.00  0.00    +0.000 A 
ATOM      5  O   UNL     1       0.260  10.019  23.116  0.00  0.00    +0.000 OA
ATOM      6  N   UNL     1       0.937   8.433  21.623  0.00  0.00    +0.000 N 
ATOM      7  C   UNL     1       1.461   8.177  20.391  0.00  0.00    +0.000 A 
ATOM      8  N   UNL     1       1.884   6.841  20.230  0.00  0.00    +0.000 N 
ATOM      9  N   UNL     1       1.670   5.921  21.214  0.00  0.00    +0.000 NA
ATOM     10  C   UNL     1       2.192   4.785  20.728  0.00  0.00    +0.000 A 
ATOM     11  C   UNL     1       2.114   3.519  21.504  0.00  0.00    +0.000 C 
ATOM     12  C   UNL     1       2.794   4.970  19.454  0.00  0.00    +0.000 A 
ATOM     13  C   UNL     1       2.575   6.302  19.155  0.00  0.00    +0.000 A 
ATOM     14  C   UNL     1       2.965   7.123  17.975  0.00  0.00    +0.000 C 
ATOM     15  N   UNL     1       1.605   9.058  19.457  0.00  0.00    +0.000 NA
ATOM     16  H   UNL     1       0.888   7.686  22.308  0.00  0.00    +0.000 HD
ENDROOT
BRANCH  12  17
ATOM     17  C   UNL     1       3.502   3.948  18.624  0.00  0.00    +0.000 C 
BRANCH  17  18
ATOM     18  C   UNL     1       4.985   3.846  18.971  0.00  0.00    +0.000 C 
BRANCH  18  19
ATOM     19  C   UNL     1       5.854   4.557  17.958  0.00  0.00    +0.000 C 
ATOM     20  O   UNL     1       6.628   5.449  18.280  0.00  0.00    +0.000 OA
ATOM     21  N   UNL     1       5.641   4.051  16.690  0.00  0.00    +0.000 N 
ATOM     22  C   UNL     1       6.333   4.449  15.563  0.00  0.00    +0.000 A 
ATOM     23  C   UNL     1       6.111   3.909  14.277  0.00  0.00    +0.000 A 
ATOM     24  C   UNL     1       7.012   4.557  13.470  0.00  0.00    +0.000 A 
ATOM     25  C   UNL     1       7.350   4.496  12.038  0.00  0.00    +0.000 C 
ATOM     26  O   UNL     1       7.728   5.433  14.219  0.00  0.00    +0.000 OA
ATOM     27  N   UNL     1       7.304   5.366  15.529  0.00  0.00    +0.000 NA
ATOM     28  H   UNL     1       4.951   3.328  16.558  0.00  0.00    +0.000 HD
ENDBRANCH  18  19
ENDBRANCH  17  18
ENDBRANCH  12  17
TORSDOF 3
ENDMDL
MODEL 2
REMARK VINA RESULT:      -9.0      1.101      1.191
REMARK  Name = 
REMARK  7 active torsions:
REMARK  status: ('A' for Active; 'I' for Inactive)
REMARK    1  A    between atoms: C_1  and  C_2
REMARK    2  A    between atoms: C_10  and  C_11
REMARK    3  A    between atoms: C_12  and  C_13
REMARK    4  A    between atoms: C_13  and  C_14
REMARK    5  A    between atoms: C_14  and  C_15
REMARK    6  A    between atoms: C_20  and  C_21
REMARK    7  A    between atoms: C_24  and  C_25
REMARK                            x       y       z     vdW  Elec       q    Type
REMARK                         _______ _______ _______ _____ _____    ______ ____
ROOT
ATOM      1  C   UNL     1       0.340  12.538  19.050  0.00  0.00    +0.000 C 
ATOM      2  C   UNL     1       0.310  11.459  20.091  0.00  0.00    +0.000 A 
ATOM      3  C   UNL     1      -0.178  11.643  21.327  0.00  0.00    +0.000 A 
ATOM      4  C   UNL     1      -0.152  10.507  22.274  0.00  0.00    +0.000 A 
ATOM      5  O   UNL     1      -0.517  10.647  23.434  0.00  0.00    +0.000 OA
ATOM      6  N   UNL     1       0.323   9.335  21.767  0.00  0.00    +0.000 N 
ATOM      7  C   UNL     1       0.847   9.285  20.509  0.00  0.00    +0.000 A 
ATOM      8  N   UNL     1       1.432   8.041  20.196  0.00  0.00    +0.000 N 
ATOM      9  N   UNL     1       1.360   6.999  21.074  0.00  0.00    +0.000 NA
ATOM     10  C   UNL     1       2.011   6.000  20.459  0.00  0.00    +0.000 A 
ATOM     11  C   UNL     1       2.114   4.657  21.089  0.00  0.00    +0.000 C 
ATOM     12  C   UNL     1       2.556   6.400  19.209  0.00  0.00    +0.000 A 
ATOM     13  C   UNL     1       2.162   7.717  19.063  0.00  0.00    +0.000 A 
ATOM     14  C   UNL     1       2.418   8.706  17.978  0.00  0.00    +0.000 C 
ATOM     15  N   UNL     1       0.857  10.275  19.678  0.00  0.00    +0.000 NA
ATOM     16  H   UNL     1       0.385   8.517  22.364  0.00  0.00    +0.000 HD
ENDROOT
BRANCH  12  17
ATOM     17  C   UNL     1       3.369   5.575  18.263  0.00  0.00    +0.000 C 
BRANCH  17  18
ATOM     18  C   UNL     1       4.802   5.377  18.752  0.00  0.00    +0.000 C 
BRANCH  18  19
ATOM     19  C   UNL     1       5.814   5.641  17.661  0.00  0.00    +0.000 C 
ATOM     20  O   UNL     1       6.787   6.363  17.840  0.00  0.00    +0.000 OA
ATOM     21  N   UNL     1       5.476   4.965  16.505  0.00  0.00    +0.000 N 
ATOM     22  C   UNL     1       6.239   4.952  15.354  0.00  0.00    +0.000 A 
ATOM     23  C   UNL     1       5.883   4.242  14.186  0.00  0.00    +0.000 A 
ATOM     24  C   UNL     1       6.912   4.479  13.310  0.00  0.00    +0.000 A 
ATOM     25  C   UNL     1       7.217   4.058  11.933  0.00  0.00    +0.000 C 
ATOM     26  O   UNL     1       7.827   5.283  13.909  0.00  0.00    +0.000 OA
ATOM     27  N   UNL     1       7.406   5.580  15.187  0.00  0.00    +0.000 NA
ATOM     28  H   UNL     1       4.627   4.420  16.484  0.00  0.00    +0.000 HD
ENDBRANCH  18  19
ENDBRANCH  17  18
ENDBRANCH  12  17
TORSDOF 3
ENDMDL
MODEL 3
REMARK VINA RESULT:      -8.0      3.883      9.022
REMARK  Name = 
REMARK  7 active torsions:
REMARK  status: ('A' for Active; 'I' for Inactive)
REMARK    1  A    between atoms: C_1  and  C_2
REMARK    2  A    between atoms: C_10  and  C_11
REMARK    3  A    between atoms: C_12  and  C_13
REMARK    4  A    between atoms: C_13  and  C_14
REMARK    5  A    between atoms: C_14  and  C_15
REMARK    6  A    between atoms: C_20  and  C_21
REMARK    7  A    between atoms: C_24  and  C_25
REMARK                            x       y       z     vdW  Elec       q    Type
REMARK                         _______ _______ _______ _____ _____    ______ ____
ROOT
ATOM      1  C   UNL     1       3.897   3.166  17.738  0.00  0.00    +0.000 C 
ATOM      2  C   UNL     1       3.280   3.653  19.015  0.00  0.00    +0.000 A 
ATOM      3  C   UNL     1       3.057   2.860  20.074  0.00  0.00    +0.000 A 
ATOM      4  C   UNL     1       2.437   3.449  21.280  0.00  0.00    +0.000 A 
ATOM      5  O   UNL     1       2.147   2.750  22.242  0.00  0.00    +0.000 OA
ATOM      6  N   UNL     1       2.200   4.789  21.220  0.00  0.00    +0.000 N 
ATOM      7  C   UNL     1       2.415   5.480  20.064  0.00  0.00    +0.000 A 
ATOM      8  N   UNL     1       1.977   6.819  20.124  0.00  0.00    +0.000 N 
ATOM      9  N   UNL     1       1.484   7.338  21.285  0.00  0.00    +0.000 NA
ATOM     10  C   UNL     1       1.170   8.605  20.978  0.00  0.00    +0.000 A 
ATOM     11  C   UNL     1       0.634   9.530  22.012  0.00  0.00    +0.000 C 
ATOM     12  C   UNL     1       1.404   8.901  19.607  0.00  0.00    +0.000 A 
ATOM     13  C   UNL     1       1.929   7.735  19.084  0.00  0.00    +0.000 A 
ATOM     14  C   UNL     1       2.370   7.387  17.704  0.00  0.00    +0.000 C 
ATOM     15  N   UNL     1       2.932   4.976  18.992  0.00  0.00    +0.000 NA
ATOM     16  H   UNL     1       1.762   5.258  22.005  0.00  0.00    +0.000 HD
ENDROOT
BRANCH  12  17
ATOM     17  C   UNL     1       1.142  10.190  18.896  0.00  0.00    +0.000 C 
BRANCH  17  18
ATOM     18  C   UNL     1      -0.103  10.123  18.015  0.00  0.00    +0.000 C 
BRANCH  18  19
ATOM     19  C   UNL     1      -1.286  10.818  18.651  0.00  0.00    +0.000 C 
ATOM     20  O   UNL     1      -1.222  11.313  19.769  0.00  0.00    +0.000 OA
ATOM     21  N   UNL     1      -2.376  10.804  17.804  0.00  0.00    +0.000 N 
ATOM     22  C   UNL     1      -3.584  11.417  18.073  0.00  0.00    +0.000 A 
ATOM     23  C   UNL     1      -4.683  11.404  17.186  0.00  0.00    +0.000 A 
ATOM     24  C   UNL     1      -5.651  12.137  17.824  0.00  0.00    +0.000 A 
ATOM     25  C   UNL     1      -7.027  12.544  17.496  0.00  0.00    +0.000 C 
ATOM     26  O   UNL     1      -5.169  12.562  19.020  0.00  0.00    +0.000 OA
ATOM     27  N   UNL     1      -3.876  12.111  19.177  0.00  0.00    +0.000 NA
ATOM     28  H   UNL     1      -2.302  10.336  16.913  0.00  0.00    +0.000 HD
ENDBRANCH  18  19
ENDBRANCH  17  18
ENDBRANCH  12  17
TORSDOF 3
ENDMDL
MODEL 4
REMARK VINA RESULT:      -8.0      4.364      6.828
REMARK  Name = 
REMARK  7 active torsions:
REMARK  status: ('A' for Active; 'I' for Inactive)
REMARK    1  A    between atoms: C_1  and  C_2
REMARK    2  A    between atoms: C_10  and  C_11
REMARK    3  A    between atoms: C_12  and  C_13
REMARK    4  A    between atoms: C_13  and  C_14
REMARK    5  A    between atoms: C_14  and  C_15
REMARK    6  A    between atoms: C_20  and  C_21
REMARK    7  A    between atoms: C_24  and  C_25
REMARK                            x       y       z     vdW  Elec       q    Type
REMARK                         _______ _______ _______ _____ _____    ______ ____
ROOT
ATOM      1  C   UNL     1       2.179   3.541  22.112  0.00  0.00    +0.000 C 
ATOM      2  C   UNL     1       2.084   3.265  20.641  0.00  0.00    +0.000 A 
ATOM      3  C   UNL     1       1.116   2.514  20.094  0.00  0.00    +0.000 A 
ATOM      4  C   UNL     1       1.126   2.304  18.631  0.00  0.00    +0.000 A 
ATOM      5  O   UNL     1       0.308   1.568  18.096  0.00  0.00    +0.000 OA
ATOM      6  N   UNL     1       2.109   2.960  17.953  0.00  0.00    +0.000 N 
ATOM      7  C   UNL     1       3.075   3.649  18.626  0.00  0.00    +0.000 A 
ATOM      8  N   UNL     1       4.099   4.137  17.790  0.00  0.00    +0.000 N 
ATOM      9  N   UNL     1       4.022   3.986  16.436  0.00  0.00    +0.000 NA
ATOM     10  C   UNL     1       5.145   4.556  15.972  0.00  0.00    +0.000 A 
ATOM     11  C   UNL     1       5.412   4.633  14.512  0.00  0.00    +0.000 C 
ATOM     12  C   UNL     1       5.981   5.029  17.019  0.00  0.00    +0.000 A 
ATOM     13  C   UNL     1       5.280   4.752  18.178  0.00  0.00    +0.000 A 
ATOM     14  C   UNL     1       5.614   4.986  19.611  0.00  0.00    +0.000 C 
ATOM     15  N   UNL     1       3.096   3.820  19.907  0.00  0.00    +0.000 NA
ATOM     16  H   UNL     1       2.187   2.850  16.948  0.00  0.00    +0.000 HD
ENDROOT
BRANCH  12  17
ATOM     17  C   UNL     1       7.320   5.684  16.891  0.00  0.00    +0.000 C 
BRANCH  17  18
ATOM     18  C   UNL     1       7.213   7.202  16.776  0.00  0.00    +0.000 C 
BRANCH  18  19
ATOM     19  C   UNL     1       7.959   7.909  17.886  0.00  0.00    +0.000 C 
ATOM     20  O   UNL     1       8.370   7.311  18.872  0.00  0.00    +0.000 OA
ATOM     21  N   UNL     1       8.090   9.255  17.607  0.00  0.00    +0.000 N 
ATOM     22  C   UNL     1       8.782  10.153  18.396  0.00  0.00    +0.000 A 
ATOM     23  C   UNL     1       8.918  11.524  18.086  0.00  0.00    +0.000 A 
ATOM     24  C   UNL     1       9.684  12.034  19.104  0.00  0.00    +0.000 A 
ATOM     25  C   UNL     1      10.224  13.365  19.427  0.00  0.00    +0.000 C 
ATOM     26  O   UNL     1       9.986  11.037  19.974  0.00  0.00    +0.000 OA
ATOM     27  N   UNL     1       9.421   9.859  19.532  0.00  0.00    +0.000 NA
ATOM     28  H   UNL     1       7.679   9.626  16.764  0.00  0.00    +0.000 HD
ENDBRANCH  18  19
ENDBRANCH  17  18
ENDBRANCH  12  17
TORSDOF 3
ENDMDL
MODEL 5
REMARK VINA RESULT:      -8.0      1.941      8.764
REMARK  Name = 
REMARK  7 active torsions:
REMARK  status: ('A' for Active; 'I' for Inactive)
REMARK    1  A    between atoms: C_1  and  C_2
REMARK    2  A    between atoms: C_10  and  C_11
REMARK    3  A    between atoms: C_12  and  C_13
REMARK    4  A    between atoms: C_13  and  C_14
REMARK    5  A    between atoms: C_14  and  C_15
REMARK    6  A    between atoms: C_20  and  C_21
REMARK    7  A    between atoms: C_24  and  C_25
REMARK                            x       y       z     vdW  Elec       q    Type
REMARK                         _______ _______ _______ _____ _____    ______ ____
ROOT
ATOM      1  C   UNL     1       8.642   6.111  12.698  0.00  0.00    +0.000 C 
ATOM      2  C   UNL     1       7.601   5.071  12.989  0.00  0.00    +0.000 A 
ATOM      3  C   UNL     1       7.171   4.185  12.078  0.00  0.00    +0.000 A 
ATOM      4  C   UNL     1       6.136   3.207  12.476  0.00  0.00    +0.000 A 
ATOM      5  O   UNL     1       5.660   2.429  11.660  0.00  0.00    +0.000 OA
ATOM      6  N   UNL     1       5.751   3.263  13.782  0.00  0.00    +0.000 N 
ATOM      7  C   UNL     1       6.216   4.249  14.601  0.00  0.00    +0.000 A 
ATOM      8  N   UNL     1       5.605   4.256  15.871  0.00  0.00    +0.000 N 
ATOM      9  N   UNL     1       4.713   3.284  16.218  0.00  0.00    +0.000 NA
ATOM     10  C   UNL     1       4.341   3.602  17.467  0.00  0.00    +0.000 A 
ATOM     11  C   UNL     1       3.393   2.741  18.223  0.00  0.00    +0.000 C 
ATOM     12  C   UNL     1       4.944   4.808  17.918  0.00  0.00    +0.000 A 
ATOM     13  C   UNL     1       5.757   5.203  16.872  0.00  0.00    +0.000 A 
ATOM     14  C   UNL     1       6.646   6.388  16.710  0.00  0.00    +0.000 C 
ATOM     15  N   UNL     1       7.101   5.127  14.262  0.00  0.00    +0.000 NA
ATOM     16  H   UNL     1       5.032   2.632  14.122  0.00  0.00    +0.000 HD
ENDROOT
BRANCH  12  17
ATOM     17  C   UNL     1       4.743   5.491  19.233  0.00  0.00    +0.000 C 
BRANCH  17  18
ATOM     18  C   UNL     1       3.282   5.483  19.673  0.00  0.00    +0.000 C 
BRANCH  18  19
ATOM     19  C   UNL     1       2.627   6.834  19.490  0.00  0.00    +0.000 C 
ATOM     20  O   UNL     1       2.633   7.417  18.414  0.00  0.00    +0.000 OA
ATOM     21  N   UNL     1       2.055   7.264  20.672  0.00  0.00    +0.000 N 
ATOM     22  C   UNL     1       1.326   8.429  20.809  0.00  0.00    +0.000 A 
ATOM     23  C   UNL     1       0.736   8.845  22.023  0.00  0.00    +0.000 A 
ATOM     24  C   UNL     1       0.100  10.020  21.713  0.00  0.00    +0.000 A 
ATOM     25  C   UNL     1      -0.716  10.986  22.467  0.00  0.00    +0.000 C 
ATOM     26  O   UNL     1       0.296  10.298  20.399  0.00  0.00    +0.000 OA
ATOM     27  N   UNL     1       1.065   9.303  19.833  0.00  0.00    +0.000 NA
ATOM     28  H   UNL     1       2.146   6.695  21.499  0.00  0.00    +0.000 HD
ENDBRANCH  18  19
ENDBRANCH  17  18
ENDBRANCH  12  17
TORSDOF 3
ENDMDL
MODEL 6
REMARK VINA RESULT:      -7.9      2.130      2.498
REMARK  Name = 
REMARK  7 active torsions:
REMARK  status: ('A' for Active; 'I' for Inactive)
REMARK    1  A    between atoms: C_1  and  C_2
REMARK    2  A    between atoms: C_10  and  C_11
REMARK    3  A    between atoms: C_12  and  C_13
REMARK    4  A    between atoms: C_13  and  C_14
REMARK    5  A    between atoms: C_14  and  C_15
REMARK    6  A    between atoms: C_20  and  C_21
REMARK    7  A    between atoms: C_24  and  C_25
REMARK                            x       y       z     vdW  Elec       q    Type
REMARK                         _______ _______ _______ _____ _____    ______ ____
ROOT
ATOM      1  C   UNL     1       1.144  10.039  18.077  0.00  0.00    +0.000 C 
ATOM      2  C   UNL     1       1.300   9.271  19.356  0.00  0.00    +0.000 A 
ATOM      3  C   UNL     1       1.274   9.846  20.567  0.00  0.00    +0.000 A 
ATOM      4  C   UNL     1       1.443   8.990  21.761  0.00  0.00    +0.000 A 
ATOM      5  O   UNL     1       1.501   9.478  22.882  0.00  0.00    +0.000 OA
ATOM      6  N   UNL     1       1.552   7.655  21.511  0.00  0.00    +0.000 N 
ATOM      7  C   UNL     1       1.624   7.192  20.230  0.00  0.00    +0.000 A 
ATOM      8  N   UNL     1       1.889   5.810  20.149  0.00  0.00    +0.000 N 
ATOM      9  N   UNL     1       1.958   5.048  21.278  0.00  0.00    +0.000 NA
ATOM     10  C   UNL     1       2.221   3.811  20.831  0.00  0.00    +0.000 A 
ATOM     11  C   UNL     1       2.328   2.667  21.774  0.00  0.00    +0.000 C 
ATOM     12  C   UNL     1       2.379   3.771  19.419  0.00  0.00    +0.000 A 
ATOM     13  C   UNL     1       2.153   5.071  19.006  0.00  0.00    +0.000 A 
ATOM     14  C   UNL     1       2.182   5.692  17.652  0.00  0.00    +0.000 C 
ATOM     15  N   UNL     1       1.505   7.930  19.176  0.00  0.00    +0.000 NA
ATOM     16  H   UNL     1       1.687   7.008  22.281  0.00  0.00    +0.000 HD
ENDROOT
BRANCH  12  17
ATOM     17  C   UNL     1       2.711   2.584  18.572  0.00  0.00    +0.000 C 
BRANCH  17  18
ATOM     18  C   UNL     1       4.215   2.416  18.375  0.00  0.00    +0.000 C 
BRANCH  18  19
ATOM     19  C   UNL     1       4.802   3.520  17.523  0.00  0.00    +0.000 C 
ATOM     20  O   UNL     1       4.537   3.630  16.333  0.00  0.00    +0.000 OA
ATOM     21  N   UNL     1       5.628   4.331  18.276  0.00  0.00    +0.000 N 
ATOM     22  C   UNL     1       6.257   5.464  17.799  0.00  0.00    +0.000 A 
ATOM     23  C   UNL     1       7.087   6.290  18.588  0.00  0.00    +0.000 A 
ATOM     24  C   UNL     1       7.478   7.297  17.742  0.00  0.00    +0.000 A 
ATOM     25  C   UNL     1       8.322   8.496  17.879  0.00  0.00    +0.000 C 
ATOM     26  O   UNL     1       6.924   7.090  16.521  0.00  0.00    +0.000 OA
ATOM     27  N   UNL     1       6.160   5.943  16.555  0.00  0.00    +0.000 NA
ATOM     28  H   UNL     1       5.781   4.112  19.248  0.00  0.00    +0.000 HD
ENDBRANCH  18  19
ENDBRANCH  17  18
ENDBRANCH  12  17
TORSDOF 3
ENDMDL
MODEL 7
REMARK VINA RESULT:      -7.9      1.841      8.134
REMARK  Name = 
REMARK  7 active torsions:
REMARK  status: ('A' for Active; 'I' for Inactive)
REMARK    1  A    between atoms: C_1  and  C_2
REMARK    2  A    between atoms: C_10  and  C_11
REMARK    3  A    between atoms: C_12  and  C_13
REMARK    4  A    between atoms: C_13  and  C_14
REMARK    5  A    between atoms: C_14  and  C_15
REMARK    6  A    between atoms: C_20  and  C_21
REMARK    7  A    between atoms: C_24  and  C_25
REMARK                            x       y       z     vdW  Elec       q    Type
REMARK                         _______ _______ _______ _____ _____    ______ ____
ROOT
ATOM      1  C   UNL     1       5.342   3.193  11.907  0.00  0.00    +0.000 C 
ATOM      2  C   UNL     1       6.288   4.011  12.735  0.00  0.00    +0.000 A 
ATOM      3  C   UNL     1       7.353   4.647  12.223  0.00  0.00    +0.000 A 
ATOM      4  C   UNL     1       8.221   5.420  13.137  0.00  0.00    +0.000 A 
ATOM      5  O   UNL     1       9.244   5.955  12.730  0.00  0.00    +0.000 OA
ATOM      6  N   UNL     1       7.810   5.464  14.435  0.00  0.00    +0.000 N 
ATOM      7  C   UNL     1       6.740   4.727  14.850  0.00  0.00    +0.000 A 
ATOM      8  N   UNL     1       6.544   4.763  16.245  0.00  0.00    +0.000 N 
ATOM      9  N   UNL     1       7.322   5.556  17.037  0.00  0.00    +0.000 NA
ATOM     10  C   UNL     1       6.864   5.340  18.279  0.00  0.00    +0.000 A 
ATOM     11  C   UNL     1       7.439   6.070  19.440  0.00  0.00    +0.000 C 
ATOM     12  C   UNL     1       5.826   4.370  18.309  0.00  0.00    +0.000 A 
ATOM     13  C   UNL     1       5.636   4.021  16.985  0.00  0.00    +0.000 A 
ATOM     14  C   UNL     1       4.706   3.047  16.348  0.00  0.00    +0.000 C 
ATOM     15  N   UNL     1       5.987   4.024  14.069  0.00  0.00    +0.000 NA
ATOM     16  H   UNL     1       8.366   5.963  15.122  0.00  0.00    +0.000 HD
ENDROOT
BRANCH  12  17
ATOM     17  C   UNL     1       5.100   3.849  19.509  0.00  0.00    +0.000 C 
BRANCH  17  18
ATOM     18  C   UNL     1       3.595   3.748  19.277  0.00  0.00    +0.000 C 
BRANCH  18  19
ATOM     19  C   UNL     1       2.850   4.923  19.870  0.00  0.00    +0.000 C 
ATOM     20  O   UNL     1       2.400   4.897  21.008  0.00  0.00    +0.000 OA
ATOM     21  N   UNL     1       2.779   5.964  18.964  0.00  0.00    +0.000 N 
ATOM     22  C   UNL     1       2.220   7.197  19.234  0.00  0.00    +0.000 A 
ATOM     23  C   UNL     1       2.169   8.255  18.299  0.00  0.00    +0.000 A 
ATOM     24  C   UNL     1       1.565   9.285  18.974  0.00  0.00    +0.000 A 
ATOM     25  C   UNL     1       1.200  10.671  18.638  0.00  0.00    +0.000 C 
ATOM     26  O   UNL     1       1.266   8.874  20.233  0.00  0.00    +0.000 OA
ATOM     27  N   UNL     1       1.675   7.568  20.396  0.00  0.00    +0.000 NA
ATOM     28  H   UNL     1       3.173   5.844  18.044  0.00  0.00    +0.000 HD
ENDBRANCH  18  19
ENDBRANCH  17  18
ENDBRANCH  12  17
TORSDOF 3
ENDMDL
MODEL 8
REMARK VINA RESULT:      -7.8      3.789      8.488
REMARK  Name = 
REMARK  7 active torsions:
REMARK  status: ('A' for Active; 'I' for Inactive)
REMARK    1  A    between atoms: C_1  and  C_2
REMARK    2  A    between atoms: C_10  and  C_11
REMARK    3  A    between atoms: C_12  and  C_13
REMARK    4  A    between atoms: C_13  and  C_14
REMARK    5  A    between atoms: C_14  and  C_15
REMARK    6  A    between atoms: C_20  and  C_21
REMARK    7  A    between atoms: C_24  and  C_25
REMARK                            x       y       z     vdW  Elec       q    Type
REMARK                         _______ _______ _______ _____ _____    ______ ____
ROOT
ATOM      1  C   UNL     1       3.780   6.866  17.351  0.00  0.00    +0.000 C 
ATOM      2  C   UNL     1       3.037   6.715  18.645  0.00  0.00    +0.000 A 
ATOM      3  C   UNL     1       2.980   5.564  19.331  0.00  0.00    +0.000 A 
ATOM      4  C   UNL     1       2.212   5.530  20.594  0.00  0.00    +0.000 A 
ATOM      5  O   UNL     1       2.069   4.485  21.216  0.00  0.00    +0.000 OA
ATOM      6  N   UNL     1       1.671   6.719  20.980  0.00  0.00    +0.000 N 
ATOM      7  C   UNL     1       1.746   7.812  20.168  0.00  0.00    +0.000 A 
ATOM      8  N   UNL     1       1.006   8.914  20.644  0.00  0.00    +0.000 N 
ATOM      9  N   UNL     1       0.380   8.860  21.855  0.00  0.00    +0.000 NA
ATOM     10  C   UNL     1      -0.213  10.057  21.977  0.00  0.00    +0.000 A 
ATOM     11  C   UNL     1      -0.974  10.408  23.206  0.00  0.00    +0.000 C 
ATOM     12  C   UNL     1      -0.023  10.873  20.829  0.00  0.00    +0.000 A 
ATOM     13  C   UNL     1       0.771  10.114  19.990  0.00  0.00    +0.000 A 
ATOM     14  C   UNL     1       1.314  10.392  18.631  0.00  0.00    +0.000 C 
ATOM     15  N   UNL     1       2.391   7.851  19.049  0.00  0.00    +0.000 NA
ATOM     16  H   UNL     1       1.117   6.768  21.829  0.00  0.00    +0.000 HD
ENDROOT
BRANCH  12  17
ATOM     17  C   UNL     1      -0.561  12.247  20.588  0.00  0.00    +0.000 C 
BRANCH  17  18
ATOM     18  C   UNL     1      -2.029  12.373  20.987  0.00  0.00    +0.000 C 
BRANCH  18  19
ATOM     19  C   UNL     1      -2.954  12.215  19.801  0.00  0.00    +0.000 C 
ATOM     20  O   UNL     1      -4.083  12.687  19.792  0.00  0.00    +0.000 OA
ATOM     21  N   UNL     1      -2.339  11.495  18.794  0.00  0.00    +0.000 N 
ATOM     22  C   UNL     1      -2.902  11.243  17.559  0.00  0.00    +0.000 A 
ATOM     23  C   UNL     1      -2.251  10.517  16.536  0.00  0.00    +0.000 A 
ATOM     24  C   UNL     1      -3.139  10.521  15.491  0.00  0.00    +0.000 A 
ATOM     25  C   UNL     1      -3.130   9.978  14.122  0.00  0.00    +0.000 C 
ATOM     26  O   UNL     1      -4.255  11.200  15.860  0.00  0.00    +0.000 OA
ATOM     27  N   UNL     1      -4.108  11.651  17.154  0.00  0.00    +0.000 NA
ATOM     28  H   UNL     1      -1.408  11.139  18.942  0.00  0.00    +0.000 HD
ENDBRANCH  18  19
ENDBRANCH  17  18
ENDBRANCH  12  17
TORSDOF 3
ENDMDL
MODEL 9
REMARK VINA RESULT:      -7.8      2.309      2.622
REMARK  Name = 
REMARK  7 active torsions:
REMARK  status: ('A' for Active; 'I' for Inactive)
REMARK    1  A    between atoms: C_1  and  C_2
REMARK    2  A    between atoms: C_10  and  C_11
REMARK    3  A    between atoms: C_12  and  C_13
REMARK    4  A    between atoms: C_13  and  C_14
REMARK    5  A    between atoms: C_14  and  C_15
REMARK    6  A    between atoms: C_20  and  C_21
REMARK    7  A    between atoms: C_24  and  C_25
REMARK                            x       y       z     vdW  Elec       q    Type
REMARK                         _______ _______ _______ _____ _____    ______ ____
ROOT
ATOM      1  C   UNL     1       0.928  11.642  19.136  0.00  0.00    +0.000 C 
ATOM      2  C   UNL     1       1.003  10.511  20.118  0.00  0.00    +0.000 A 
ATOM      3  C   UNL     1       0.788  10.662  21.433  0.00  0.00    +0.000 A 
ATOM      4  C   UNL     1       0.894   9.476  22.308  0.00  0.00    +0.000 A 
ATOM      5  O   UNL     1       0.780   9.578  23.523  0.00  0.00    +0.000 OA
ATOM      6  N   UNL     1       1.149   8.299  21.669  0.00  0.00    +0.000 N 
ATOM      7  C   UNL     1       1.408   8.279  20.331  0.00  0.00    +0.000 A 
ATOM      8  N   UNL     1       1.802   7.011  19.857  0.00  0.00    +0.000 N 
ATOM      9  N   UNL     1       1.807   5.929  20.688  0.00  0.00    +0.000 NA
ATOM     10  C   UNL     1       2.228   4.917  19.915  0.00  0.00    +0.000 A 
ATOM     11  C   UNL     1       2.328   3.535  20.457  0.00  0.00    +0.000 C 
ATOM     12  C   UNL     1       2.550   5.342  18.598  0.00  0.00    +0.000 A 
ATOM     13  C   UNL     1       2.260   6.693  18.587  0.00  0.00    +0.000 A 
ATOM     14  C   UNL     1       2.388   7.719  17.514  0.00  0.00    +0.000 C 
ATOM     15  N   UNL     1       1.345   9.311  19.556  0.00  0.00    +0.000 NA
ATOM     16  H   UNL     1       1.251   7.445  22.209  0.00  0.00    +0.000 HD
ENDROOT
BRANCH  12  17
ATOM     17  C   UNL     1       3.081   4.508  17.476  0.00  0.00    +0.000 C 
BRANCH  17  18
ATOM     18  C   UNL     1       4.200   3.573  17.927  0.00  0.00    +0.000 C 
BRANCH  18  19
ATOM     19  C   UNL     1       5.395   4.335  18.457  0.00  0.00    +0.000 C 
ATOM     20  O   UNL     1       6.111   3.883  19.341  0.00  0.00    +0.000 OA
ATOM     21  N   UNL     1       5.531   5.546  17.806  0.00  0.00    +0.000 N 
ATOM     22  C   UNL     1       6.565   6.436  18.020  0.00  0.00    +0.000 A 
ATOM     23  C   UNL     1       6.694   7.664  17.334  0.00  0.00    +0.000 A 
ATOM     24  C   UNL     1       7.851   8.214  17.825  0.00  0.00    +0.000 A 
ATOM     25  C   UNL     1       8.600   9.455  17.565  0.00  0.00    +0.000 C 
ATOM     26  O   UNL     1       8.382   7.375  18.750  0.00  0.00    +0.000 OA
ATOM     27  N   UNL     1       7.578   6.263  18.874  0.00  0.00    +0.000 NA
ATOM     28  H   UNL     1       4.852   5.809  17.109  0.00  0.00    +0.000 HD
ENDBRANCH  18  19
ENDBRANCH  17  18
ENDBRANCH  12  17
TORSDOF 3
ENDMDL
