MODEL 1
REMARK VINA RESULT:      -8.3      0.000      0.000
REMARK  Name = 
REMARK  7 active torsions:
REMARK  status: ('A' for Active; 'I' for Inactive)
REMARK    1  A    between atoms: C_1  and  N_2
REMARK    2  A    between atoms: C_7  and  C_8
REMARK    3  A    between atoms: C_12  and  C_13
REMARK    4  A    between atoms: C_22  and  O_23
REMARK    5  A    between atoms: O_23  and  C_24
REMARK    6  A    between atoms: C_27  and  S_28
REMARK    7  A    between atoms: S_28  and  C_29
REMARK                            x       y       z     vdW  Elec       q    Type
REMARK                         _______ _______ _______ _____ _____    ______ ____
ROOT
ATOM      1  C   UNL     1       1.334  11.254  19.261  0.00  0.00    +0.000 A 
ATOM      2  C   UNL     1       1.557  10.192  18.359  0.00  0.00    +0.000 A 
ATOM      3  C   UNL     1       1.693   8.903  18.868  0.00  0.00    +0.000 A 
ATOM      4  N   UNL     1       2.042   7.746  18.238  0.00  0.00    +0.000 N 
ATOM      5  C   UNL     1       2.225   6.729  19.144  0.00  0.00    +0.000 A 
ATOM      6  C   UNL     1       1.803   7.224  20.368  0.00  0.00    +0.000 A 
ATOM      7  C   UNL     1       1.495   8.604  20.208  0.00  0.00    +0.000 A 
ATOM      8  C   UNL     1       1.116   9.640  21.083  0.00  0.00    +0.000 A 
ATOM      9  C   UNL     1       1.130  10.978  20.633  0.00  0.00    +0.000 A 
ATOM     10  H   UNL     1       2.273   7.645  17.255  0.00  0.00    +0.000 HD
ENDROOT
BRANCH   1  17
ATOM     11  C   UNL     1      -1.075  12.905  18.139  0.00  0.00    +0.000 C 
ATOM     12  N   UNL     1       0.150  13.386  18.745  0.00  0.00    +0.000 N 
ATOM     13  C   UNL     1       0.428  14.744  18.803  0.00  0.00    +0.000 C 
ATOM     14  O   UNL     1      -0.353  15.657  18.580  0.00  0.00    +0.000 OA
ATOM     15  C   UNL     1       1.879  14.933  19.169  0.00  0.00    +0.000 C 
ATOM     16  C   UNL     1       2.483  13.537  19.155  0.00  0.00    +0.000 C 
ATOM     17  C   UNL     1       1.372  12.632  18.643  0.00  0.00    +0.000 C 
ENDBRANCH   1  17
BRANCH   5  18
ATOM     18  C   UNL     1       2.805   5.461  18.725  0.00  0.00    +0.000 A 
ATOM     19  C   UNL     1       2.150   4.584  17.874  0.00  0.00    +0.000 A 
ATOM     20  C   UNL     1       2.766   3.372  17.572  0.00  0.00    +0.000 A 
ATOM     21  C   UNL     1       4.006   3.080  18.129  0.00  0.00    +0.000 A 
ATOM     22  C   UNL     1       4.583   4.012  18.974  0.00  0.00    +0.000 A 
ATOM     23  N   UNL     1       4.011   5.196  19.285  0.00  0.00    +0.000 NA
ENDBRANCH   5  18
BRANCH   9  24
ATOM     24  O   UNL     1       0.933  12.047  21.506  0.00  0.00    +0.000 OA
BRANCH  24  25
ATOM     25  C   UNL     1      -0.294  12.206  22.119  0.00  0.00    +0.000 A 
ATOM     26  C   UNL     1      -0.930  11.212  22.869  0.00  0.00    +0.000 A 
ATOM     27  C   UNL     1      -2.240  11.407  23.307  0.00  0.00    +0.000 A 
ATOM     28  C   UNL     1      -2.839  12.625  23.022  0.00  0.00    +0.000 A 
ATOM     29  N   UNL     1      -2.220  13.672  22.419  0.00  0.00    +0.000 NA
ATOM     30  C   UNL     1      -0.949  13.432  21.992  0.00  0.00    +0.000 A 
BRANCH  28  31
ATOM     31  S   UNL     1      -4.597  12.794  23.273  0.00  0.00    +0.000 S 
ATOM     32  C   UNL     1      -4.914  14.523  23.494  0.00  0.00    +0.000 C 
ATOM     33  O   UNL     1      -5.232  12.383  22.033  0.00  0.00    +0.000 OA
ATOM     34  O   UNL     1      -4.919  12.125  24.522  0.00  0.00    +0.000 OA
ENDBRANCH  28  31
ENDBRANCH  24  25
ENDBRANCH   9  24
TORSDOF 5
ENDMDL
MODEL 2
REMARK VINA RESULT:      -8.2      2.704      5.230
REMARK  Name = 
REMARK  7 active torsions:
REMARK  status: ('A' for Active; 'I' for Inactive)
REMARK    1  A    between atoms: C_1  and  N_2
REMARK    2  A    between atoms: C_7  and  C_8
REMARK    3  A    between atoms: C_12  and  C_13
REMARK    4  A    between atoms: C_22  and  O_23
REMARK    5  A    between atoms: O_23  and  C_24
REMARK    6  A    between atoms: C_27  and  S_28
REMARK    7  A    between atoms: S_28  and  C_29
REMARK                            x       y       z     vdW  Elec       q    Type
REMARK                         _______ _______ _______ _____ _____    ______ ____
ROOT
ATOM      1  C   UNL     1       0.229  10.989  20.326  0.00  0.00    +0.000 A 
ATOM      2  C   UNL     1       0.507   9.818  21.064  0.00  0.00    +0.000 A 
ATOM      3  C   UNL     1       1.194   8.783  20.437  0.00  0.00    +0.000 A 
ATOM      4  N   UNL     1       1.464   7.520  20.873  0.00  0.00    +0.000 N 
ATOM      5  C   UNL     1       2.021   6.762  19.872  0.00  0.00    +0.000 A 
ATOM      6  C   UNL     1       2.272   7.633  18.824  0.00  0.00    +0.000 A 
ATOM      7  C   UNL     1       1.725   8.904  19.160  0.00  0.00    +0.000 A 
ATOM      8  C   UNL     1       1.585  10.130  18.483  0.00  0.00    +0.000 A 
ATOM      9  C   UNL     1       0.756  11.139  19.022  0.00  0.00    +0.000 A 
ATOM     10  H   UNL     1       1.185   7.122  21.764  0.00  0.00    +0.000 HD
ENDROOT
BRANCH   1  17
ATOM     11  C   UNL     1      -2.540  12.073  19.353  0.00  0.00    +0.000 C 
ATOM     12  N   UNL     1      -2.067  11.880  20.709  0.00  0.00    +0.000 N 
ATOM     13  C   UNL     1      -2.835  12.280  21.793  0.00  0.00    +0.000 C 
ATOM     14  O   UNL     1      -4.011  12.612  21.768  0.00  0.00    +0.000 OA
ATOM     15  C   UNL     1      -1.978  12.268  23.034  0.00  0.00    +0.000 C 
ATOM     16  C   UNL     1      -0.566  11.982  22.545  0.00  0.00    +0.000 C 
ATOM     17  C   UNL     1      -0.667  11.984  21.026  0.00  0.00    +0.000 C 
ENDBRANCH   1  17
BRANCH   5  18
ATOM     18  C   UNL     1       2.196   5.327  20.042  0.00  0.00    +0.000 A 
ATOM     19  C   UNL     1       1.216   4.513  20.590  0.00  0.00    +0.000 A 
ATOM     20  C   UNL     1       1.498   3.160  20.758  0.00  0.00    +0.000 A 
ATOM     21  C   UNL     1       2.742   2.670  20.377  0.00  0.00    +0.000 A 
ATOM     22  C   UNL     1       3.662   3.556  19.844  0.00  0.00    +0.000 A 
ATOM     23  N   UNL     1       3.418   4.873  19.668  0.00  0.00    +0.000 NA
ENDBRANCH   5  18
BRANCH   9  24
ATOM     24  O   UNL     1       0.450  12.295  18.308  0.00  0.00    +0.000 OA
BRANCH  24  25
ATOM     25  C   UNL     1       1.290  13.387  18.389  0.00  0.00    +0.000 A 
ATOM     26  C   UNL     1       2.666  13.336  18.144  0.00  0.00    +0.000 A 
ATOM     27  C   UNL     1       3.458  14.453  18.415  0.00  0.00    +0.000 A 
ATOM     28  C   UNL     1       2.822  15.599  18.867  0.00  0.00    +0.000 A 
ATOM     29  N   UNL     1       1.477  15.743  18.990  0.00  0.00    +0.000 NA
ATOM     30  C   UNL     1       0.744  14.624  18.733  0.00  0.00    +0.000 A 
BRANCH  28  31
ATOM     31  S   UNL     1       3.815  16.926  19.528  0.00  0.00    +0.000 S 
ATOM     32  C   UNL     1       4.562  16.310  21.010  0.00  0.00    +0.000 C 
ATOM     33  O   UNL     1       4.874  17.168  18.565  0.00  0.00    +0.000 OA
ATOM     34  O   UNL     1       2.905  17.995  19.906  0.00  0.00    +0.000 OA
ENDBRANCH  28  31
ENDBRANCH  24  25
ENDBRANCH   9  24
TORSDOF 5
ENDMDL
MODEL 3
REMARK VINA RESULT:      -7.9      0.800      1.122
REMARK  Name = 
REMARK  7 active torsions:
REMARK  status: ('A' for Active; 'I' for Inactive)
REMARK    1  A    between atoms: C_1  and  N_2
REMARK    2  A    between atoms: C_7  and  C_8
REMARK    3  A    between atoms: C_12  and  C_13
REMARK    4  A    between atoms: C_22  and  O_23
REMARK    5  A    between atoms: O_23  and  C_24
REMARK    6  A    between atoms: C_27  and  S_28
REMARK    7  A    between atoms: S_28  and  C_29
REMARK                            x       y       z     vdW  Elec       q    Type
REMARK                         _______ _______ _______ _____ _____    ______ ____
ROOT
ATOM      1  C   UNL     1       1.314  11.274  19.345  0.00  0.00    +0.000 A 
ATOM      2  C   UNL     1       1.534  10.188  18.470  0.00  0.00    +0.000 A 
ATOM      3  C   UNL     1       1.673   8.914  19.012  0.00  0.00    +0.000 A 
ATOM      4  N   UNL     1       2.020   7.740  18.412  0.00  0.00    +0.000 N 
ATOM      5  C   UNL     1       2.207   6.747  19.344  0.00  0.00    +0.000 A 
ATOM      6  C   UNL     1       1.790   7.274  20.555  0.00  0.00    +0.000 A 
ATOM      7  C   UNL     1       1.480   8.650  20.361  0.00  0.00    +0.000 A 
ATOM      8  C   UNL     1       1.105   9.708  21.209  0.00  0.00    +0.000 A 
ATOM      9  C   UNL     1       1.116  11.034  20.724  0.00  0.00    +0.000 A 
ATOM     10  H   UNL     1       2.247   7.613  17.430  0.00  0.00    +0.000 HD
ENDROOT
BRANCH   1  17
ATOM     11  C   UNL     1      -1.105  12.912  18.225  0.00  0.00    +0.000 C 
ATOM     12  N   UNL     1       0.135  13.400  18.796  0.00  0.00    +0.000 N 
ATOM     13  C   UNL     1       0.422  14.757  18.813  0.00  0.00    +0.000 C 
ATOM     14  O   UNL     1      -0.357  15.669  18.581  0.00  0.00    +0.000 OA
ATOM     15  C   UNL     1       1.881  14.945  19.147  0.00  0.00    +0.000 C 
ATOM     16  C   UNL     1       2.476  13.545  19.159  0.00  0.00    +0.000 C 
ATOM     17  C   UNL     1       1.349  12.635  18.690  0.00  0.00    +0.000 C 
ENDBRANCH   1  17
BRANCH   5  18
ATOM     18  C   UNL     1       2.786   5.469  18.956  0.00  0.00    +0.000 A 
ATOM     19  C   UNL     1       4.023   5.039  19.411  0.00  0.00    +0.000 A 
ATOM     20  C   UNL     1       4.514   3.823  18.942  0.00  0.00    +0.000 A 
ATOM     21  C   UNL     1       3.757   3.085  18.039  0.00  0.00    +0.000 A 
ATOM     22  C   UNL     1       2.536   3.594  17.635  0.00  0.00    +0.000 A 
ATOM     23  N   UNL     1       2.032   4.769  18.071  0.00  0.00    +0.000 NA
ENDBRANCH   5  18
BRANCH   9  24
ATOM     24  O   UNL     1       0.922  12.125  21.569  0.00  0.00    +0.000 OA
BRANCH  24  25
ATOM     25  C   UNL     1      -0.309  12.312  22.166  0.00  0.00    +0.000 A 
ATOM     26  C   UNL     1      -1.028  11.301  22.812  0.00  0.00    +0.000 A 
ATOM     27  C   UNL     1      -2.335  11.545  23.236  0.00  0.00    +0.000 A 
ATOM     28  C   UNL     1      -2.846  12.819  23.045  0.00  0.00    +0.000 A 
ATOM     29  N   UNL     1      -2.145  13.871  22.549  0.00  0.00    +0.000 NA
ATOM     30  C   UNL     1      -0.881  13.585  22.131  0.00  0.00    +0.000 A 
BRANCH  28  31
ATOM     31  S   UNL     1      -4.597  13.082  23.269  0.00  0.00    +0.000 S 
ATOM     32  C   UNL     1      -5.363  12.751  21.708  0.00  0.00    +0.000 C 
ATOM     33  O   UNL     1      -5.049  12.071  24.208  0.00  0.00    +0.000 OA
ATOM     34  O   UNL     1      -4.785  14.494  23.560  0.00  0.00    +0.000 OA
ENDBRANCH  28  31
ENDBRANCH  24  25
ENDBRANCH   9  24
TORSDOF 5
ENDMDL
MODEL 4
REMARK VINA RESULT:      -7.9      0.834      1.241
REMARK  Name = 
REMARK  7 active torsions:
REMARK  status: ('A' for Active; 'I' for Inactive)
REMARK    1  A    between atoms: C_1  and  N_2
REMARK    2  A    between atoms: C_7  and  C_8
REMARK    3  A    between atoms: C_12  and  C_13
REMARK    4  A    between atoms: C_22  and  O_23
REMARK    5  A    between atoms: O_23  and  C_24
REMARK    6  A    between atoms: C_27  and  S_28
REMARK    7  A    between atoms: S_28  and  C_29
REMARK                            x       y       z     vdW  Elec       q    Type
REMARK                         _______ _______ _______ _____ _____    ______ ____
ROOT
ATOM      1  C   UNL     1       1.290  11.242  19.410  0.00  0.00    +0.000 A 
ATOM      2  C   UNL     1       1.740  10.252  18.510  0.00  0.00    +0.000 A 
ATOM      3  C   UNL     1       1.811   8.934  18.951  0.00  0.00    +0.000 A 
ATOM      4  N   UNL     1       2.328   7.831  18.338  0.00  0.00    +0.000 N 
ATOM      5  C   UNL     1       2.349   6.757  19.195  0.00  0.00    +0.000 A 
ATOM      6  C   UNL     1       1.658   7.154  20.327  0.00  0.00    +0.000 A 
ATOM      7  C   UNL     1       1.341   8.536  20.195  0.00  0.00    +0.000 A 
ATOM      8  C   UNL     1       0.747   9.498  21.032  0.00  0.00    +0.000 A 
ATOM      9  C   UNL     1       0.808  10.865  20.684  0.00  0.00    +0.000 A 
ATOM     10  H   UNL     1       2.767   7.806  17.423  0.00  0.00    +0.000 HD
ENDROOT
BRANCH   1  17
ATOM     11  C   UNL     1      -0.839  12.879  17.805  0.00  0.00    +0.000 C 
ATOM     12  N   UNL     1       0.164  13.360  18.734  0.00  0.00    +0.000 N 
ATOM     13  C   UNL     1       0.344  14.720  18.942  0.00  0.00    +0.000 C 
ATOM     14  O   UNL     1      -0.402  15.617  18.580  0.00  0.00    +0.000 OA
ATOM     15  C   UNL     1       1.642  14.936  19.679  0.00  0.00    +0.000 C 
ATOM     16  C   UNL     1       2.304  13.567  19.738  0.00  0.00    +0.000 C 
ATOM     17  C   UNL     1       1.410  12.661  18.904  0.00  0.00    +0.000 C 
ENDBRANCH   1  17
BRANCH   5  18
ATOM     18  C   UNL     1       3.051   5.535  18.829  0.00  0.00    +0.000 A 
ATOM     19  C   UNL     1       4.265   5.172  19.393  0.00  0.00    +0.000 A 
ATOM     20  C   UNL     1       4.883   4.009  18.941  0.00  0.00    +0.000 A 
ATOM     21  C   UNL     1       4.272   3.255  17.945  0.00  0.00    +0.000 A 
ATOM     22  C   UNL     1       3.063   3.696  17.436  0.00  0.00    +0.000 A 
ATOM     23  N   UNL     1       2.439   4.818  17.854  0.00  0.00    +0.000 NA
ENDBRANCH   5  18
BRANCH   9  24
ATOM     24  O   UNL     1       0.390  11.864  21.561  0.00  0.00    +0.000 OA
BRANCH  24  25
ATOM     25  C   UNL     1      -0.955  12.005  21.840  0.00  0.00    +0.000 A 
ATOM     26  C   UNL     1      -1.899  12.478  20.924  0.00  0.00    +0.000 A 
ATOM     27  C   UNL     1      -3.201  12.745  21.349  0.00  0.00    +0.000 A 
ATOM     28  C   UNL     1      -3.517  12.468  22.670  0.00  0.00    +0.000 A 
ATOM     29  N   UNL     1      -2.677  11.882  23.562  0.00  0.00    +0.000 NA
ATOM     30  C   UNL     1      -1.412  11.655  23.111  0.00  0.00    +0.000 A 
BRANCH  28  31
ATOM     31  S   UNL     1      -5.052  13.090  23.333  0.00  0.00    +0.000 S 
ATOM     32  C   UNL     1      -4.724  14.727  23.922  0.00  0.00    +0.000 C 
ATOM     33  O   UNL     1      -5.971  13.198  22.214  0.00  0.00    +0.000 OA
ATOM     34  O   UNL     1      -5.387  12.267  24.484  0.00  0.00    +0.000 OA
ENDBRANCH  28  31
ENDBRANCH  24  25
ENDBRANCH   9  24
TORSDOF 5
ENDMDL
MODEL 5
REMARK VINA RESULT:      -7.9      1.840      2.581
REMARK  Name = 
REMARK  7 active torsions:
REMARK  status: ('A' for Active; 'I' for Inactive)
REMARK    1  A    between atoms: C_1  and  N_2
REMARK    2  A    between atoms: C_7  and  C_8
REMARK    3  A    between atoms: C_12  and  C_13
REMARK    4  A    between atoms: C_22  and  O_23
REMARK    5  A    between atoms: O_23  and  C_24
REMARK    6  A    between atoms: C_27  and  S_28
REMARK    7  A    between atoms: S_28  and  C_29
REMARK                            x       y       z     vdW  Elec       q    Type
REMARK                         _______ _______ _______ _____ _____    ______ ____
ROOT
ATOM      1  C   UNL     1       0.016  12.277  20.734  0.00  0.00    +0.000 A 
ATOM      2  C   UNL     1       0.687  11.527  19.744  0.00  0.00    +0.000 A 
ATOM      3  C   UNL     1       0.855  10.160  19.944  0.00  0.00    +0.000 A 
ATOM      4  N   UNL     1       1.570   9.251  19.223  0.00  0.00    +0.000 N 
ATOM      5  C   UNL     1       1.609   8.036  19.863  0.00  0.00    +0.000 A 
ATOM      6  C   UNL     1       0.739   8.139  20.936  0.00  0.00    +0.000 A 
ATOM      7  C   UNL     1       0.283   9.485  21.013  0.00  0.00    +0.000 A 
ATOM      8  C   UNL     1      -0.520  10.207  21.916  0.00  0.00    +0.000 A 
ATOM      9  C   UNL     1      -0.575  11.616  21.835  0.00  0.00    +0.000 A 
ATOM     10  H   UNL     1       2.121   9.445  18.392  0.00  0.00    +0.000 HD
ENDROOT
BRANCH   1  17
ATOM     11  C   UNL     1       2.368  14.259  21.308  0.00  0.00    +0.000 C 
ATOM     12  N   UNL     1       1.333  14.348  20.297  0.00  0.00    +0.000 N 
ATOM     13  C   UNL     1       1.231  15.465  19.481  0.00  0.00    +0.000 C 
ATOM     14  O   UNL     1       2.062  16.351  19.355  0.00  0.00    +0.000 OA
ATOM     15  C   UNL     1      -0.101  15.437  18.775  0.00  0.00    +0.000 C 
ATOM     16  C   UNL     1      -0.858  14.268  19.388  0.00  0.00    +0.000 C 
ATOM     17  C   UNL     1       0.032  13.772  20.519  0.00  0.00    +0.000 C 
ENDBRANCH   1  17
BRANCH   5  18
ATOM     18  C   UNL     1       2.488   6.977  19.387  0.00  0.00    +0.000 A 
ATOM     19  C   UNL     1       3.187   7.066  18.192  0.00  0.00    +0.000 A 
ATOM     20  C   UNL     1       3.963   5.979  17.799  0.00  0.00    +0.000 A 
ATOM     21  C   UNL     1       4.013   4.848  18.606  0.00  0.00    +0.000 A 
ATOM     22  C   UNL     1       3.278   4.846  19.779  0.00  0.00    +0.000 A 
ATOM     23  N   UNL     1       2.517   5.883  20.189  0.00  0.00    +0.000 NA
ENDBRANCH   5  18
BRANCH   9  24
ATOM     24  O   UNL     1      -1.213  12.381  22.809  0.00  0.00    +0.000 OA
BRANCH  24  25
ATOM     25  C   UNL     1      -2.591  12.470  22.809  0.00  0.00    +0.000 A 
ATOM     26  C   UNL     1      -3.352  12.843  21.697  0.00  0.00    +0.000 A 
ATOM     27  C   UNL     1      -4.722  13.068  21.840  0.00  0.00    +0.000 A 
ATOM     28  C   UNL     1      -5.283  12.850  23.089  0.00  0.00    +0.000 A 
ATOM     29  N   UNL     1      -4.616  12.358  24.164  0.00  0.00    +0.000 NA
ATOM     30  C   UNL     1      -3.279  12.170  23.986  0.00  0.00    +0.000 A 
BRANCH  28  31
ATOM     31  S   UNL     1      -6.942  13.431  23.396  0.00  0.00    +0.000 S 
ATOM     32  C   UNL     1      -7.720  13.599  21.814  0.00  0.00    +0.000 C 
ATOM     33  O   UNL     1      -7.624  12.370  24.115  0.00  0.00    +0.000 OA
ATOM     34  O   UNL     1      -6.831  14.760  23.974  0.00  0.00    +0.000 OA
ENDBRANCH  28  31
ENDBRANCH  24  25
ENDBRANCH   9  24
TORSDOF 5
ENDMDL
MODEL 6
REMARK VINA RESULT:      -7.9      4.394      8.056
REMARK  Name = 
REMARK  7 active torsions:
REMARK  status: ('A' for Active; 'I' for Inactive)
REMARK    1  A    between atoms: C_1  and  N_2
REMARK    2  A    between atoms: C_7  and  C_8
REMARK    3  A    between atoms: C_12  and  C_13
REMARK    4  A    between atoms: C_22  and  O_23
REMARK    5  A    between atoms: O_23  and  C_24
REMARK    6  A    between atoms: C_27  and  S_28
REMARK    7  A    between atoms: S_28  and  C_29
REMARK                            x       y       z     vdW  Elec       q    Type
REMARK                         _______ _______ _______ _____ _____    ______ ____
ROOT
ATOM      1  C   UNL     1       3.388   3.958  18.557  0.00  0.00    +0.000 A 
ATOM      2  C   UNL     1       4.065   3.299  17.509  0.00  0.00    +0.000 A 
ATOM      3  C   UNL     1       4.893   4.046  16.677  0.00  0.00    +0.000 A 
ATOM      4  N   UNL     1       5.540   3.686  15.533  0.00  0.00    +0.000 N 
ATOM      5  C   UNL     1       6.117   4.778  14.929  0.00  0.00    +0.000 A 
ATOM      6  C   UNL     1       5.975   5.829  15.820  0.00  0.00    +0.000 A 
ATOM      7  C   UNL     1       5.177   5.384  16.912  0.00  0.00    +0.000 A 
ATOM      8  C   UNL     1       4.626   6.002  18.050  0.00  0.00    +0.000 A 
ATOM      9  C   UNL     1       3.657   5.321  18.818  0.00  0.00    +0.000 A 
ATOM     10  H   UNL     1       5.510   2.773  15.089  0.00  0.00    +0.000 HD
ENDROOT
BRANCH   1  17
ATOM     11  C   UNL     1       3.886   2.182  21.084  0.00  0.00    +0.000 C 
ATOM     12  N   UNL     1       2.677   2.874  20.687  0.00  0.00    +0.000 N 
ATOM     13  C   UNL     1       1.502   2.722  21.408  0.00  0.00    +0.000 C 
ATOM     14  O   UNL     1       1.387   2.213  22.512  0.00  0.00    +0.000 OA
ATOM     15  C   UNL     1       0.354   3.271  20.598  0.00  0.00    +0.000 C 
ATOM     16  C   UNL     1       0.947   3.613  19.239  0.00  0.00    +0.000 C 
ATOM     17  C   UNL     1       2.382   3.108  19.297  0.00  0.00    +0.000 C 
ENDBRANCH   1  17
BRANCH   5  18
ATOM     18  C   UNL     1       6.679   4.671  13.590  0.00  0.00    +0.000 A 
ATOM     19  C   UNL     1       6.325   3.661  12.709  0.00  0.00    +0.000 A 
ATOM     20  C   UNL     1       6.956   3.615  11.468  0.00  0.00    +0.000 A 
ATOM     21  C   UNL     1       7.913   4.573  11.154  0.00  0.00    +0.000 A 
ATOM     22  C   UNL     1       8.208   5.541  12.098  0.00  0.00    +0.000 A 
ATOM     23  N   UNL     1       7.613   5.613  13.309  0.00  0.00    +0.000 NA
ENDBRANCH   5  18
BRANCH   9  24
ATOM     24  O   UNL     1       2.959   5.954  19.845  0.00  0.00    +0.000 OA
BRANCH  24  25
ATOM     25  C   UNL     1       2.281   7.128  19.585  0.00  0.00    +0.000 A 
ATOM     26  C   UNL     1       2.181   7.709  18.316  0.00  0.00    +0.000 A 
ATOM     27  C   UNL     1       1.621   8.980  18.180  0.00  0.00    +0.000 A 
ATOM     28  C   UNL     1       1.129   9.591  19.323  0.00  0.00    +0.000 A 
ATOM     29  N   UNL     1       1.077   9.015  20.552  0.00  0.00    +0.000 NA
ATOM     30  C   UNL     1       1.651   7.783  20.643  0.00  0.00    +0.000 A 
BRANCH  28  31
ATOM     31  S   UNL     1       0.708  11.324  19.253  0.00  0.00    +0.000 S 
ATOM     32  C   UNL     1       0.650  11.900  20.927  0.00  0.00    +0.000 C 
ATOM     33  O   UNL     1       1.815  11.991  18.593  0.00  0.00    +0.000 OA
ATOM     34  O   UNL     1      -0.638  11.417  18.710  0.00  0.00    +0.000 OA
ENDBRANCH  28  31
ENDBRANCH  24  25
ENDBRANCH   9  24
TORSDOF 5
ENDMDL
MODEL 7
REMARK VINA RESULT:      -7.9      2.537      3.736
REMARK  Name = 
REMARK  7 active torsions:
REMARK  status: ('A' for Active; 'I' for Inactive)
REMARK    1  A    between atoms: C_1  and  N_2
REMARK    2  A    between atoms: C_7  and  C_8
REMARK    3  A    between atoms: C_12  and  C_13
REMARK    4  A    between atoms: C_22  and  O_23
REMARK    5  A    between atoms: O_23  and  C_24
REMARK    6  A    between atoms: C_27  and  S_28
REMARK    7  A    between atoms: S_28  and  C_29
REMARK                            x       y       z     vdW  Elec       q    Type
REMARK                         _______ _______ _______ _____ _____    ______ ____
ROOT
ATOM      1  C   UNL     1       1.025   9.902  20.424  0.00  0.00    +0.000 A 
ATOM      2  C   UNL     1       1.744   8.748  20.804  0.00  0.00    +0.000 A 
ATOM      3  C   UNL     1       2.033   7.794  19.833  0.00  0.00    +0.000 A 
ATOM      4  N   UNL     1       2.584   6.554  19.960  0.00  0.00    +0.000 N 
ATOM      5  C   UNL     1       2.540   5.871  18.769  0.00  0.00    +0.000 A 
ATOM      6  C   UNL     1       2.106   6.782  17.820  0.00  0.00    +0.000 A 
ATOM      7  C   UNL     1       1.755   7.989  18.487  0.00  0.00    +0.000 A 
ATOM      8  C   UNL     1       1.180   9.209  18.086  0.00  0.00    +0.000 A 
ATOM      9  C   UNL     1       0.726  10.125  19.060  0.00  0.00    +0.000 A 
ATOM     10  H   UNL     1       2.875   6.114  20.828  0.00  0.00    +0.000 HD
ENDROOT
BRANCH   1  17
ATOM     11  C   UNL     1       1.840  12.883  20.912  0.00  0.00    +0.000 C 
ATOM     12  N   UNL     1       0.613  12.206  21.283  0.00  0.00    +0.000 N 
ATOM     13  C   UNL     1      -0.356  12.853  22.036  0.00  0.00    +0.000 C 
ATOM     14  O   UNL     1      -0.412  14.050  22.275  0.00  0.00    +0.000 OA
ATOM     15  C   UNL     1      -1.343  11.833  22.547  0.00  0.00    +0.000 C 
ATOM     16  C   UNL     1      -0.761  10.481  22.161  0.00  0.00    +0.000 C 
ATOM     17  C   UNL     1       0.605  10.795  21.568  0.00  0.00    +0.000 C 
ENDBRANCH   1  17
BRANCH   5  18
ATOM     18  C   UNL     1       2.875   4.455  18.716  0.00  0.00    +0.000 A 
ATOM     19  C   UNL     1       3.910   3.903  19.457  0.00  0.00    +0.000 A 
ATOM     20  C   UNL     1       4.185   2.547  19.299  0.00  0.00    +0.000 A 
ATOM     21  C   UNL     1       3.425   1.795  18.410  0.00  0.00    +0.000 A 
ATOM     22  C   UNL     1       2.416   2.431  17.708  0.00  0.00    +0.000 A 
ATOM     23  N   UNL     1       2.124   3.744  17.839  0.00  0.00    +0.000 NA
ENDBRANCH   5  18
BRANCH   9  24
ATOM     24  O   UNL     1      -0.003  11.261  18.714  0.00  0.00    +0.000 OA
BRANCH  24  25
ATOM     25  C   UNL     1      -1.381  11.192  18.653  0.00  0.00    +0.000 A 
ATOM     26  C   UNL     1      -2.085  10.183  17.990  0.00  0.00    +0.000 A 
ATOM     27  C   UNL     1      -3.469  10.290  17.839  0.00  0.00    +0.000 A 
ATOM     28  C   UNL     1      -4.096  11.384  18.416  0.00  0.00    +0.000 A 
ATOM     29  N   UNL     1      -3.478  12.317  19.185  0.00  0.00    +0.000 NA
ATOM     30  C   UNL     1      -2.127  12.184  19.291  0.00  0.00    +0.000 A 
BRANCH  28  31
ATOM     31  S   UNL     1      -5.791  11.729  17.977  0.00  0.00    +0.000 S 
ATOM     32  C   UNL     1      -6.363  12.972  19.101  0.00  0.00    +0.000 C 
ATOM     33  O   UNL     1      -5.762  12.312  16.648  0.00  0.00    +0.000 OA
ATOM     34  O   UNL     1      -6.555  10.519  18.234  0.00  0.00    +0.000 OA
ENDBRANCH  28  31
ENDBRANCH  24  25
ENDBRANCH   9  24
TORSDOF 5
ENDMDL
MODEL 8
REMARK VINA RESULT:      -7.8      1.809      2.753
REMARK  Name = 
REMARK  7 active torsions:
REMARK  status: ('A' for Active; 'I' for Inactive)
REMARK    1  A    between atoms: C_1  and  N_2
REMARK    2  A    between atoms: C_7  and  C_8
REMARK    3  A    between atoms: C_12  and  C_13
REMARK    4  A    between atoms: C_22  and  O_23
REMARK    5  A    between atoms: O_23  and  C_24
REMARK    6  A    between atoms: C_27  and  S_28
REMARK    7  A    between atoms: S_28  and  C_29
REMARK                            x       y       z     vdW  Elec       q    Type
REMARK                         _______ _______ _______ _____ _____    ______ ____
ROOT
ATOM      1  C   UNL     1      -0.091  12.465  21.117  0.00  0.00    +0.000 A 
ATOM      2  C   UNL     1       0.463  11.632  20.121  0.00  0.00    +0.000 A 
ATOM      3  C   UNL     1       0.604  10.274  20.392  0.00  0.00    +0.000 A 
ATOM      4  N   UNL     1       1.221   9.296  19.670  0.00  0.00    +0.000 N 
ATOM      5  C   UNL     1       1.278   8.121  20.380  0.00  0.00    +0.000 A 
ATOM      6  C   UNL     1       0.513   8.322  21.517  0.00  0.00    +0.000 A 
ATOM      7  C   UNL     1       0.109   9.687  21.548  0.00  0.00    +0.000 A 
ATOM      8  C   UNL     1      -0.584  10.491  22.471  0.00  0.00    +0.000 A 
ATOM      9  C   UNL     1      -0.601  11.894  22.306  0.00  0.00    +0.000 A 
ATOM     10  H   UNL     1       1.700   9.419  18.783  0.00  0.00    +0.000 HD
ENDROOT
BRANCH   1  17
ATOM     11  C   UNL     1       2.346  14.403  21.426  0.00  0.00    +0.000 C 
ATOM     12  N   UNL     1       1.255  14.462  20.474  0.00  0.00    +0.000 N 
ATOM     13  C   UNL     1       1.135  15.530  19.596  0.00  0.00    +0.000 C 
ATOM     14  O   UNL     1       1.982  16.379  19.364  0.00  0.00    +0.000 OA
ATOM     15  C   UNL     1      -0.237  15.500  18.971  0.00  0.00    +0.000 C 
ATOM     16  C   UNL     1      -0.988  14.396  19.700  0.00  0.00    +0.000 C 
ATOM     17  C   UNL     1      -0.046  13.943  20.806  0.00  0.00    +0.000 C 
ENDBRANCH   1  17
BRANCH   5  18
ATOM     18  C   UNL     1       2.076   7.004  19.896  0.00  0.00    +0.000 A 
ATOM     19  C   UNL     1       2.127   5.782  20.552  0.00  0.00    +0.000 A 
ATOM     20  C   UNL     1       2.960   4.792  20.038  0.00  0.00    +0.000 A 
ATOM     21  C   UNL     1       3.710   5.054  18.897  0.00  0.00    +0.000 A 
ATOM     22  C   UNL     1       3.600   6.303  18.312  0.00  0.00    +0.000 A 
ATOM     23  N   UNL     1       2.801   7.285  18.785  0.00  0.00    +0.000 NA
ENDBRANCH   5  18
BRANCH   9  24
ATOM     24  O   UNL     1      -1.123  12.740  23.282  0.00  0.00    +0.000 OA
BRANCH  24  25
ATOM     25  C   UNL     1      -2.478  13.007  23.297  0.00  0.00    +0.000 A 
ATOM     26  C   UNL     1      -3.101  13.838  24.233  0.00  0.00    +0.000 A 
ATOM     27  C   UNL     1      -4.494  13.912  24.272  0.00  0.00    +0.000 A 
ATOM     28  C   UNL     1      -5.204  13.189  23.326  0.00  0.00    +0.000 A 
ATOM     29  N   UNL     1      -4.646  12.477  22.314  0.00  0.00    +0.000 NA
ATOM     30  C   UNL     1      -3.285  12.417  22.324  0.00  0.00    +0.000 A 
BRANCH  28  31
ATOM     31  S   UNL     1      -6.965  12.996  23.539  0.00  0.00    +0.000 S 
ATOM     32  C   UNL     1      -7.679  13.035  21.920  0.00  0.00    +0.000 C 
ATOM     33  O   UNL     1      -7.172  11.666  24.083  0.00  0.00    +0.000 OA
ATOM     34  O   UNL     1      -7.441  14.167  24.258  0.00  0.00    +0.000 OA
ENDBRANCH  28  31
ENDBRANCH  24  25
ENDBRANCH   9  24
TORSDOF 5
ENDMDL
MODEL 9
REMARK VINA RESULT:      -7.8      1.855      2.692
REMARK  Name = 
REMARK  7 active torsions:
REMARK  status: ('A' for Active; 'I' for Inactive)
REMARK    1  A    between atoms: C_1  and  N_2
REMARK    2  A    between atoms: C_7  and  C_8
REMARK    3  A    between atoms: C_12  and  C_13
REMARK    4  A    between atoms: C_22  and  O_23
REMARK    5  A    between atoms: O_23  and  C_24
REMARK    6  A    between atoms: C_27  and  S_28
REMARK    7  A    between atoms: S_28  and  C_29
REMARK                            x       y       z     vdW  Elec       q    Type
REMARK                         _______ _______ _______ _____ _____    ______ ____
ROOT
ATOM      1  C   UNL     1      -0.086  12.579  20.987  0.00  0.00    +0.000 A 
ATOM      2  C   UNL     1       0.543  11.763  20.022  0.00  0.00    +0.000 A 
ATOM      3  C   UNL     1       0.650  10.398  20.272  0.00  0.00    +0.000 A 
ATOM      4  N   UNL     1       1.317   9.431  19.581  0.00  0.00    +0.000 N 
ATOM      5  C   UNL     1       1.306   8.240  20.267  0.00  0.00    +0.000 A 
ATOM      6  C   UNL     1       0.450   8.423  21.341  0.00  0.00    +0.000 A 
ATOM      7  C   UNL     1       0.056   9.791  21.369  0.00  0.00    +0.000 A 
ATOM      8  C   UNL     1      -0.706  10.581  22.249  0.00  0.00    +0.000 A 
ATOM      9  C   UNL     1      -0.698  11.987  22.115  0.00  0.00    +0.000 A 
ATOM     10  H   UNL     1       1.869   9.568  18.741  0.00  0.00    +0.000 HD
ENDROOT
BRANCH   1  17
ATOM     11  C   UNL     1       2.270  14.516  21.684  0.00  0.00    +0.000 C 
ATOM     12  N   UNL     1       1.329  14.591  20.585  0.00  0.00    +0.000 N 
ATOM     13  C   UNL     1       1.333  15.676  19.719  0.00  0.00    +0.000 C 
ATOM     14  O   UNL     1       2.200  16.532  19.630  0.00  0.00    +0.000 OA
ATOM     15  C   UNL     1       0.066  15.656  18.901  0.00  0.00    +0.000 C 
ATOM     16  C   UNL     1      -0.777  14.536  19.491  0.00  0.00    +0.000 C 
ATOM     17  C   UNL     1      -0.004  14.063  20.714  0.00  0.00    +0.000 C 
ENDBRANCH   1  17
BRANCH   5  18
ATOM     18  C   UNL     1       2.133   7.125  19.827  0.00  0.00    +0.000 A 
ATOM     19  C   UNL     1       2.909   7.178  18.679  0.00  0.00    +0.000 A 
ATOM     20  C   UNL     1       3.626   6.042  18.314  0.00  0.00    +0.000 A 
ATOM     21  C   UNL     1       3.542   4.899  19.101  0.00  0.00    +0.000 A 
ATOM     22  C   UNL     1       2.737   4.935  20.226  0.00  0.00    +0.000 A 
ATOM     23  N   UNL     1       2.030   6.021  20.607  0.00  0.00    +0.000 NA
ENDBRANCH   5  18
BRANCH   9  24
ATOM     24  O   UNL     1      -1.293  12.817  23.063  0.00  0.00    +0.000 OA
BRANCH  24  25
ATOM     25  C   UNL     1      -2.669  12.930  23.101  0.00  0.00    +0.000 A 
ATOM     26  C   UNL     1      -3.428  12.864  24.273  0.00  0.00    +0.000 A 
ATOM     27  C   UNL     1      -4.820  12.819  24.194  0.00  0.00    +0.000 A 
ATOM     28  C   UNL     1      -5.396  12.902  22.935  0.00  0.00    +0.000 A 
ATOM     29  N   UNL     1      -4.712  13.103  21.780  0.00  0.00    +0.000 NA
ATOM     30  C   UNL     1      -3.355  13.123  21.901  0.00  0.00    +0.000 A 
BRANCH  28  31
ATOM     31  S   UNL     1      -7.131  12.524  22.761  0.00  0.00    +0.000 S 
ATOM     32  C   UNL     1      -7.906  13.983  22.124  0.00  0.00    +0.000 C 
ATOM     33  O   UNL     1      -7.229  11.491  21.746  0.00  0.00    +0.000 OA
ATOM     34  O   UNL     1      -7.657  12.296  24.097  0.00  0.00    +0.000 OA
ENDBRANCH  28  31
ENDBRANCH  24  25
ENDBRANCH   9  24
TORSDOF 5
ENDMDL
