MODEL 1
REMARK VINA RESULT:      -7.6      0.000      0.000
REMARK  Name = 
REMARK  8 active torsions:
REMARK  status: ('A' for Active; 'I' for Inactive)
REMARK    1  A    between atoms: C_1  and  O_2
REMARK    2  A    between atoms: O_2  and  C_3
REMARK    3  A    between atoms: C_7  and  C_8
REMARK    4  A    between atoms: C_8  and  O_9
REMARK    5  A    between atoms: O_9  and  C_10
REMARK    6  A    between atoms: N_18  and  N_19
REMARK    7  A    between atoms: C_24  and  O_25
REMARK    8  A    between atoms: O_25  and  C_26
REMARK                            x       y       z     vdW  Elec       q    Type
REMARK                         _______ _______ _______ _____ _____    ______ ____
ROOT
ATOM      1  C   UNL     1       6.178   5.674  16.843  0.00  0.00    +0.000 A 
ATOM      2  C   UNL     1       5.336   6.249  17.802  0.00  0.00    +0.000 A 
ATOM      3  C   UNL     1       4.202   5.580  18.257  0.00  0.00    +0.000 A 
ATOM      4  N   UNL     1       3.417   6.205  19.235  0.00  0.00    +0.000 NA
ATOM      5  C   UNL     1       2.343   5.603  19.646  0.00  0.00    +0.000 A 
ATOM      6  N   UNL     1       1.940   4.369  19.160  0.00  0.00    +0.000 N 
ATOM      7  C   UNL     1       2.688   3.656  18.213  0.00  0.00    +0.000 A 
ATOM      8  O   UNL     1       2.377   2.535  17.807  0.00  0.00    +0.000 OA
ATOM      9  C   UNL     1       3.905   4.331  17.723  0.00  0.00    +0.000 A 
ATOM     10  C   UNL     1       4.719   3.745  16.740  0.00  0.00    +0.000 A 
ATOM     11  C   UNL     1       5.860   4.415  16.295  0.00  0.00    +0.000 A 
ENDROOT
BRANCH   6  12
ATOM     12  N   UNL     1       0.715   3.778  19.585  0.00  0.00    +0.000 N 
ATOM     13  H   UNL     1       0.953   2.951  20.139  0.00  0.00    +0.000 HD
ATOM     14  H   UNL     1       0.274   3.401  18.737  0.00  0.00    +0.000 HD
ENDBRANCH   6  12
BRANCH   1  16
ATOM     15  C   UNL     1       7.706   7.461  17.107  0.00  0.00    +0.000 C 
ATOM     16  O   UNL     1       7.307   6.304  16.375  0.00  0.00    +0.000 OA
ENDBRANCH   1  16
BRANCH  11  17
ATOM     17  O   UNL     1       6.717   3.924  15.342  0.00  0.00    +0.000 OA
ATOM     18  C   UNL     1       6.295   3.981  13.985  0.00  0.00    +0.000 C 
ENDBRANCH  11  17
BRANCH   5  19
ATOM     19  C   UNL     1       1.497   6.279  20.722  0.00  0.00    +0.000 C 
BRANCH  19  20
ATOM     20  O   UNL     1       2.011   7.598  20.911  0.00  0.00    +0.000 OA
BRANCH  20  21
ATOM     21  C   UNL     1       1.108   8.621  21.055  0.00  0.00    +0.000 A 
ATOM     22  C   UNL     1       0.475   8.955  22.257  0.00  0.00    +0.000 A 
ATOM     23  C   UNL     1      -0.412  10.037  22.314  0.00  0.00    +0.000 A 
ATOM     24  C   UNL     1      -0.676  10.786  21.171  0.00  0.00    +0.000 A 
ATOM     25 CL   UNL     1      -1.760  12.119  21.254  0.00  0.00    +0.000 Cl
ATOM     26  C   UNL     1      -0.066  10.465  19.964  0.00  0.00    +0.000 A 
ATOM     27  C   UNL     1       0.822   9.386  19.909  0.00  0.00    +0.000 A 
ATOM     28 CL   UNL     1       1.559   9.029  18.385  0.00  0.00    +0.000 Cl
ENDBRANCH  20  21
ENDBRANCH  19  20
ENDBRANCH   5  19
TORSDOF 6
ENDMDL
MODEL 2
REMARK VINA RESULT:      -7.4      1.140      1.606
REMARK  Name = 
REMARK  8 active torsions:
REMARK  status: ('A' for Active; 'I' for Inactive)
REMARK    1  A    between atoms: C_1  and  O_2
REMARK    2  A    between atoms: O_2  and  C_3
REMARK    3  A    between atoms: C_7  and  C_8
REMARK    4  A    between atoms: C_8  and  O_9
REMARK    5  A    between atoms: O_9  and  C_10
REMARK    6  A    between atoms: N_18  and  N_19
REMARK    7  A    between atoms: C_24  and  O_25
REMARK    8  A    between atoms: O_25  and  C_26
REMARK                            x       y       z     vdW  Elec       q    Type
REMARK                         _______ _______ _______ _____ _____    ______ ____
ROOT
ATOM      1  C   UNL     1       6.168   5.787  16.888  0.00  0.00    +0.000 A 
ATOM      2  C   UNL     1       5.307   6.369  17.825  0.00  0.00    +0.000 A 
ATOM      3  C   UNL     1       4.187   5.687  18.293  0.00  0.00    +0.000 A 
ATOM      4  N   UNL     1       3.380   6.320  19.248  0.00  0.00    +0.000 NA
ATOM      5  C   UNL     1       2.318   5.704  19.670  0.00  0.00    +0.000 A 
ATOM      6  N   UNL     1       1.947   4.448  19.216  0.00  0.00    +0.000 N 
ATOM      7  C   UNL     1       2.719   3.726  18.294  0.00  0.00    +0.000 A 
ATOM      8  O   UNL     1       2.436   2.587  17.918  0.00  0.00    +0.000 OA
ATOM      9  C   UNL     1       3.922   4.416  17.792  0.00  0.00    +0.000 A 
ATOM     10  C   UNL     1       4.756   3.822  16.831  0.00  0.00    +0.000 A 
ATOM     11  C   UNL     1       5.884   4.506  16.374  0.00  0.00    +0.000 A 
ENDROOT
BRANCH   6  12
ATOM     12  N   UNL     1       0.734   3.840  19.651  0.00  0.00    +0.000 N 
ATOM     13  H   UNL     1       0.061   3.923  18.885  0.00  0.00    +0.000 HD
ATOM     14  H   UNL     1       0.361   4.452  20.388  0.00  0.00    +0.000 HD
ENDBRANCH   6  12
BRANCH   1  16
ATOM     15  C   UNL     1       7.745   7.523  17.202  0.00  0.00    +0.000 C 
ATOM     16  O   UNL     1       7.285   6.431  16.409  0.00  0.00    +0.000 OA
ENDBRANCH   1  16
BRANCH  11  17
ATOM     17  O   UNL     1       6.759   4.009  15.441  0.00  0.00    +0.000 OA
ATOM     18  C   UNL     1       6.317   3.956  14.089  0.00  0.00    +0.000 C 
ENDBRANCH  11  17
BRANCH   5  19
ATOM     19  C   UNL     1       1.450   6.390  20.721  0.00  0.00    +0.000 C 
BRANCH  19  20
ATOM     20  O   UNL     1       1.898   7.740  20.839  0.00  0.00    +0.000 OA
BRANCH  20  21
ATOM     21  C   UNL     1       1.181   8.711  20.188  0.00  0.00    +0.000 A 
ATOM     22  C   UNL     1       1.350   9.053  18.842  0.00  0.00    +0.000 A 
ATOM     23  C   UNL     1       0.549  10.041  18.254  0.00  0.00    +0.000 A 
ATOM     24  C   UNL     1      -0.419  10.696  19.009  0.00  0.00    +0.000 A 
ATOM     25 CL   UNL     1      -1.404  11.900  18.276  0.00  0.00    +0.000 Cl
ATOM     26  C   UNL     1      -0.597  10.379  20.351  0.00  0.00    +0.000 A 
ATOM     27  C   UNL     1       0.200   9.391  20.936  0.00  0.00    +0.000 A 
ATOM     28 CL   UNL     1      -0.063   9.030  22.608  0.00  0.00    +0.000 Cl
ENDBRANCH  20  21
ENDBRANCH  19  20
ENDBRANCH   5  19
TORSDOF 6
ENDMDL
MODEL 3
REMARK VINA RESULT:      -7.3      3.252      7.737
REMARK  Name = 
REMARK  8 active torsions:
REMARK  status: ('A' for Active; 'I' for Inactive)
REMARK    1  A    between atoms: C_1  and  O_2
REMARK    2  A    between atoms: O_2  and  C_3
REMARK    3  A    between atoms: C_7  and  C_8
REMARK    4  A    between atoms: C_8  and  O_9
REMARK    5  A    between atoms: O_9  and  C_10
REMARK    6  A    between atoms: N_18  and  N_19
REMARK    7  A    between atoms: C_24  and  O_25
REMARK    8  A    between atoms: O_25  and  C_26
REMARK                            x       y       z     vdW  Elec       q    Type
REMARK                         _______ _______ _______ _____ _____    ______ ____
ROOT
ATOM      1  C   UNL     1       1.588   8.837  19.264  0.00  0.00    +0.000 A 
ATOM      2  C   UNL     1       2.059   7.889  18.348  0.00  0.00    +0.000 A 
ATOM      3  C   UNL     1       2.317   6.578  18.739  0.00  0.00    +0.000 A 
ATOM      4  N   UNL     1       2.764   5.675  17.765  0.00  0.00    +0.000 NA
ATOM      5  C   UNL     1       3.034   4.458  18.124  0.00  0.00    +0.000 A 
ATOM      6  N   UNL     1       2.900   4.012  19.430  0.00  0.00    +0.000 N 
ATOM      7  C   UNL     1       2.418   4.835  20.457  0.00  0.00    +0.000 A 
ATOM      8  O   UNL     1       2.240   4.445  21.612  0.00  0.00    +0.000 OA
ATOM      9  C   UNL     1       2.120   6.228  20.070  0.00  0.00    +0.000 A 
ATOM     10  C   UNL     1       1.674   7.167  21.014  0.00  0.00    +0.000 A 
ATOM     11  C   UNL     1       1.407   8.478  20.615  0.00  0.00    +0.000 A 
ENDROOT
BRANCH   6  12
ATOM     12  N   UNL     1       3.278   2.687  19.794  0.00  0.00    +0.000 N 
ATOM     13  H   UNL     1       3.170   2.100  18.963  0.00  0.00    +0.000 HD
ATOM     14  H   UNL     1       2.551   2.354  20.440  0.00  0.00    +0.000 HD
ENDBRANCH   6  12
BRANCH   1  16
ATOM     15  C   UNL     1       0.006  10.374  18.407  0.00  0.00    +0.000 C 
ATOM     16  O   UNL     1       1.319  10.138  18.911  0.00  0.00    +0.000 OA
ENDBRANCH   1  16
BRANCH  11  17
ATOM     17  O   UNL     1       0.966   9.464  21.461  0.00  0.00    +0.000 OA
ATOM     18  C   UNL     1      -0.194   9.194  22.239  0.00  0.00    +0.000 C 
ENDBRANCH  11  17
BRANCH   5  19
ATOM     19  C   UNL     1       3.508   3.474  17.058  0.00  0.00    +0.000 C 
BRANCH  19  20
ATOM     20  O   UNL     1       4.933   3.413  17.126  0.00  0.00    +0.000 OA
BRANCH  20  21
ATOM     21  C   UNL     1       5.644   3.862  16.042  0.00  0.00    +0.000 A 
ATOM     22  C   UNL     1       5.272   3.656  14.710  0.00  0.00    +0.000 A 
ATOM     23  C   UNL     1       6.048   4.179  13.667  0.00  0.00    +0.000 A 
ATOM     24  C   UNL     1       7.202   4.904  13.951  0.00  0.00    +0.000 A 
ATOM     25 CL   UNL     1       8.142   5.550  12.664  0.00  0.00    +0.000 Cl
ATOM     26  C   UNL     1       7.596   5.111  15.267  0.00  0.00    +0.000 A 
ATOM     27  C   UNL     1       6.819   4.592  16.307  0.00  0.00    +0.000 A 
ATOM     28 CL   UNL     1       7.348   4.881  17.929  0.00  0.00    +0.000 Cl
ENDBRANCH  20  21
ENDBRANCH  19  20
ENDBRANCH   5  19
TORSDOF 6
ENDMDL
MODEL 4
REMARK VINA RESULT:      -7.2      3.093      6.815
REMARK  Name = 
REMARK  8 active torsions:
REMARK  status: ('A' for Active; 'I' for Inactive)
REMARK    1  A    between atoms: C_1  and  O_2
REMARK    2  A    between atoms: O_2  and  C_3
REMARK    3  A    between atoms: C_7  and  C_8
REMARK    4  A    between atoms: C_8  and  O_9
REMARK    5  A    between atoms: O_9  and  C_10
REMARK    6  A    between atoms: N_18  and  N_19
REMARK    7  A    between atoms: C_24  and  O_25
REMARK    8  A    between atoms: O_25  and  C_26
REMARK                            x       y       z     vdW  Elec       q    Type
REMARK                         _______ _______ _______ _____ _____    ______ ____
ROOT
ATOM      1  C   UNL     1       1.590   8.865  19.360  0.00  0.00    +0.000 A 
ATOM      2  C   UNL     1       2.148   7.998  18.413  0.00  0.00    +0.000 A 
ATOM      3  C   UNL     1       2.423   6.670  18.729  0.00  0.00    +0.000 A 
ATOM      4  N   UNL     1       2.959   5.851  17.725  0.00  0.00    +0.000 NA
ATOM      5  C   UNL     1       3.245   4.619  18.017  0.00  0.00    +0.000 A 
ATOM      6  N   UNL     1       3.042   4.078  19.277  0.00  0.00    +0.000 N 
ATOM      7  C   UNL     1       2.471   4.813  20.325  0.00  0.00    +0.000 A 
ATOM      8  O   UNL     1       2.233   4.336  21.436  0.00  0.00    +0.000 OA
ATOM      9  C   UNL     1       2.153   6.220  20.017  0.00  0.00    +0.000 A 
ATOM     10  C   UNL     1       1.619   7.077  20.993  0.00  0.00    +0.000 A 
ATOM     11  C   UNL     1       1.336   8.405  20.668  0.00  0.00    +0.000 A 
ENDROOT
BRANCH   6  12
ATOM     12  N   UNL     1       3.439   2.741  19.573  0.00  0.00    +0.000 N 
ATOM     13  H   UNL     1       3.204   2.167  18.759  0.00  0.00    +0.000 HD
ATOM     14  H   UNL     1       2.802   2.415  20.310  0.00  0.00    +0.000 HD
ENDBRANCH   6  12
BRANCH   1  16
ATOM     15  C   UNL     1       2.096  10.772  18.055  0.00  0.00    +0.000 C 
ATOM     16  O   UNL     1       1.302  10.180  19.081  0.00  0.00    +0.000 OA
ENDBRANCH   1  16
BRANCH  11  17
ATOM     17  O   UNL     1       0.811   9.317  21.550  0.00  0.00    +0.000 OA
ATOM     18  C   UNL     1      -0.452   9.017  22.133  0.00  0.00    +0.000 C 
ENDBRANCH  11  17
BRANCH   5  19
ATOM     19  C   UNL     1       3.816   3.727  16.918  0.00  0.00    +0.000 C 
BRANCH  19  20
ATOM     20  O   UNL     1       5.197   3.512  17.208  0.00  0.00    +0.000 OA
BRANCH  20  21
ATOM     21  C   UNL     1       5.955   4.602  17.553  0.00  0.00    +0.000 A 
ATOM     22  C   UNL     1       6.431   4.860  18.843  0.00  0.00    +0.000 A 
ATOM     23  C   UNL     1       7.224   5.987  19.094  0.00  0.00    +0.000 A 
ATOM     24  C   UNL     1       7.539   6.865  18.061  0.00  0.00    +0.000 A 
ATOM     25 CL   UNL     1       8.521   8.240  18.379  0.00  0.00    +0.000 Cl
ATOM     26  C   UNL     1       7.067   6.633  16.774  0.00  0.00    +0.000 A 
ATOM     27  C   UNL     1       6.279   5.507  16.523  0.00  0.00    +0.000 A 
ATOM     28 CL   UNL     1       5.720   5.260  14.904  0.00  0.00    +0.000 Cl
ENDBRANCH  20  21
ENDBRANCH  19  20
ENDBRANCH   5  19
TORSDOF 6
ENDMDL
MODEL 5
REMARK VINA RESULT:      -6.9      2.992      4.970
REMARK  Name = 
REMARK  8 active torsions:
REMARK  status: ('A' for Active; 'I' for Inactive)
REMARK    1  A    between atoms: C_1  and  O_2
REMARK    2  A    between atoms: O_2  and  C_3
REMARK    3  A    between atoms: C_7  and  C_8
REMARK    4  A    between atoms: C_8  and  O_9
REMARK    5  A    between atoms: O_9  and  C_10
REMARK    6  A    between atoms: N_18  and  N_19
REMARK    7  A    between atoms: C_24  and  O_25
REMARK    8  A    between atoms: O_25  and  C_26
REMARK                            x       y       z     vdW  Elec       q    Type
REMARK                         _______ _______ _______ _____ _____    ______ ____
ROOT
ATOM      1  C   UNL     1       2.566   4.671  20.404  0.00  0.00    +0.000 A 
ATOM      2  C   UNL     1       1.883   5.835  20.777  0.00  0.00    +0.000 A 
ATOM      3  C   UNL     1       1.906   6.971  19.971  0.00  0.00    +0.000 A 
ATOM      4  N   UNL     1       1.180   8.093  20.393  0.00  0.00    +0.000 NA
ATOM      5  C   UNL     1       1.217   9.166  19.664  0.00  0.00    +0.000 A 
ATOM      6  N   UNL     1       1.943   9.250  18.486  0.00  0.00    +0.000 N 
ATOM      7  C   UNL     1       2.661   8.162  17.969  0.00  0.00    +0.000 A 
ATOM      8  O   UNL     1       3.268   8.198  16.898  0.00  0.00    +0.000 OA
ATOM      9  C   UNL     1       2.643   6.938  18.792  0.00  0.00    +0.000 A 
ATOM     10  C   UNL     1       3.358   5.792  18.410  0.00  0.00    +0.000 A 
ATOM     11  C   UNL     1       3.324   4.652  19.216  0.00  0.00    +0.000 A 
ENDROOT
BRANCH   6  12
ATOM     12  N   UNL     1       2.015  10.471  17.755  0.00  0.00    +0.000 N 
ATOM     13  H   UNL     1       1.589  11.198  18.335  0.00  0.00    +0.000 HD
ATOM     14  H   UNL     1       1.370  10.363  16.962  0.00  0.00    +0.000 HD
ENDBRANCH   6  12
BRANCH   1  16
ATOM     15  C   UNL     1       1.302   2.867  21.270  0.00  0.00    +0.000 C 
ATOM     16  O   UNL     1       2.561   3.532  21.174  0.00  0.00    +0.000 OA
ENDBRANCH   1  16
BRANCH  11  17
ATOM     17  O   UNL     1       3.987   3.486  18.928  0.00  0.00    +0.000 OA
ATOM     18  C   UNL     1       3.999   3.055  17.571  0.00  0.00    +0.000 C 
ENDBRANCH  11  17
BRANCH   5  19
ATOM     19  C   UNL     1       0.415  10.382  20.119  0.00  0.00    +0.000 C 
BRANCH  19  20
ATOM     20  O   UNL     1      -0.033  11.069  18.951  0.00  0.00    +0.000 OA
BRANCH  20  21
ATOM     21  C   UNL     1      -1.367  10.999  18.640  0.00  0.00    +0.000 A 
ATOM     22  C   UNL     1      -1.943  10.007  17.840  0.00  0.00    +0.000 A 
ATOM     23  C   UNL     1      -3.324  10.002  17.601  0.00  0.00    +0.000 A 
ATOM     24  C   UNL     1      -4.133  10.990  18.154  0.00  0.00    +0.000 A 
ATOM     25 CL   UNL     1      -5.828  10.968  17.862  0.00  0.00    +0.000 Cl
ATOM     26  C   UNL     1      -3.579  11.992  18.943  0.00  0.00    +0.000 A 
ATOM     27  C   UNL     1      -2.202  11.994  19.184  0.00  0.00    +0.000 A 
ATOM     28 CL   UNL     1      -1.562  13.259  20.176  0.00  0.00    +0.000 Cl
ENDBRANCH  20  21
ENDBRANCH  19  20
ENDBRANCH   5  19
TORSDOF 6
ENDMDL
MODEL 6
REMARK VINA RESULT:      -6.8      2.634      4.620
REMARK  Name = 
REMARK  8 active torsions:
REMARK  status: ('A' for Active; 'I' for Inactive)
REMARK    1  A    between atoms: C_1  and  O_2
REMARK    2  A    between atoms: O_2  and  C_3
REMARK    3  A    between atoms: C_7  and  C_8
REMARK    4  A    between atoms: C_8  and  O_9
REMARK    5  A    between atoms: O_9  and  C_10
REMARK    6  A    between atoms: N_18  and  N_19
REMARK    7  A    between atoms: C_24  and  O_25
REMARK    8  A    between atoms: O_25  and  C_26
REMARK                            x       y       z     vdW  Elec       q    Type
REMARK                         _______ _______ _______ _____ _____    ______ ____
ROOT
ATOM      1  C   UNL     1       6.030   3.808  13.209  0.00  0.00    +0.000 A 
ATOM      2  C   UNL     1       5.280   3.412  14.322  0.00  0.00    +0.000 A 
ATOM      3  C   UNL     1       5.559   3.912  15.591  0.00  0.00    +0.000 A 
ATOM      4  N   UNL     1       4.752   3.491  16.657  0.00  0.00    +0.000 NA
ATOM      5  C   UNL     1       5.021   3.929  17.849  0.00  0.00    +0.000 A 
ATOM      6  N   UNL     1       6.069   4.795  18.113  0.00  0.00    +0.000 N 
ATOM      7  C   UNL     1       6.898   5.300  17.101  0.00  0.00    +0.000 A 
ATOM      8  O   UNL     1       7.801   6.112  17.306  0.00  0.00    +0.000 OA
ATOM      9  C   UNL     1       6.617   4.801  15.741  0.00  0.00    +0.000 A 
ATOM     10  C   UNL     1       7.402   5.193  14.644  0.00  0.00    +0.000 A 
ATOM     11  C   UNL     1       7.113   4.697  13.372  0.00  0.00    +0.000 A 
ENDROOT
BRANCH   6  12
ATOM     12  N   UNL     1       6.374   5.193  19.448  0.00  0.00    +0.000 N 
ATOM     13  H   UNL     1       5.505   5.533  19.869  0.00  0.00    +0.000 HD
ATOM     14  H   UNL     1       6.963   6.031  19.364  0.00  0.00    +0.000 HD
ENDBRANCH   6  12
BRANCH   1  16
ATOM     15  C   UNL     1       4.401   3.215  11.599  0.00  0.00    +0.000 C 
ATOM     16  O   UNL     1       5.780   3.338  11.941  0.00  0.00    +0.000 OA
ENDBRANCH   1  16
BRANCH  11  17
ATOM     17  O   UNL     1       7.818   5.022  12.241  0.00  0.00    +0.000 OA
ATOM     18  C   UNL     1       8.568   6.231  12.259  0.00  0.00    +0.000 C 
ENDBRANCH  11  17
BRANCH   5  19
ATOM     19  C   UNL     1       4.132   3.479  19.005  0.00  0.00    +0.000 C 
BRANCH  19  20
ATOM     20  O   UNL     1       2.807   3.939  18.739  0.00  0.00    +0.000 OA
BRANCH  20  21
ATOM     21  C   UNL     1       2.460   5.186  19.192  0.00  0.00    +0.000 A 
ATOM     22  C   UNL     1       2.668   6.373  18.482  0.00  0.00    +0.000 A 
ATOM     23  C   UNL     1       2.252   7.601  19.014  0.00  0.00    +0.000 A 
ATOM     24  C   UNL     1       1.635   7.649  20.261  0.00  0.00    +0.000 A 
ATOM     25 CL   UNL     1       1.121   9.160  20.901  0.00  0.00    +0.000 Cl
ATOM     26  C   UNL     1       1.429   6.483  20.988  0.00  0.00    +0.000 A 
ATOM     27  C   UNL     1       1.840   5.258  20.455  0.00  0.00    +0.000 A 
ATOM     28 CL   UNL     1       1.558   3.834  21.397  0.00  0.00    +0.000 Cl
ENDBRANCH  20  21
ENDBRANCH  19  20
ENDBRANCH   5  19
TORSDOF 6
ENDMDL
MODEL 7
REMARK VINA RESULT:      -6.8      4.637      8.986
REMARK  Name = 
REMARK  8 active torsions:
REMARK  status: ('A' for Active; 'I' for Inactive)
REMARK    1  A    between atoms: C_1  and  O_2
REMARK    2  A    between atoms: O_2  and  C_3
REMARK    3  A    between atoms: C_7  and  C_8
REMARK    4  A    between atoms: C_8  and  O_9
REMARK    5  A    between atoms: O_9  and  C_10
REMARK    6  A    between atoms: N_18  and  N_19
REMARK    7  A    between atoms: C_24  and  O_25
REMARK    8  A    between atoms: O_25  and  C_26
REMARK                            x       y       z     vdW  Elec       q    Type
REMARK                         _______ _______ _______ _____ _____    ______ ____
ROOT
ATOM      1  C   UNL     1      -3.466  10.636  16.377  0.00  0.00    +0.000 A 
ATOM      2  C   UNL     1      -2.186  10.111  16.591  0.00  0.00    +0.000 A 
ATOM      3  C   UNL     1      -1.493  10.368  17.771  0.00  0.00    +0.000 A 
ATOM      4  N   UNL     1      -0.226   9.791  17.930  0.00  0.00    +0.000 NA
ATOM      5  C   UNL     1       0.441  10.047  19.014  0.00  0.00    +0.000 A 
ATOM      6  N   UNL     1      -0.046  10.866  20.021  0.00  0.00    +0.000 N 
ATOM      7  C   UNL     1      -1.320  11.448  19.963  0.00  0.00    +0.000 A 
ATOM      8  O   UNL     1      -1.794  12.135  20.870  0.00  0.00    +0.000 OA
ATOM      9  C   UNL     1      -2.087  11.181  18.731  0.00  0.00    +0.000 A 
ATOM     10  C   UNL     1      -3.358  11.741  18.528  0.00  0.00    +0.000 A 
ATOM     11  C   UNL     1      -4.054  11.472  17.348  0.00  0.00    +0.000 A 
ENDROOT
BRANCH   6  12
ATOM     12  N   UNL     1       0.751  11.180  21.161  0.00  0.00    +0.000 N 
ATOM     13  H   UNL     1       0.112  11.456  21.911  0.00  0.00    +0.000 HD
ATOM     14  H   UNL     1       1.256  12.042  20.922  0.00  0.00    +0.000 HD
ENDBRANCH   6  12
BRANCH   1  16
ATOM     15  C   UNL     1      -3.398  10.047  14.086  0.00  0.00    +0.000 C 
ATOM     16  O   UNL     1      -4.180  10.398  15.226  0.00  0.00    +0.000 OA
ENDBRANCH   1  16
BRANCH  11  17
ATOM     17  O   UNL     1      -5.299  11.970  17.058  0.00  0.00    +0.000 OA
ATOM     18  C   UNL     1      -6.381  11.557  17.886  0.00  0.00    +0.000 C 
ENDBRANCH  11  17
BRANCH   5  19
ATOM     19  C   UNL     1       1.815   9.406  19.190  0.00  0.00    +0.000 C 
BRANCH  19  20
ATOM     20  O   UNL     1       1.628   7.993  19.266  0.00  0.00    +0.000 OA
BRANCH  20  21
ATOM     21  C   UNL     1       2.602   7.190  18.730  0.00  0.00    +0.000 A 
ATOM     22  C   UNL     1       3.403   7.537  17.638  0.00  0.00    +0.000 A 
ATOM     23  C   UNL     1       4.395   6.661  17.178  0.00  0.00    +0.000 A 
ATOM     24  C   UNL     1       4.585   5.431  17.802  0.00  0.00    +0.000 A 
ATOM     25 CL   UNL     1       5.811   4.367  17.235  0.00  0.00    +0.000 Cl
ATOM     26  C   UNL     1       3.792   5.061  18.882  0.00  0.00    +0.000 A 
ATOM     27  C   UNL     1       2.806   5.938  19.343  0.00  0.00    +0.000 A 
ATOM     28 CL   UNL     1       1.848   5.433  20.693  0.00  0.00    +0.000 Cl
ENDBRANCH  20  21
ENDBRANCH  19  20
ENDBRANCH   5  19
TORSDOF 6
ENDMDL
MODEL 8
REMARK VINA RESULT:      -6.8      2.600      4.462
REMARK  Name = 
REMARK  8 active torsions:
REMARK  status: ('A' for Active; 'I' for Inactive)
REMARK    1  A    between atoms: C_1  and  O_2
REMARK    2  A    between atoms: O_2  and  C_3
REMARK    3  A    between atoms: C_7  and  C_8
REMARK    4  A    between atoms: C_8  and  O_9
REMARK    5  A    between atoms: O_9  and  C_10
REMARK    6  A    between atoms: N_18  and  N_19
REMARK    7  A    between atoms: C_24  and  O_25
REMARK    8  A    between atoms: O_25  and  C_26
REMARK                            x       y       z     vdW  Elec       q    Type
REMARK                         _______ _______ _______ _____ _____    ______ ____
ROOT
ATOM      1  C   UNL     1       2.802   4.435  19.733  0.00  0.00    +0.000 A 
ATOM      2  C   UNL     1       2.230   5.399  20.573  0.00  0.00    +0.000 A 
ATOM      3  C   UNL     1       1.990   6.694  20.121  0.00  0.00    +0.000 A 
ATOM      4  N   UNL     1       1.394   7.601  21.007  0.00  0.00    +0.000 NA
ATOM      5  C   UNL     1       1.191   8.819  20.605  0.00  0.00    +0.000 A 
ATOM      6  N   UNL     1       1.538   9.260  19.338  0.00  0.00    +0.000 N 
ATOM      7  C   UNL     1       2.099   8.409  18.375  0.00  0.00    +0.000 A 
ATOM      8  O   UNL     1       2.366   8.767  17.227  0.00  0.00    +0.000 OA
ATOM      9  C   UNL     1       2.351   7.024  18.819  0.00  0.00    +0.000 A 
ATOM     10  C   UNL     1       2.951   6.083  17.966  0.00  0.00    +0.000 A 
ATOM     11  C   UNL     1       3.180   4.783  18.420  0.00  0.00    +0.000 A 
ENDROOT
BRANCH   6  12
ATOM     12  N   UNL     1       1.365  10.624  18.964  0.00  0.00    +0.000 N 
ATOM     13  H   UNL     1       0.797  11.068  19.690  0.00  0.00    +0.000 HD
ATOM     14  H   UNL     1       0.759  10.614  18.134  0.00  0.00    +0.000 HD
ENDBRANCH   6  12
BRANCH   1  16
ATOM     15  C   UNL     1       2.449   2.779  21.386  0.00  0.00    +0.000 C 
ATOM     16  O   UNL     1       3.049   3.147  20.145  0.00  0.00    +0.000 OA
ENDBRANCH   1  16
BRANCH  11  17
ATOM     17  O   UNL     1       3.757   3.795  17.663  0.00  0.00    +0.000 OA
ATOM     18  C   UNL     1       4.709   4.189  16.683  0.00  0.00    +0.000 C 
ENDBRANCH  11  17
BRANCH   5  19
ATOM     19  C   UNL     1       0.528   9.800  21.568  0.00  0.00    +0.000 C 
BRANCH  19  20
ATOM     20  O   UNL     1      -0.625  10.334  20.918  0.00  0.00    +0.000 OA
BRANCH  20  21
ATOM     21  C   UNL     1      -1.160  11.494  21.416  0.00  0.00    +0.000 A 
ATOM     22  C   UNL     1      -1.086  11.890  22.756  0.00  0.00    +0.000 A 
ATOM     23  C   UNL     1      -1.638  13.110  23.167  0.00  0.00    +0.000 A 
ATOM     24  C   UNL     1      -2.272  13.937  22.244  0.00  0.00    +0.000 A 
ATOM     25 CL   UNL     1      -2.938  15.437  22.757  0.00  0.00    +0.000 Cl
ATOM     26  C   UNL     1      -2.367  13.558  20.910  0.00  0.00    +0.000 A 
ATOM     27  C   UNL     1      -1.812  12.342  20.500  0.00  0.00    +0.000 A 
ATOM     28 CL   UNL     1      -1.952  11.917  18.828  0.00  0.00    +0.000 Cl
ENDBRANCH  20  21
ENDBRANCH  19  20
ENDBRANCH   5  19
TORSDOF 6
ENDMDL
MODEL 9
REMARK VINA RESULT:      -6.7      2.376      3.627
REMARK  Name = 
REMARK  8 active torsions:
REMARK  status: ('A' for Active; 'I' for Inactive)
REMARK    1  A    between atoms: C_1  and  O_2
REMARK    2  A    between atoms: O_2  and  C_3
REMARK    3  A    between atoms: C_7  and  C_8
REMARK    4  A    between atoms: C_8  and  O_9
REMARK    5  A    between atoms: O_9  and  C_10
REMARK    6  A    between atoms: N_18  and  N_19
REMARK    7  A    between atoms: C_24  and  O_25
REMARK    8  A    between atoms: O_25  and  C_26
REMARK                            x       y       z     vdW  Elec       q    Type
REMARK                         _______ _______ _______ _____ _____    ______ ____
ROOT
ATOM      1  C   UNL     1       4.411   4.511  19.113  0.00  0.00    +0.000 A 
ATOM      2  C   UNL     1       3.530   5.164  19.983  0.00  0.00    +0.000 A 
ATOM      3  C   UNL     1       2.896   6.347  19.610  0.00  0.00    +0.000 A 
ATOM      4  N   UNL     1       2.007   6.934  20.520  0.00  0.00    +0.000 NA
ATOM      5  C   UNL     1       1.432   8.052  20.193  0.00  0.00    +0.000 A 
ATOM      6  N   UNL     1       1.658   8.687  18.983  0.00  0.00    +0.000 N 
ATOM      7  C   UNL     1       2.497   8.147  17.997  0.00  0.00    +0.000 A 
ATOM      8  O   UNL     1       2.670   8.668  16.894  0.00  0.00    +0.000 OA
ATOM      9  C   UNL     1       3.172   6.885  18.357  0.00  0.00    +0.000 A 
ATOM     10  C   UNL     1       4.072   6.264  17.477  0.00  0.00    +0.000 A 
ATOM     11  C   UNL     1       4.698   5.073  17.853  0.00  0.00    +0.000 A 
ENDROOT
BRANCH   6  12
ATOM     12  N   UNL     1       1.062   9.950  18.695  0.00  0.00    +0.000 N 
ATOM     13  H   UNL     1       1.728  10.672  18.981  0.00  0.00    +0.000 HD
ATOM     14  H   UNL     1       0.279  10.048  19.353  0.00  0.00    +0.000 HD
ENDBRANCH   6  12
BRANCH   1  16
ATOM     15  C   UNL     1       4.194   2.269  19.838  0.00  0.00    +0.000 C 
ATOM     16  O   UNL     1       5.050   3.341  19.448  0.00  0.00    +0.000 OA
ENDBRANCH   1  16
BRANCH  11  17
ATOM     17  O   UNL     1       5.589   4.391  17.063  0.00  0.00    +0.000 OA
ATOM     18  C   UNL     1       6.120   5.071  15.932  0.00  0.00    +0.000 C 
ENDBRANCH  11  17
BRANCH   5  19
ATOM     19  C   UNL     1       0.455   8.682  21.182  0.00  0.00    +0.000 C 
BRANCH  19  20
ATOM     20  O   UNL     1       0.932   9.992  21.487  0.00  0.00    +0.000 OA
BRANCH  20  21
ATOM     21  C   UNL     1       0.029  10.904  21.973  0.00  0.00    +0.000 A 
ATOM     22  C   UNL     1      -1.021  10.592  22.843  0.00  0.00    +0.000 A 
ATOM     23  C   UNL     1      -1.877  11.597  23.311  0.00  0.00    +0.000 A 
ATOM     24  C   UNL     1      -1.693  12.916  22.906  0.00  0.00    +0.000 A 
ATOM     25 CL   UNL     1      -2.744  14.144  23.494  0.00  0.00    +0.000 Cl
ATOM     26  C   UNL     1      -0.663  13.246  22.034  0.00  0.00    +0.000 A 
ATOM     27  C   UNL     1       0.194  12.243  21.570  0.00  0.00    +0.000 A 
ATOM     28 CL   UNL     1       1.464  12.705  20.490  0.00  0.00    +0.000 Cl
ENDBRANCH  20  21
ENDBRANCH  19  20
ENDBRANCH   5  19
TORSDOF 6
ENDMDL
