MODEL 1
REMARK VINA RESULT:      -8.9      0.000      0.000
REMARK  Name = 
REMARK  7 active torsions:
REMARK  status: ('A' for Active; 'I' for Inactive)
REMARK    1  A    between atoms: C_1  and  C_2
REMARK    2  A    between atoms: C_2  and  C_3
REMARK    3  A    between atoms: C_2  and  C_4
REMARK    4  A    between atoms: C_4  and  C_5
REMARK    5  A    between atoms: C_7  and  C_8
REMARK    6  A    between atoms: C_8  and  N_9
REMARK    7  A    between atoms: C_10  and  C_12
REMARK                            x       y       z     vdW  Elec       q    Type
REMARK                         _______ _______ _______ _____ _____    ______ ____
ROOT
ATOM      1  N   UNL     1       5.629   3.728  17.603  0.00  0.00    +0.000 N 
ATOM      2  C   UNL     1       4.832   3.976  18.699  0.00  0.00    +0.000 C 
ATOM      3  O   UNL     1       4.975   4.975  19.402  0.00  0.00    +0.000 OA
ATOM      4  H   UNL     1       5.617   2.817  17.165  0.00  0.00    +0.000 HD
ENDROOT
BRANCH   2   5
ATOM      5  C   UNL     1       3.821   2.878  18.995  0.00  0.00    +0.000 C 
ATOM      6  C   UNL     1       3.034   3.087  20.327  0.00  0.00    +0.000 C 
ATOM      7  C   UNL     1       1.562   3.047  19.864  0.00  0.00    +0.000 C 
ATOM      8  C   UNL     1       1.306   4.268  19.012  0.00  0.00    +0.000 C 
ATOM      9  C   UNL     1       1.960   4.093  17.855  0.00  0.00    +0.000 C 
ATOM     10  C   UNL     1       2.681   2.766  17.949  0.00  0.00    +0.000 C 
ATOM     11  C   UNL     1       1.628   1.994  18.755  0.00  0.00    +0.000 C 
ENDBRANCH   2   5
BRANCH   1  12
ATOM     12  C   UNL     1       6.692   4.639  17.233  0.00  0.00    +0.000 C 
BRANCH  12  15
ATOM     13  C   UNL     1       6.720   4.320  13.583  0.00  0.00    +0.000 A 
ATOM     14  C   UNL     1       6.186   3.906  14.781  0.00  0.00    +0.000 A 
ATOM     15  C   UNL     1       6.819   4.720  15.753  0.00  0.00    +0.000 A 
ATOM     16  N   UNL     1       7.640   5.609  15.174  0.00  0.00    +0.000 NA
ATOM     17  O   UNL     1       7.573   5.358  13.816  0.00  0.00    +0.000 OA
BRANCH  13  18
ATOM     18  C   UNL     1       6.595   3.847  12.181  0.00  0.00    +0.000 C 
BRANCH  18  20
ATOM     19  C   UNL     1       4.278   3.208  11.347  0.00  0.00    +0.000 C 
ATOM     20  C   UNL     1       5.557   2.716  12.031  0.00  0.00    +0.000 C 
ATOM     21  C   UNL     1       6.148   1.546  11.241  0.00  0.00    +0.000 C 
ENDBRANCH  18  20
ENDBRANCH  13  18
ENDBRANCH  12  15
ENDBRANCH   1  12
TORSDOF 5
ENDMDL
MODEL 2
REMARK VINA RESULT:      -8.6      1.021      1.613
REMARK  Name = 
REMARK  7 active torsions:
REMARK  status: ('A' for Active; 'I' for Inactive)
REMARK    1  A    between atoms: C_1  and  C_2
REMARK    2  A    between atoms: C_2  and  C_3
REMARK    3  A    between atoms: C_2  and  C_4
REMARK    4  A    between atoms: C_4  and  C_5
REMARK    5  A    between atoms: C_7  and  C_8
REMARK    6  A    between atoms: C_8  and  N_9
REMARK    7  A    between atoms: C_10  and  C_12
REMARK                            x       y       z     vdW  Elec       q    Type
REMARK                         _______ _______ _______ _____ _____    ______ ____
ROOT
ATOM      1  N   UNL     1       4.413   4.497  17.264  0.00  0.00    +0.000 N 
ATOM      2  C   UNL     1       3.269   5.120  17.710  0.00  0.00    +0.000 C 
ATOM      3  O   UNL     1       3.237   6.319  17.981  0.00  0.00    +0.000 OA
ATOM      4  H   UNL     1       4.461   3.488  17.235  0.00  0.00    +0.000 HD
ENDROOT
BRANCH   2   5
ATOM      5  C   UNL     1       2.084   4.184  17.901  0.00  0.00    +0.000 C 
ATOM      6  C   UNL     1       2.441   2.673  17.739  0.00  0.00    +0.000 C 
ATOM      7  C   UNL     1       1.960   2.064  19.073  0.00  0.00    +0.000 C 
ATOM      8  C   UNL     1       2.839   2.601  20.178  0.00  0.00    +0.000 C 
ATOM      9  C   UNL     1       2.529   3.896  20.342  0.00  0.00    +0.000 C 
ATOM     10  C   UNL     1       1.462   4.229  19.321  0.00  0.00    +0.000 C 
ATOM     11  C   UNL     1       0.703   2.896  19.343  0.00  0.00    +0.000 C 
ENDBRANCH   2   5
BRANCH   1  12
ATOM     12  C   UNL     1       5.650   5.234  17.104  0.00  0.00    +0.000 C 
BRANCH  12  15
ATOM     13  C   UNL     1       6.535   4.420  13.644  0.00  0.00    +0.000 A 
ATOM     14  C   UNL     1       5.596   4.361  14.647  0.00  0.00    +0.000 A 
ATOM     15  C   UNL     1       6.184   5.066  15.727  0.00  0.00    +0.000 A 
ATOM     16  N   UNL     1       7.377   5.570  15.378  0.00  0.00    +0.000 NA
ATOM     17  O   UNL     1       7.592   5.167  14.073  0.00  0.00    +0.000 OA
BRANCH  13  18
ATOM     18  C   UNL     1       6.635   3.820  12.290  0.00  0.00    +0.000 C 
BRANCH  18  20
ATOM     19  C   UNL     1       4.345   3.261  11.330  0.00  0.00    +0.000 C 
ATOM     20  C   UNL     1       5.582   2.719  12.054  0.00  0.00    +0.000 C 
ATOM     21  C   UNL     1       6.184   1.563  11.251  0.00  0.00    +0.000 C 
ENDBRANCH  18  20
ENDBRANCH  13  18
ENDBRANCH  12  15
ENDBRANCH   1  12
TORSDOF 5
ENDMDL
MODEL 3
REMARK VINA RESULT:      -8.4      1.056      1.716
REMARK  Name = 
REMARK  7 active torsions:
REMARK  status: ('A' for Active; 'I' for Inactive)
REMARK    1  A    between atoms: C_1  and  C_2
REMARK    2  A    between atoms: C_2  and  C_3
REMARK    3  A    between atoms: C_2  and  C_4
REMARK    4  A    between atoms: C_4  and  C_5
REMARK    5  A    between atoms: C_7  and  C_8
REMARK    6  A    between atoms: C_8  and  N_9
REMARK    7  A    between atoms: C_10  and  C_12
REMARK                            x       y       z     vdW  Elec       q    Type
REMARK                         _______ _______ _______ _____ _____    ______ ____
ROOT
ATOM      1  N   UNL     1       5.139   4.675  18.096  0.00  0.00    +0.000 N 
ATOM      2  C   UNL     1       4.071   3.810  18.180  0.00  0.00    +0.000 C 
ATOM      3  O   UNL     1       4.157   2.628  17.852  0.00  0.00    +0.000 OA
ATOM      4  H   UNL     1       4.991   5.671  18.186  0.00  0.00    +0.000 HD
ENDROOT
BRANCH   2   5
ATOM      5  C   UNL     1       2.776   4.462  18.640  0.00  0.00    +0.000 C 
ATOM      6  C   UNL     1       1.496   3.634  18.302  0.00  0.00    +0.000 C 
ATOM      7  C   UNL     1       0.824   3.464  19.681  0.00  0.00    +0.000 C 
ATOM      8  C   UNL     1       1.706   2.574  20.525  0.00  0.00    +0.000 C 
ATOM      9  C   UNL     1       2.801   3.280  20.841  0.00  0.00    +0.000 C 
ATOM     10  C   UNL     1       2.663   4.634  20.178  0.00  0.00    +0.000 C 
ATOM     11  C   UNL     1       1.147   4.809  20.336  0.00  0.00    +0.000 C 
ENDBRANCH   2   5
BRANCH   1  12
ATOM     12  C   UNL     1       6.424   4.228  17.601  0.00  0.00    +0.000 C 
BRANCH  12  15
ATOM     13  C   UNL     1       6.499   4.298  13.939  0.00  0.00    +0.000 A 
ATOM     14  C   UNL     1       6.032   3.687  15.080  0.00  0.00    +0.000 A 
ATOM     15  C   UNL     1       6.538   4.480  16.140  0.00  0.00    +0.000 A 
ATOM     16  N   UNL     1       7.218   5.535  15.668  0.00  0.00    +0.000 NA
ATOM     17  O   UNL     1       7.189   5.420  14.290  0.00  0.00    +0.000 OA
BRANCH  13  18
ATOM     18  C   UNL     1       6.445   3.960  12.494  0.00  0.00    +0.000 C 
BRANCH  18  20
ATOM     19  C   UNL     1       4.206   3.374  11.436  0.00  0.00    +0.000 C 
ATOM     20  C   UNL     1       5.430   2.841  12.188  0.00  0.00    +0.000 C 
ATOM     21  C   UNL     1       6.089   1.725  11.374  0.00  0.00    +0.000 C 
ENDBRANCH  18  20
ENDBRANCH  13  18
ENDBRANCH  12  15
ENDBRANCH   1  12
TORSDOF 5
ENDMDL
MODEL 4
REMARK VINA RESULT:      -8.4      0.921      1.096
REMARK  Name = 
REMARK  7 active torsions:
REMARK  status: ('A' for Active; 'I' for Inactive)
REMARK    1  A    between atoms: C_1  and  C_2
REMARK    2  A    between atoms: C_2  and  C_3
REMARK    3  A    between atoms: C_2  and  C_4
REMARK    4  A    between atoms: C_4  and  C_5
REMARK    5  A    between atoms: C_7  and  C_8
REMARK    6  A    between atoms: C_8  and  N_9
REMARK    7  A    between atoms: C_10  and  C_12
REMARK                            x       y       z     vdW  Elec       q    Type
REMARK                         _______ _______ _______ _____ _____    ______ ____
ROOT
ATOM      1  N   UNL     1       4.407   4.818  17.334  0.00  0.00    +0.000 N 
ATOM      2  C   UNL     1       4.359   3.880  18.341  0.00  0.00    +0.000 C 
ATOM      3  O   UNL     1       5.290   3.715  19.128  0.00  0.00    +0.000 OA
ATOM      4  H   UNL     1       3.719   4.799  16.593  0.00  0.00    +0.000 HD
ENDROOT
BRANCH   2   5
ATOM      5  C   UNL     1       3.097   3.031  18.343  0.00  0.00    +0.000 C 
ATOM      6  C   UNL     1       2.981   2.073  19.571  0.00  0.00    +0.000 C 
ATOM      7  C   UNL     1       1.617   2.461  20.179  0.00  0.00    +0.000 C 
ATOM      8  C   UNL     1       1.731   3.862  20.731  0.00  0.00    +0.000 C 
ATOM      9  C   UNL     1       1.811   4.699  19.686  0.00  0.00    +0.000 C 
ATOM     10  C   UNL     1       1.781   3.848  18.434  0.00  0.00    +0.000 C 
ATOM     11  C   UNL     1       0.806   2.767  18.917  0.00  0.00    +0.000 C 
ENDBRANCH   2   5
BRANCH   1  12
ATOM     12  C   UNL     1       5.574   5.655  17.148  0.00  0.00    +0.000 C 
BRANCH  12  15
ATOM     13  C   UNL     1       6.661   4.661  13.793  0.00  0.00    +0.000 A 
ATOM     14  C   UNL     1       5.620   4.815  14.678  0.00  0.00    +0.000 A 
ATOM     15  C   UNL     1       6.217   5.370  15.837  0.00  0.00    +0.000 A 
ATOM     16  N   UNL     1       7.526   5.592  15.644  0.00  0.00    +0.000 NA
ATOM     17  O   UNL     1       7.800   5.149  14.362  0.00  0.00    +0.000 OA
BRANCH  13  18
ATOM     18  C   UNL     1       6.785   4.053  12.444  0.00  0.00    +0.000 C 
BRANCH  18  20
ATOM     19  C   UNL     1       4.471   3.491  11.546  0.00  0.00    +0.000 C 
ATOM     20  C   UNL     1       5.743   2.942  12.201  0.00  0.00    +0.000 C 
ATOM     21  C   UNL     1       6.335   1.833  11.328  0.00  0.00    +0.000 C 
ENDBRANCH  18  20
ENDBRANCH  13  18
ENDBRANCH  12  15
ENDBRANCH   1  12
TORSDOF 5
ENDMDL
MODEL 5
REMARK VINA RESULT:      -7.8      1.331      2.005
REMARK  Name = 
REMARK  7 active torsions:
REMARK  status: ('A' for Active; 'I' for Inactive)
REMARK    1  A    between atoms: C_1  and  C_2
REMARK    2  A    between atoms: C_2  and  C_3
REMARK    3  A    between atoms: C_2  and  C_4
REMARK    4  A    between atoms: C_4  and  C_5
REMARK    5  A    between atoms: C_7  and  C_8
REMARK    6  A    between atoms: C_8  and  N_9
REMARK    7  A    between atoms: C_10  and  C_12
REMARK                            x       y       z     vdW  Elec       q    Type
REMARK                         _______ _______ _______ _____ _____    ______ ____
ROOT
ATOM      1  N   UNL     1       4.854   4.545  19.416  0.00  0.00    +0.000 N 
ATOM      2  C   UNL     1       4.454   3.288  19.813  0.00  0.00    +0.000 C 
ATOM      3  O   UNL     1       5.238   2.344  19.894  0.00  0.00    +0.000 OA
ATOM      4  H   UNL     1       4.164   5.243  19.176  0.00  0.00    +0.000 HD
ENDROOT
BRANCH   2   5
ATOM      5  C   UNL     1       2.959   3.163  20.069  0.00  0.00    +0.000 C 
ATOM      6  C   UNL     1       2.164   4.485  19.827  0.00  0.00    +0.000 C 
ATOM      7  C   UNL     1       1.091   4.055  18.803  0.00  0.00    +0.000 C 
ATOM      8  C   UNL     1       1.789   3.725  17.505  0.00  0.00    +0.000 C 
ATOM      9  C   UNL     1       2.461   2.579  17.693  0.00  0.00    +0.000 C 
ATOM     10  C   UNL     1       2.235   2.163  19.130  0.00  0.00    +0.000 C 
ATOM     11  C   UNL     1       0.782   2.633  19.277  0.00  0.00    +0.000 C 
ENDBRANCH   2   5
BRANCH   1  12
ATOM     12  C   UNL     1       6.233   4.810  19.060  0.00  0.00    +0.000 C 
BRANCH  12  15
ATOM     13  C   UNL     1       6.058   4.769  15.401  0.00  0.00    +0.000 A 
ATOM     14  C   UNL     1       5.400   4.963  16.593  0.00  0.00    +0.000 A 
ATOM     15  C   UNL     1       6.401   4.803  17.583  0.00  0.00    +0.000 A 
ATOM     16  N   UNL     1       7.600   4.584  17.022  0.00  0.00    +0.000 NA
ATOM     17  O   UNL     1       7.382   4.567  15.656  0.00  0.00    +0.000 OA
BRANCH  13  18
ATOM     18  C   UNL     1       5.621   4.688  13.984  0.00  0.00    +0.000 C 
BRANCH  18  20
ATOM     19  C   UNL     1       5.901   3.011  12.091  0.00  0.00    +0.000 C 
ATOM     20  C   UNL     1       6.618   3.910  13.103  0.00  0.00    +0.000 C 
ATOM     21  C   UNL     1       7.550   4.875  12.367  0.00  0.00    +0.000 C 
ENDBRANCH  18  20
ENDBRANCH  13  18
ENDBRANCH  12  15
ENDBRANCH   1  12
TORSDOF 5
ENDMDL
MODEL 6
REMARK VINA RESULT:      -7.8      0.905      1.498
REMARK  Name = 
REMARK  7 active torsions:
REMARK  status: ('A' for Active; 'I' for Inactive)
REMARK    1  A    between atoms: C_1  and  C_2
REMARK    2  A    between atoms: C_2  and  C_3
REMARK    3  A    between atoms: C_2  and  C_4
REMARK    4  A    between atoms: C_4  and  C_5
REMARK    5  A    between atoms: C_7  and  C_8
REMARK    6  A    between atoms: C_8  and  N_9
REMARK    7  A    between atoms: C_10  and  C_12
REMARK                            x       y       z     vdW  Elec       q    Type
REMARK                         _______ _______ _______ _____ _____    ______ ____
ROOT
ATOM      1  N   UNL     1       5.794   4.278  17.937  0.00  0.00    +0.000 N 
ATOM      2  C   UNL     1       4.978   5.370  18.135  0.00  0.00    +0.000 C 
ATOM      3  O   UNL     1       5.321   6.510  17.829  0.00  0.00    +0.000 OA
ATOM      4  H   UNL     1       5.569   3.393  18.369  0.00  0.00    +0.000 HD
ENDROOT
BRANCH   2   5
ATOM      5  C   UNL     1       3.661   5.045  18.824  0.00  0.00    +0.000 C 
ATOM      6  C   UNL     1       2.400   5.481  18.014  0.00  0.00    +0.000 C 
ATOM      7  C   UNL     1       1.600   4.167  17.891  0.00  0.00    +0.000 C 
ATOM      8  C   UNL     1       2.381   3.225  17.004  0.00  0.00    +0.000 C 
ATOM      9  C   UNL     1       3.458   2.826  17.696  0.00  0.00    +0.000 C 
ATOM     10  C   UNL     1       3.411   3.528  19.036  0.00  0.00    +0.000 C 
ATOM     11  C   UNL     1       1.892   3.515  19.245  0.00  0.00    +0.000 C 
ENDBRANCH   2   5
BRANCH   1  12
ATOM     12  C   UNL     1       7.115   4.429  17.362  0.00  0.00    +0.000 C 
BRANCH  12  15
ATOM     13  C   UNL     1       6.716   4.350  13.721  0.00  0.00    +0.000 A 
ATOM     14  C   UNL     1       6.436   3.763  14.933  0.00  0.00    +0.000 A 
ATOM     15  C   UNL     1       7.025   4.626  15.891  0.00  0.00    +0.000 A 
ATOM     16  N   UNL     1       7.575   5.696  15.298  0.00  0.00    +0.000 NA
ATOM     17  O   UNL     1       7.376   5.522  13.941  0.00  0.00    +0.000 OA
BRANCH  13  18
ATOM     18  C   UNL     1       6.498   3.950  12.308  0.00  0.00    +0.000 C 
BRANCH  18  20
ATOM     19  C   UNL     1       4.188   3.356  11.420  0.00  0.00    +0.000 C 
ATOM     20  C   UNL     1       5.427   2.849  12.166  0.00  0.00    +0.000 C 
ATOM     21  C   UNL     1       6.003   1.630  11.441  0.00  0.00    +0.000 C 
ENDBRANCH  18  20
ENDBRANCH  13  18
ENDBRANCH  12  15
ENDBRANCH   1  12
TORSDOF 5
ENDMDL
MODEL 7
REMARK VINA RESULT:      -7.8      0.915      1.101
REMARK  Name = 
REMARK  7 active torsions:
REMARK  status: ('A' for Active; 'I' for Inactive)
REMARK    1  A    between atoms: C_1  and  C_2
REMARK    2  A    between atoms: C_2  and  C_3
REMARK    3  A    between atoms: C_2  and  C_4
REMARK    4  A    between atoms: C_4  and  C_5
REMARK    5  A    between atoms: C_7  and  C_8
REMARK    6  A    between atoms: C_8  and  N_9
REMARK    7  A    between atoms: C_10  and  C_12
REMARK                            x       y       z     vdW  Elec       q    Type
REMARK                         _______ _______ _______ _____ _____    ______ ____
ROOT
ATOM      1  N   UNL     1       5.658   3.699  18.633  0.00  0.00    +0.000 N 
ATOM      2  C   UNL     1       4.626   4.313  19.308  0.00  0.00    +0.000 C 
ATOM      3  O   UNL     1       4.602   5.526  19.507  0.00  0.00    +0.000 OA
ATOM      4  H   UNL     1       5.746   2.693  18.653  0.00  0.00    +0.000 HD
ENDROOT
BRANCH   2   5
ATOM      5  C   UNL     1       3.570   3.354  19.837  0.00  0.00    +0.000 C 
ATOM      6  C   UNL     1       2.308   4.063  20.423  0.00  0.00    +0.000 C 
ATOM      7  C   UNL     1       1.155   3.432  19.614  0.00  0.00    +0.000 C 
ATOM      8  C   UNL     1       1.284   3.889  18.180  0.00  0.00    +0.000 C 
ATOM      9  C   UNL     1       2.353   3.270  17.658  0.00  0.00    +0.000 C 
ATOM     10  C   UNL     1       2.957   2.424  18.757  0.00  0.00    +0.000 C 
ATOM     11  C   UNL     1       1.659   1.995  19.452  0.00  0.00    +0.000 C 
ENDBRANCH   2   5
BRANCH   1  12
ATOM     12  C   UNL     1       6.781   4.464  18.133  0.00  0.00    +0.000 C 
BRANCH  12  15
ATOM     13  C   UNL     1       5.949   4.722  14.574  0.00  0.00    +0.000 A 
ATOM     14  C   UNL     1       5.536   4.384  15.842  0.00  0.00    +0.000 A 
ATOM     15  C   UNL     1       6.636   4.711  16.673  0.00  0.00    +0.000 A 
ATOM     16  N   UNL     1       7.628   5.266  15.961  0.00  0.00    +0.000 NA
ATOM     17  O   UNL     1       7.193   5.274  14.648  0.00  0.00    +0.000 OA
BRANCH  13  18
ATOM     18  C   UNL     1       5.359   4.561  13.221  0.00  0.00    +0.000 C 
BRANCH  18  20
ATOM     19  C   UNL     1       4.801   2.760  11.512  0.00  0.00    +0.000 C 
ATOM     20  C   UNL     1       5.834   3.272  12.521  0.00  0.00    +0.000 C 
ATOM     21  C   UNL     1       7.172   3.506  11.815  0.00  0.00    +0.000 C 
ENDBRANCH  18  20
ENDBRANCH  13  18
ENDBRANCH  12  15
ENDBRANCH   1  12
TORSDOF 5
ENDMDL
MODEL 8
REMARK VINA RESULT:      -7.8      1.590      1.953
REMARK  Name = 
REMARK  7 active torsions:
REMARK  status: ('A' for Active; 'I' for Inactive)
REMARK    1  A    between atoms: C_1  and  C_2
REMARK    2  A    between atoms: C_2  and  C_3
REMARK    3  A    between atoms: C_2  and  C_4
REMARK    4  A    between atoms: C_4  and  C_5
REMARK    5  A    between atoms: C_7  and  C_8
REMARK    6  A    between atoms: C_8  and  N_9
REMARK    7  A    between atoms: C_10  and  C_12
REMARK                            x       y       z     vdW  Elec       q    Type
REMARK                         _______ _______ _______ _____ _____    ______ ____
ROOT
ATOM      1  N   UNL     1       4.419   5.325  18.185  0.00  0.00    +0.000 N 
ATOM      2  C   UNL     1       3.190   5.515  18.778  0.00  0.00    +0.000 C 
ATOM      3  O   UNL     1       2.356   6.296  18.323  0.00  0.00    +0.000 OA
ATOM      4  H   UNL     1       5.148   4.831  18.681  0.00  0.00    +0.000 HD
ENDROOT
BRANCH   2   5
ATOM      5  C   UNL     1       2.994   4.734  20.069  0.00  0.00    +0.000 C 
ATOM      6  C   UNL     1       1.564   4.874  20.680  0.00  0.00    +0.000 C 
ATOM      7  C   UNL     1       1.099   3.407  20.803  0.00  0.00    +0.000 C 
ATOM      8  C   UNL     1       0.922   2.854  19.408  0.00  0.00    +0.000 C 
ATOM      9  C   UNL     1       2.145   2.709  18.877  0.00  0.00    +0.000 C 
ATOM     10  C   UNL     1       3.138   3.198  19.910  0.00  0.00    +0.000 C 
ATOM     11  C   UNL     1       2.412   2.710  21.170  0.00  0.00    +0.000 C 
ENDBRANCH   2   5
BRANCH   1  12
ATOM     12  C   UNL     1       4.792   6.054  16.991  0.00  0.00    +0.000 C 
BRANCH  12  15
ATOM     13  C   UNL     1       6.077   4.216  14.095  0.00  0.00    +0.000 A 
ATOM     14  C   UNL     1       5.699   5.426  14.628  0.00  0.00    +0.000 A 
ATOM     15  C   UNL     1       5.361   5.133  15.972  0.00  0.00    +0.000 A 
ATOM     16  N   UNL     1       5.578   3.839  16.250  0.00  0.00    +0.000 NA
ATOM     17  O   UNL     1       6.029   3.269  15.074  0.00  0.00    +0.000 OA
BRANCH  13  18
ATOM     18  C   UNL     1       6.451   3.763  12.731  0.00  0.00    +0.000 C 
BRANCH  18  20
ATOM     19  C   UNL     1       4.322   3.310  11.412  0.00  0.00    +0.000 C 
ATOM     20  C   UNL     1       5.491   2.688  12.183  0.00  0.00    +0.000 C 
ATOM     21  C   UNL     1       6.242   1.708  11.279  0.00  0.00    +0.000 C 
ENDBRANCH  18  20
ENDBRANCH  13  18
ENDBRANCH  12  15
ENDBRANCH   1  12
TORSDOF 5
ENDMDL
MODEL 9
REMARK VINA RESULT:      -7.7      0.904      1.154
REMARK  Name = 
REMARK  7 active torsions:
REMARK  status: ('A' for Active; 'I' for Inactive)
REMARK    1  A    between atoms: C_1  and  C_2
REMARK    2  A    between atoms: C_2  and  C_3
REMARK    3  A    between atoms: C_2  and  C_4
REMARK    4  A    between atoms: C_4  and  C_5
REMARK    5  A    between atoms: C_7  and  C_8
REMARK    6  A    between atoms: C_8  and  N_9
REMARK    7  A    between atoms: C_10  and  C_12
REMARK                            x       y       z     vdW  Elec       q    Type
REMARK                         _______ _______ _______ _____ _____    ______ ____
ROOT
ATOM      1  N   UNL     1       6.148   4.003  17.615  0.00  0.00    +0.000 N 
ATOM      2  C   UNL     1       5.086   4.633  18.225  0.00  0.00    +0.000 C 
ATOM      3  O   UNL     1       4.917   5.849  18.156  0.00  0.00    +0.000 OA
ATOM      4  H   UNL     1       6.368   3.044  17.846  0.00  0.00    +0.000 HD
ENDROOT
BRANCH   2   5
ATOM      5  C   UNL     1       4.197   3.706  19.041  0.00  0.00    +0.000 C 
ATOM      6  C   UNL     1       3.058   4.442  19.814  0.00  0.00    +0.000 C 
ATOM      7  C   UNL     1       1.787   3.720  19.318  0.00  0.00    +0.000 C 
ATOM      8  C   UNL     1       1.601   4.049  17.856  0.00  0.00    +0.000 C 
ATOM      9  C   UNL     1       2.563   3.406  17.176  0.00  0.00    +0.000 C 
ATOM     10  C   UNL     1       3.410   2.672  18.193  0.00  0.00    +0.000 C 
ATOM     11  C   UNL     1       2.298   2.284  19.176  0.00  0.00    +0.000 C 
ENDBRANCH   2   5
BRANCH   1  12
ATOM     12  C   UNL     1       7.131   4.756  16.864  0.00  0.00    +0.000 C 
BRANCH  12  15
ATOM     13  C   UNL     1       6.243   3.907  13.413  0.00  0.00    +0.000 A 
ATOM     14  C   UNL     1       5.977   3.748  14.753  0.00  0.00    +0.000 A 
ATOM     15  C   UNL     1       6.903   4.602  15.403  0.00  0.00    +0.000 A 
ATOM     16  N   UNL     1       7.641   5.278  14.510  0.00  0.00    +0.000 NA
ATOM     17  O   UNL     1       7.223   4.843  13.266  0.00  0.00    +0.000 OA
BRANCH  13  18
ATOM     18  C   UNL     1       5.736   3.255  12.179  0.00  0.00    +0.000 C 
BRANCH  18  20
ATOM     19  C   UNL     1       5.703   0.946  11.109  0.00  0.00    +0.000 C 
ATOM     20  C   UNL     1       6.567   2.018  11.782  0.00  0.00    +0.000 C 
ATOM     21  C   UNL     1       7.713   2.417  10.850  0.00  0.00    +0.000 C 
ENDBRANCH  18  20
ENDBRANCH  13  18
ENDBRANCH  12  15
ENDBRANCH   1  12
TORSDOF 5
ENDMDL
