MODEL 1
REMARK VINA RESULT:      -6.4      0.000      0.000
REMARK  Name = 
REMARK  7 active torsions:
REMARK  status: ('A' for Active; 'I' for Inactive)
REMARK    1  A    between atoms: C_1  and  C_2
REMARK    2  A    between atoms: C_2  and  C_3
REMARK    3  A    between atoms: C_2  and  C_4
REMARK    4  A    between atoms: C_4  and  N_5
REMARK    5  A    between atoms: C_14  and  C_15
REMARK    6  A    between atoms: N_17  and  C_18
REMARK    7  A    between atoms: C_24  and  C_25
REMARK                            x       y       z     vdW  Elec       q    Type
REMARK                         _______ _______ _______ _____ _____    ______ ____
ROOT
ATOM      1  N   UNL     1      -5.232  12.996  20.518  0.00  0.00    +0.000 N 
ATOM      2  C   UNL     1      -5.473  12.226  19.376  0.00  0.00    +0.000 C 
ATOM      3  O   UNL     1      -6.600  11.985  18.949  0.00  0.00    +0.000 OA
ATOM      4  C   UNL     1      -4.300  11.710  18.624  0.00  0.00    +0.000 A 
ATOM      5  C   UNL     1      -4.540  10.890  17.509  0.00  0.00    +0.000 A 
ATOM      6  C   UNL     1      -3.487  10.464  16.705  0.00  0.00    +0.000 A 
ATOM      7  C   UNL     1      -2.188  10.869  16.999  0.00  0.00    +0.000 A 
ATOM      8  C   UNL     1      -1.941  11.681  18.107  0.00  0.00    +0.000 A 
ATOM      9  C   UNL     1      -2.991  12.085  18.955  0.00  0.00    +0.000 A 
ATOM     10  C   UNL     1      -2.739  12.991  20.148  0.00  0.00    +0.000 C 
ATOM     11  C   UNL     1      -3.898  12.924  21.176  0.00  0.00    +0.000 C 
ENDROOT
BRANCH  11  12
ATOM     12  C   UNL     1      -3.749  13.998  22.240  0.00  0.00    +0.000 A 
ATOM     13  C   UNL     1      -3.799  15.376  22.112  0.00  0.00    +0.000 A 
ATOM     14  C   UNL     1      -3.765  16.045  23.369  0.00  0.00    +0.000 A 
ATOM     15  C   UNL     1      -3.589  15.168  24.412  0.00  0.00    +0.000 A 
ATOM     16  S   UNL     1      -3.476  13.548  23.879  0.00  0.00    +0.000 S 
ENDBRANCH  11  12
BRANCH  10  17
ATOM     17  C   UNL     1      -1.397  12.709  20.837  0.00  0.00    +0.000 C 
ATOM     18  O   UNL     1      -0.522  13.570  20.895  0.00  0.00    +0.000 OA
ATOM     19  N   UNL     1      -1.226  11.444  21.373  0.00  0.00    +0.000 N 
ATOM     20  H   UNL     1      -1.856  10.707  21.076  0.00  0.00    +0.000 HD
BRANCH  19  21
ATOM     21  C   UNL     1       0.030  11.049  22.012  0.00  0.00    +0.000 C 
ATOM     22  C   UNL     1      -0.190   9.889  22.991  0.00  0.00    +0.000 C 
ATOM     23  C   UNL     1      -0.429   8.551  22.291  0.00  0.00    +0.000 C 
ATOM     24  C   UNL     1       0.674   8.226  21.290  0.00  0.00    +0.000 C 
ATOM     25  C   UNL     1       0.898   9.359  20.295  0.00  0.00    +0.000 C 
ATOM     26  C   UNL     1       1.125  10.701  20.990  0.00  0.00    +0.000 C 
ENDBRANCH  19  21
ENDBRANCH  10  17
BRANCH   1  27
ATOM     27  C   UNL     1      -6.425  13.477  21.245  0.00  0.00    +0.000 C 
BRANCH  27  29
ATOM     28  C   UNL     1      -7.215  13.407  23.685  0.00  0.00    +0.000 C 
ATOM     29  C   UNL     1      -6.802  12.595  22.456  0.00  0.00    +0.000 C 
ATOM     30  C   UNL     1      -7.915  11.616  22.076  0.00  0.00    +0.000 C 
ENDBRANCH  27  29
ENDBRANCH   1  27
TORSDOF 5
ENDMDL
MODEL 2
REMARK VINA RESULT:      -6.2      0.710      1.102
REMARK  Name = 
REMARK  7 active torsions:
REMARK  status: ('A' for Active; 'I' for Inactive)
REMARK    1  A    between atoms: C_1  and  C_2
REMARK    2  A    between atoms: C_2  and  C_3
REMARK    3  A    between atoms: C_2  and  C_4
REMARK    4  A    between atoms: C_4  and  N_5
REMARK    5  A    between atoms: C_14  and  C_15
REMARK    6  A    between atoms: N_17  and  C_18
REMARK    7  A    between atoms: C_24  and  C_25
REMARK                            x       y       z     vdW  Elec       q    Type
REMARK                         _______ _______ _______ _____ _____    ______ ____
ROOT
ATOM      1  N   UNL     1      -5.461  12.720  20.509  0.00  0.00    +0.000 N 
ATOM      2  C   UNL     1      -5.676  11.979  19.343  0.00  0.00    +0.000 C 
ATOM      3  O   UNL     1      -6.793  11.676  18.931  0.00  0.00    +0.000 OA
ATOM      4  C   UNL     1      -4.489  11.578  18.544  0.00  0.00    +0.000 A 
ATOM      5  C   UNL     1      -4.699  10.787  17.402  0.00  0.00    +0.000 A 
ATOM      6  C   UNL     1      -3.638  10.469  16.559  0.00  0.00    +0.000 A 
ATOM      7  C   UNL     1      -2.365  10.954  16.840  0.00  0.00    +0.000 A 
ATOM      8  C   UNL     1      -2.148  11.738  17.974  0.00  0.00    +0.000 A 
ATOM      9  C   UNL     1      -3.202  12.033  18.860  0.00  0.00    +0.000 A 
ATOM     10  C   UNL     1      -2.984  12.908  20.083  0.00  0.00    +0.000 C 
ATOM     11  C   UNL     1      -4.108  12.717  21.134  0.00  0.00    +0.000 C 
ENDROOT
BRANCH  11  12
ATOM     12  C   UNL     1      -4.010  13.757  22.237  0.00  0.00    +0.000 A 
ATOM     13  C   UNL     1      -3.844  15.129  22.141  0.00  0.00    +0.000 A 
ATOM     14  C   UNL     1      -3.947  15.783  23.402  0.00  0.00    +0.000 A 
ATOM     15  C   UNL     1      -4.087  14.887  24.434  0.00  0.00    +0.000 A 
ATOM     16  S   UNL     1      -4.103  13.269  23.885  0.00  0.00    +0.000 S 
ENDBRANCH  11  12
BRANCH  10  17
ATOM     17  C   UNL     1      -1.608  12.695  20.731  0.00  0.00    +0.000 C 
ATOM     18  O   UNL     1      -0.751  13.575  20.697  0.00  0.00    +0.000 OA
ATOM     19  N   UNL     1      -1.388  11.470  21.336  0.00  0.00    +0.000 N 
ATOM     20  H   UNL     1      -2.012  10.703  21.113  0.00  0.00    +0.000 HD
BRANCH  19  21
ATOM     21  C   UNL     1      -0.097  11.140  21.944  0.00  0.00    +0.000 C 
ATOM     22  C   UNL     1      -0.243  10.007  22.967  0.00  0.00    +0.000 C 
ATOM     23  C   UNL     1      -0.457   8.639  22.320  0.00  0.00    +0.000 C 
ATOM     24  C   UNL     1       0.622   8.318  21.292  0.00  0.00    +0.000 C 
ATOM     25  C   UNL     1       0.772   9.424  20.254  0.00  0.00    +0.000 C 
ATOM     26  C   UNL     1       0.974  10.796  20.896  0.00  0.00    +0.000 C 
ENDBRANCH  19  21
ENDBRANCH  10  17
BRANCH   1  27
ATOM     27  C   UNL     1      -6.666  13.085  21.282  0.00  0.00    +0.000 C 
BRANCH  27  29
ATOM     28  C   UNL     1      -7.554  15.389  21.979  0.00  0.00    +0.000 C 
ATOM     29  C   UNL     1      -7.308  14.414  20.826  0.00  0.00    +0.000 C 
ATOM     30  C   UNL     1      -6.445  15.081  19.752  0.00  0.00    +0.000 C 
ENDBRANCH  27  29
ENDBRANCH   1  27
TORSDOF 5
ENDMDL
MODEL 3
REMARK VINA RESULT:      -6.0      2.342      6.130
REMARK  Name = 
REMARK  7 active torsions:
REMARK  status: ('A' for Active; 'I' for Inactive)
REMARK    1  A    between atoms: C_1  and  C_2
REMARK    2  A    between atoms: C_2  and  C_3
REMARK    3  A    between atoms: C_2  and  C_4
REMARK    4  A    between atoms: C_4  and  N_5
REMARK    5  A    between atoms: C_14  and  C_15
REMARK    6  A    between atoms: N_17  and  C_18
REMARK    7  A    between atoms: C_24  and  C_25
REMARK                            x       y       z     vdW  Elec       q    Type
REMARK                         _______ _______ _______ _____ _____    ______ ____
ROOT
ATOM      1  N   UNL     1      -1.861  12.654  20.375  0.00  0.00    +0.000 N 
ATOM      2  C   UNL     1      -1.409  12.195  19.134  0.00  0.00    +0.000 C 
ATOM      3  O   UNL     1      -0.220  12.091  18.845  0.00  0.00    +0.000 OA
ATOM      4  C   UNL     1      -2.425  11.773  18.135  0.00  0.00    +0.000 A 
ATOM      5  C   UNL     1      -1.975  11.364  16.869  0.00  0.00    +0.000 A 
ATOM      6  C   UNL     1      -2.871  10.861  15.930  0.00  0.00    +0.000 A 
ATOM      7  C   UNL     1      -4.219  10.745  16.256  0.00  0.00    +0.000 A 
ATOM      8  C   UNL     1      -4.674  11.152  17.511  0.00  0.00    +0.000 A 
ATOM      9  C   UNL     1      -3.787  11.704  18.456  0.00  0.00    +0.000 A 
ATOM     10  C   UNL     1      -4.265  12.126  19.835  0.00  0.00    +0.000 C 
ATOM     11  C   UNL     1      -3.274  13.106  20.513  0.00  0.00    +0.000 C 
ENDROOT
BRANCH  11  12
ATOM     12  C   UNL     1      -3.639  13.336  21.970  0.00  0.00    +0.000 A 
ATOM     13  C   UNL     1      -3.607  12.451  23.034  0.00  0.00    +0.000 A 
ATOM     14  C   UNL     1      -3.882  13.083  24.281  0.00  0.00    +0.000 A 
ATOM     15  C   UNL     1      -4.215  14.407  24.121  0.00  0.00    +0.000 A 
ATOM     16  S   UNL     1      -4.186  14.886  22.482  0.00  0.00    +0.000 S 
ENDBRANCH  11  12
BRANCH  10  17
ATOM     17  C   UNL     1      -5.680  12.724  19.819  0.00  0.00    +0.000 C 
ATOM     18  O   UNL     1      -6.607  12.170  20.405  0.00  0.00    +0.000 OA
ATOM     19  N   UNL     1      -5.850  13.899  19.107  0.00  0.00    +0.000 N 
ATOM     20  H   UNL     1      -5.134  14.166  18.441  0.00  0.00    +0.000 HD
BRANCH  19  21
ATOM     21  C   UNL     1      -7.164  14.533  18.984  0.00  0.00    +0.000 C 
ATOM     22  C   UNL     1      -7.049  16.060  19.069  0.00  0.00    +0.000 C 
ATOM     23  C   UNL     1      -6.461  16.688  17.806  0.00  0.00    +0.000 C 
ATOM     24  C   UNL     1      -7.215  16.262  16.552  0.00  0.00    +0.000 C 
ATOM     25  C   UNL     1      -7.326  14.745  16.437  0.00  0.00    +0.000 C 
ATOM     26  C   UNL     1      -7.902  14.110  17.703  0.00  0.00    +0.000 C 
ENDBRANCH  19  21
ENDBRANCH  10  17
BRANCH   1  27
ATOM     27  C   UNL     1      -0.820  13.077  21.333  0.00  0.00    +0.000 C 
BRANCH  27  29
ATOM     28  C   UNL     1      -0.466  15.218  22.704  0.00  0.00    +0.000 C 
ATOM     29  C   UNL     1      -0.542  14.597  21.307  0.00  0.00    +0.000 C 
ATOM     30  C   UNL     1       0.744  14.890  20.532  0.00  0.00    +0.000 C 
ENDBRANCH  27  29
ENDBRANCH   1  27
TORSDOF 5
ENDMDL
MODEL 4
REMARK VINA RESULT:      -5.9      2.009      6.227
REMARK  Name = 
REMARK  7 active torsions:
REMARK  status: ('A' for Active; 'I' for Inactive)
REMARK    1  A    between atoms: C_1  and  C_2
REMARK    2  A    between atoms: C_2  and  C_3
REMARK    3  A    between atoms: C_2  and  C_4
REMARK    4  A    between atoms: C_4  and  N_5
REMARK    5  A    between atoms: C_14  and  C_15
REMARK    6  A    between atoms: N_17  and  C_18
REMARK    7  A    between atoms: C_24  and  C_25
REMARK                            x       y       z     vdW  Elec       q    Type
REMARK                         _______ _______ _______ _____ _____    ______ ____
ROOT
ATOM      1  N   UNL     1      -3.311  12.169  19.337  0.00  0.00    +0.000 N 
ATOM      2  C   UNL     1      -4.702  12.104  19.215  0.00  0.00    +0.000 C 
ATOM      3  O   UNL     1      -5.274  11.736  18.192  0.00  0.00    +0.000 OA
ATOM      4  C   UNL     1      -5.522  12.462  20.401  0.00  0.00    +0.000 A 
ATOM      5  C   UNL     1      -6.920  12.452  20.264  0.00  0.00    +0.000 A 
ATOM      6  C   UNL     1      -7.740  12.676  21.367  0.00  0.00    +0.000 A 
ATOM      7  C   UNL     1      -7.169  12.893  22.617  0.00  0.00    +0.000 A 
ATOM      8  C   UNL     1      -5.781  12.908  22.761  0.00  0.00    +0.000 A 
ATOM      9  C   UNL     1      -4.938  12.726  21.647  0.00  0.00    +0.000 A 
ATOM     10  C   UNL     1      -3.425  12.713  21.795  0.00  0.00    +0.000 C 
ATOM     11  C   UNL     1      -2.713  12.969  20.442  0.00  0.00    +0.000 C 
ENDROOT
BRANCH  11  12
ATOM     12  C   UNL     1      -1.218  12.724  20.554  0.00  0.00    +0.000 A 
ATOM     13  C   UNL     1      -0.542  11.648  21.106  0.00  0.00    +0.000 A 
ATOM     14  C   UNL     1       0.863  11.713  20.887  0.00  0.00    +0.000 A 
ATOM     15  C   UNL     1       1.232  12.882  20.265  0.00  0.00    +0.000 A 
ATOM     16  S   UNL     1      -0.110  13.888  19.939  0.00  0.00    +0.000 S 
ENDBRANCH  11  12
BRANCH  10  17
ATOM     17  C   UNL     1      -2.922  13.700  22.859  0.00  0.00    +0.000 C 
ATOM     18  O   UNL     1      -2.267  13.310  23.823  0.00  0.00    +0.000 OA
ATOM     19  N   UNL     1      -3.253  15.031  22.677  0.00  0.00    +0.000 N 
ATOM     20  H   UNL     1      -3.997  15.259  22.028  0.00  0.00    +0.000 HD
BRANCH  19  21
ATOM     21  C   UNL     1      -2.866  16.053  23.652  0.00  0.00    +0.000 C 
ATOM     22  C   UNL     1      -2.771  17.435  22.995  0.00  0.00    +0.000 C 
ATOM     23  C   UNL     1      -4.136  18.043  22.675  0.00  0.00    +0.000 C 
ATOM     24  C   UNL     1      -5.046  18.076  23.898  0.00  0.00    +0.000 C 
ATOM     25  C   UNL     1      -5.170  16.708  24.558  0.00  0.00    +0.000 C 
ATOM     26  C   UNL     1      -3.807  16.090  24.868  0.00  0.00    +0.000 C 
ENDBRANCH  19  21
ENDBRANCH  10  17
BRANCH   1  27
ATOM     27  C   UNL     1      -2.533  11.820  18.131  0.00  0.00    +0.000 C 
BRANCH  27  29
ATOM     28  C   UNL     1      -2.949   9.670  16.793  0.00  0.00    +0.000 C 
ATOM     29  C   UNL     1      -2.252  10.306  17.997  0.00  0.00    +0.000 C 
ATOM     30  C   UNL     1      -0.746  10.048  17.929  0.00  0.00    +0.000 C 
ENDBRANCH  27  29
ENDBRANCH   1  27
TORSDOF 5
ENDMDL
MODEL 5
REMARK VINA RESULT:      -5.8      2.715      5.419
REMARK  Name = 
REMARK  7 active torsions:
REMARK  status: ('A' for Active; 'I' for Inactive)
REMARK    1  A    between atoms: C_1  and  C_2
REMARK    2  A    between atoms: C_2  and  C_3
REMARK    3  A    between atoms: C_2  and  C_4
REMARK    4  A    between atoms: C_4  and  N_5
REMARK    5  A    between atoms: C_14  and  C_15
REMARK    6  A    between atoms: N_17  and  C_18
REMARK    7  A    between atoms: C_24  and  C_25
REMARK                            x       y       z     vdW  Elec       q    Type
REMARK                         _______ _______ _______ _____ _____    ______ ____
ROOT
ATOM      1  N   UNL     1      -1.220  15.073  20.731  0.00  0.00    +0.000 N 
ATOM      2  C   UNL     1      -0.098  15.544  20.042  0.00  0.00    +0.000 C 
ATOM      3  O   UNL     1       0.224  16.729  20.006  0.00  0.00    +0.000 OA
ATOM      4  C   UNL     1       0.766  14.549  19.356  0.00  0.00    +0.000 A 
ATOM      5  C   UNL     1       1.862  15.025  18.617  0.00  0.00    +0.000 A 
ATOM      6  C   UNL     1       2.765  14.136  18.041  0.00  0.00    +0.000 A 
ATOM      7  C   UNL     1       2.590  12.767  18.214  0.00  0.00    +0.000 A 
ATOM      8  C   UNL     1       1.502  12.286  18.944  0.00  0.00    +0.000 A 
ATOM      9  C   UNL     1       0.556  13.171  19.496  0.00  0.00    +0.000 A 
ATOM     10  C   UNL     1      -0.618  12.661  20.316  0.00  0.00    +0.000 C 
ATOM     11  C   UNL     1      -1.749  13.716  20.418  0.00  0.00    +0.000 C 
ENDROOT
BRANCH  11  12
ATOM     12  C   UNL     1      -2.806  13.291  21.424  0.00  0.00    +0.000 A 
ATOM     13  C   UNL     1      -2.651  12.828  22.719  0.00  0.00    +0.000 A 
ATOM     14  C   UNL     1      -3.893  12.674  23.399  0.00  0.00    +0.000 A 
ATOM     15  C   UNL     1      -4.963  12.925  22.573  0.00  0.00    +0.000 A 
ATOM     16  S   UNL     1      -4.472  13.354  20.995  0.00  0.00    +0.000 S 
ENDBRANCH  11  12
BRANCH  10  17
ATOM     17  C   UNL     1      -1.176  11.329  19.794  0.00  0.00    +0.000 C 
ATOM     18  O   UNL     1      -0.850  10.262  20.309  0.00  0.00    +0.000 OA
ATOM     19  N   UNL     1      -2.045  11.397  18.719  0.00  0.00    +0.000 N 
ATOM     20  H   UNL     1      -2.075  12.254  18.177  0.00  0.00    +0.000 HD
BRANCH  19  21
ATOM     21  C   UNL     1      -2.601  10.188  18.109  0.00  0.00    +0.000 C 
ATOM     22  C   UNL     1      -4.132  10.252  18.053  0.00  0.00    +0.000 C 
ATOM     23  C   UNL     1      -4.653  11.212  16.984  0.00  0.00    +0.000 C 
ATOM     24  C   UNL     1      -4.064  10.910  15.611  0.00  0.00    +0.000 C 
ATOM     25  C   UNL     1      -2.540  10.859  15.639  0.00  0.00    +0.000 C 
ATOM     26  C   UNL     1      -2.014   9.910  16.715  0.00  0.00    +0.000 C 
ENDBRANCH  19  21
ENDBRANCH  10  17
BRANCH   1  27
ATOM     27  C   UNL     1      -2.061  16.095  21.386  0.00  0.00    +0.000 C 
BRANCH  27  29
ATOM     28  C   UNL     1      -0.437  15.568  23.302  0.00  0.00    +0.000 C 
ATOM     29  C   UNL     1      -1.635  16.400  22.840  0.00  0.00    +0.000 C 
ATOM     30  C   UNL     1      -1.333  17.891  23.004  0.00  0.00    +0.000 C 
ENDBRANCH  27  29
ENDBRANCH   1  27
TORSDOF 5
ENDMDL
MODEL 6
REMARK VINA RESULT:      -5.8      8.997     13.055
REMARK  Name = 
REMARK  7 active torsions:
REMARK  status: ('A' for Active; 'I' for Inactive)
REMARK    1  A    between atoms: C_1  and  C_2
REMARK    2  A    between atoms: C_2  and  C_3
REMARK    3  A    between atoms: C_2  and  C_4
REMARK    4  A    between atoms: C_4  and  N_5
REMARK    5  A    between atoms: C_14  and  C_15
REMARK    6  A    between atoms: N_17  and  C_18
REMARK    7  A    between atoms: C_24  and  C_25
REMARK                            x       y       z     vdW  Elec       q    Type
REMARK                         _______ _______ _______ _____ _____    ______ ____
ROOT
ATOM      1  N   UNL     1       9.888  13.680  20.181  0.00  0.00    +0.000 N 
ATOM      2  C   UNL     1       9.630  12.595  21.024  0.00  0.00    +0.000 C 
ATOM      3  O   UNL     1      10.297  11.563  21.019  0.00  0.00    +0.000 OA
ATOM      4  C   UNL     1       8.518  12.721  22.000  0.00  0.00    +0.000 A 
ATOM      5  C   UNL     1       8.222  11.612  22.810  0.00  0.00    +0.000 A 
ATOM      6  C   UNL     1       7.262  11.705  23.813  0.00  0.00    +0.000 A 
ATOM      7  C   UNL     1       6.603  12.912  24.026  0.00  0.00    +0.000 A 
ATOM      8  C   UNL     1       6.890  14.018  23.225  0.00  0.00    +0.000 A 
ATOM      9  C   UNL     1       7.827  13.927  22.177  0.00  0.00    +0.000 A 
ATOM     10  C   UNL     1       8.167  15.131  21.315  0.00  0.00    +0.000 C 
ATOM     11  C   UNL     1       8.832  14.712  19.979  0.00  0.00    +0.000 C 
ENDROOT
BRANCH  11  12
ATOM     12  C   UNL     1       9.376  15.919  19.234  0.00  0.00    +0.000 A 
ATOM     13  C   UNL     1       9.075  16.378  17.963  0.00  0.00    +0.000 A 
ATOM     14  C   UNL     1       9.683  17.633  17.674  0.00  0.00    +0.000 A 
ATOM     15  C   UNL     1      10.510  18.047  18.691  0.00  0.00    +0.000 A 
ATOM     16  S   UNL     1      10.544  16.935  19.987  0.00  0.00    +0.000 S 
ENDBRANCH  11  12
BRANCH  10  17
ATOM     17  C   UNL     1       6.954  16.034  21.048  0.00  0.00    +0.000 C 
ATOM     18  O   UNL     1       6.887  17.162  21.532  0.00  0.00    +0.000 OA
ATOM     19  N   UNL     1       5.952  15.509  20.251  0.00  0.00    +0.000 N 
ATOM     20  H   UNL     1       5.933  14.508  20.097  0.00  0.00    +0.000 HD
BRANCH  19  21
ATOM     21  C   UNL     1       4.729  16.263  19.967  0.00  0.00    +0.000 C 
ATOM     22  C   UNL     1       4.589  16.544  18.467  0.00  0.00    +0.000 C 
ATOM     23  C   UNL     1       4.194  15.309  17.659  0.00  0.00    +0.000 C 
ATOM     24  C   UNL     1       2.940  14.642  18.214  0.00  0.00    +0.000 C 
ATOM     25  C   UNL     1       3.063  14.337  19.702  0.00  0.00    +0.000 C 
ATOM     26  C   UNL     1       3.471  15.567  20.513  0.00  0.00    +0.000 C 
ENDBRANCH  19  21
ENDBRANCH  10  17
BRANCH   1  27
ATOM     27  C   UNL     1      10.992  13.509  19.214  0.00  0.00    +0.000 C 
BRANCH  27  29
ATOM     28  C   UNL     1      11.303  13.656  16.671  0.00  0.00    +0.000 C 
ATOM     29  C   UNL     1      10.522  13.023  17.825  0.00  0.00    +0.000 C 
ATOM     30  C   UNL     1      10.604  11.498  17.739  0.00  0.00    +0.000 C 
ENDBRANCH  27  29
ENDBRANCH   1  27
TORSDOF 5
ENDMDL
MODEL 7
REMARK VINA RESULT:      -5.8      8.475     12.562
REMARK  Name = 
REMARK  7 active torsions:
REMARK  status: ('A' for Active; 'I' for Inactive)
REMARK    1  A    between atoms: C_1  and  C_2
REMARK    2  A    between atoms: C_2  and  C_3
REMARK    3  A    between atoms: C_2  and  C_4
REMARK    4  A    between atoms: C_4  and  N_5
REMARK    5  A    between atoms: C_14  and  C_15
REMARK    6  A    between atoms: N_17  and  C_18
REMARK    7  A    between atoms: C_24  and  C_25
REMARK                            x       y       z     vdW  Elec       q    Type
REMARK                         _______ _______ _______ _____ _____    ______ ____
ROOT
ATOM      1  N   UNL     1       9.033  12.591  21.100  0.00  0.00    +0.000 N 
ATOM      2  C   UNL     1       8.494  11.831  22.142  0.00  0.00    +0.000 C 
ATOM      3  O   UNL     1       8.854  10.684  22.398  0.00  0.00    +0.000 OA
ATOM      4  C   UNL     1       7.463  12.463  23.004  0.00  0.00    +0.000 A 
ATOM      5  C   UNL     1       6.880  11.683  24.016  0.00  0.00    +0.000 A 
ATOM      6  C   UNL     1       5.987  12.251  24.920  0.00  0.00    +0.000 A 
ATOM      7  C   UNL     1       5.683  13.606  24.830  0.00  0.00    +0.000 A 
ATOM      8  C   UNL     1       6.256  14.387  23.825  0.00  0.00    +0.000 A 
ATOM      9  C   UNL     1       7.128  13.818  22.877  0.00  0.00    +0.000 A 
ATOM     10  C   UNL     1       7.779  14.663  21.795  0.00  0.00    +0.000 C 
ATOM     11  C   UNL     1       8.297  13.794  20.620  0.00  0.00    +0.000 C 
ENDROOT
BRANCH  11  12
ATOM     12  C   UNL     1       9.146  14.615  19.664  0.00  0.00    +0.000 A 
ATOM     13  C   UNL     1       8.948  14.881  18.320  0.00  0.00    +0.000 A 
ATOM     14  C   UNL     1       9.888  15.817  17.802  0.00  0.00    +0.000 A 
ATOM     15  C   UNL     1      10.837  16.161  18.736  0.00  0.00    +0.000 A 
ATOM     16  S   UNL     1      10.588  15.368  20.228  0.00  0.00    +0.000 S 
ENDBRANCH  11  12
BRANCH  10  17
ATOM     17  C   UNL     1       6.856  15.773  21.271  0.00  0.00    +0.000 C 
ATOM     18  O   UNL     1       7.105  16.957  21.488  0.00  0.00    +0.000 OA
ATOM     19  N   UNL     1       5.740  15.370  20.559  0.00  0.00    +0.000 N 
ATOM     20  H   UNL     1       5.446  14.403  20.631  0.00  0.00    +0.000 HD
BRANCH  19  21
ATOM     21  C   UNL     1       4.767  16.340  20.052  0.00  0.00    +0.000 C 
ATOM     22  C   UNL     1       4.892  16.503  18.533  0.00  0.00    +0.000 C 
ATOM     23  C   UNL     1       4.335  15.312  17.754  0.00  0.00    +0.000 C 
ATOM     24  C   UNL     1       2.901  14.986  18.157  0.00  0.00    +0.000 C 
ATOM     25  C   UNL     1       2.757  14.801  19.664  0.00  0.00    +0.000 C 
ATOM     26  C   UNL     1       3.324  15.985  20.447  0.00  0.00    +0.000 C 
ENDBRANCH  19  21
ENDBRANCH  10  17
BRANCH   1  27
ATOM     27  C   UNL     1      10.044  11.920  20.257  0.00  0.00    +0.000 C 
BRANCH  27  29
ATOM     28  C   UNL     1      10.416  11.553  17.745  0.00  0.00    +0.000 C 
ATOM     29  C   UNL     1       9.471  11.367  18.934  0.00  0.00    +0.000 C 
ATOM     30  C   UNL     1       9.108   9.888  19.088  0.00  0.00    +0.000 C 
ENDBRANCH  27  29
ENDBRANCH   1  27
TORSDOF 5
ENDMDL
MODEL 8
REMARK VINA RESULT:      -5.7      2.418      3.180
REMARK  Name = 
REMARK  7 active torsions:
REMARK  status: ('A' for Active; 'I' for Inactive)
REMARK    1  A    between atoms: C_1  and  C_2
REMARK    2  A    between atoms: C_2  and  C_3
REMARK    3  A    between atoms: C_2  and  C_4
REMARK    4  A    between atoms: C_4  and  N_5
REMARK    5  A    between atoms: C_14  and  C_15
REMARK    6  A    between atoms: N_17  and  C_18
REMARK    7  A    between atoms: C_24  and  C_25
REMARK                            x       y       z     vdW  Elec       q    Type
REMARK                         _______ _______ _______ _____ _____    ______ ____
ROOT
ATOM      1  N   UNL     1      -4.266  13.044  20.618  0.00  0.00    +0.000 N 
ATOM      2  C   UNL     1      -4.939  12.380  19.587  0.00  0.00    +0.000 C 
ATOM      3  O   UNL     1      -6.163  12.317  19.511  0.00  0.00    +0.000 OA
ATOM      4  C   UNL     1      -4.124  11.755  18.513  0.00  0.00    +0.000 A 
ATOM      5  C   UNL     1      -4.796  11.040  17.508  0.00  0.00    +0.000 A 
ATOM      6  C   UNL     1      -4.096  10.524  16.421  0.00  0.00    +0.000 A 
ATOM      7  C   UNL     1      -2.724  10.733  16.322  0.00  0.00    +0.000 A 
ATOM      8  C   UNL     1      -2.049  11.441  17.319  0.00  0.00    +0.000 A 
ATOM      9  C   UNL     1      -2.736  11.932  18.446  0.00  0.00    +0.000 A 
ATOM     10  C   UNL     1      -2.018  12.727  19.524  0.00  0.00    +0.000 C 
ATOM     11  C   UNL     1      -2.823  12.756  20.848  0.00  0.00    +0.000 C 
ENDROOT
BRANCH  11  12
ATOM     12  C   UNL     1      -2.216  13.738  21.837  0.00  0.00    +0.000 A 
ATOM     13  C   UNL     1      -1.724  13.512  23.111  0.00  0.00    +0.000 A 
ATOM     14  C   UNL     1      -1.098  14.663  23.670  0.00  0.00    +0.000 A 
ATOM     15  C   UNL     1      -1.219  15.760  22.850  0.00  0.00    +0.000 A 
ATOM     16  S   UNL     1      -2.072  15.400  21.414  0.00  0.00    +0.000 S 
ENDBRANCH  11  12
BRANCH  10  17
ATOM     17  C   UNL     1      -0.588  12.227  19.779  0.00  0.00    +0.000 C 
ATOM     18  O   UNL     1      -0.384  11.171  20.374  0.00  0.00    +0.000 OA
ATOM     19  N   UNL     1       0.442  13.028  19.318  0.00  0.00    +0.000 N 
ATOM     20  H   UNL     1       0.233  13.990  19.075  0.00  0.00    +0.000 HD
BRANCH  19  21
ATOM     21  C   UNL     1       1.844  12.675  19.546  0.00  0.00    +0.000 C 
ATOM     22  C   UNL     1       2.691  12.944  18.296  0.00  0.00    +0.000 C 
ATOM     23  C   UNL     1       2.950  14.430  18.056  0.00  0.00    +0.000 C 
ATOM     24  C   UNL     1       3.545  15.112  19.282  0.00  0.00    +0.000 C 
ATOM     25  C   UNL     1       2.709  14.873  20.534  0.00  0.00    +0.000 C 
ATOM     26  C   UNL     1       2.437  13.388  20.772  0.00  0.00    +0.000 C 
ENDBRANCH  19  21
ENDBRANCH  10  17
BRANCH   1  27
ATOM     27  C   UNL     1      -5.112  13.638  21.674  0.00  0.00    +0.000 C 
BRANCH  27  29
ATOM     28  C   UNL     1      -5.028  12.851  24.115  0.00  0.00    +0.000 C 
ATOM     29  C   UNL     1      -5.602  12.610  22.717  0.00  0.00    +0.000 C 
ATOM     30  C   UNL     1      -7.131  12.597  22.774  0.00  0.00    +0.000 C 
ENDBRANCH  27  29
ENDBRANCH   1  27
TORSDOF 5
ENDMDL
MODEL 9
REMARK VINA RESULT:      -5.7      2.358      3.264
REMARK  Name = 
REMARK  7 active torsions:
REMARK  status: ('A' for Active; 'I' for Inactive)
REMARK    1  A    between atoms: C_1  and  C_2
REMARK    2  A    between atoms: C_2  and  C_3
REMARK    3  A    between atoms: C_2  and  C_4
REMARK    4  A    between atoms: C_4  and  N_5
REMARK    5  A    between atoms: C_14  and  C_15
REMARK    6  A    between atoms: N_17  and  C_18
REMARK    7  A    between atoms: C_24  and  C_25
REMARK                            x       y       z     vdW  Elec       q    Type
REMARK                         _______ _______ _______ _____ _____    ______ ____
ROOT
ATOM      1  N   UNL     1      -4.287  12.683  20.437  0.00  0.00    +0.000 N 
ATOM      2  C   UNL     1      -4.935  12.095  19.346  0.00  0.00    +0.000 C 
ATOM      3  O   UNL     1      -6.156  12.000  19.257  0.00  0.00    +0.000 OA
ATOM      4  C   UNL     1      -4.097  11.600  18.223  0.00  0.00    +0.000 A 
ATOM      5  C   UNL     1      -4.742  10.959  17.152  0.00  0.00    +0.000 A 
ATOM      6  C   UNL     1      -4.023  10.568  16.026  0.00  0.00    +0.000 A 
ATOM      7  C   UNL     1      -2.658  10.831  15.955  0.00  0.00    +0.000 A 
ATOM      8  C   UNL     1      -2.010  11.464  17.016  0.00  0.00    +0.000 A 
ATOM      9  C   UNL     1      -2.715  11.827  18.180  0.00  0.00    +0.000 A 
ATOM     10  C   UNL     1      -2.027  12.541  19.331  0.00  0.00    +0.000 C 
ATOM     11  C   UNL     1      -2.835  12.422  20.648  0.00  0.00    +0.000 C 
ENDROOT
BRANCH  11  12
ATOM     12  C   UNL     1      -2.264  13.327  21.726  0.00  0.00    +0.000 A 
ATOM     13  C   UNL     1      -1.879  14.655  21.647  0.00  0.00    +0.000 A 
ATOM     14  C   UNL     1      -1.530  15.201  22.915  0.00  0.00    +0.000 A 
ATOM     15  C   UNL     1      -1.560  14.252  23.908  0.00  0.00    +0.000 A 
ATOM     16  S   UNL     1      -2.016  12.715  23.316  0.00  0.00    +0.000 S 
ENDBRANCH  11  12
BRANCH  10  17
ATOM     17  C   UNL     1      -0.582  12.067  19.547  0.00  0.00    +0.000 C 
ATOM     18  O   UNL     1      -0.344  10.941  19.978  0.00  0.00    +0.000 OA
ATOM     19  N   UNL     1       0.421  12.972  19.243  0.00  0.00    +0.000 N 
ATOM     20  H   UNL     1       0.175  13.950  19.144  0.00  0.00    +0.000 HD
BRANCH  19  21
ATOM     21  C   UNL     1       1.833  12.644  19.454  0.00  0.00    +0.000 C 
ATOM     22  C   UNL     1       2.667  12.974  18.210  0.00  0.00    +0.000 C 
ATOM     23  C   UNL     1       2.888  14.474  18.018  0.00  0.00    +0.000 C 
ATOM     24  C   UNL     1       3.474  15.130  19.263  0.00  0.00    +0.000 C 
ATOM     25  C   UNL     1       2.649  14.829  20.510  0.00  0.00    +0.000 C 
ATOM     26  C   UNL     1       2.414  13.331  20.701  0.00  0.00    +0.000 C 
ENDBRANCH  19  21
ENDBRANCH  10  17
BRANCH   1  27
ATOM     27  C   UNL     1      -5.154  13.148  21.538  0.00  0.00    +0.000 C 
BRANCH  27  29
ATOM     28  C   UNL     1      -6.899  14.918  20.899  0.00  0.00    +0.000 C 
ATOM     29  C   UNL     1      -5.498  14.652  21.455  0.00  0.00    +0.000 C 
ATOM     30  C   UNL     1      -5.346  15.309  22.828  0.00  0.00    +0.000 C 
ENDBRANCH  27  29
ENDBRANCH   1  27
TORSDOF 5
ENDMDL
