MODEL 1
REMARK VINA RESULT:      -6.4      0.000      0.000
REMARK  Name = 
REMARK  5 active torsions:
REMARK  status: ('A' for Active; 'I' for Inactive)
REMARK    1  A    between atoms: C_1  and  O_2
REMARK    2  A    between atoms: O_2  and  C_3
REMARK    3  A    between atoms: C_6  and  N_7
REMARK    4  A    between atoms: C_8  and  C_10
REMARK    5  A    between atoms: C_13  and  C_14
REMARK                            x       y       z     vdW  Elec       q    Type
REMARK                         _______ _______ _______ _____ _____    ______ ____
ROOT
ATOM      1  N   UNL     1       4.112   3.788  16.432  0.00  0.00    +0.000 N 
ATOM      2  C   UNL     1       5.440   4.176  16.547  0.00  0.00    +0.000 C 
ATOM      3  O   UNL     1       6.036   4.312  17.610  0.00  0.00    +0.000 OA
ATOM      4  H   UNL     1       3.780   3.511  15.520  0.00  0.00    +0.000 HD
ENDROOT
BRANCH   1   8
ATOM      5  C   UNL     1       1.603   3.125  19.789  0.00  0.00    +0.000 A 
ATOM      6  C   UNL     1       1.615   4.367  19.165  0.00  0.00    +0.000 A 
ATOM      7  C   UNL     1       2.412   4.590  18.039  0.00  0.00    +0.000 A 
ATOM      8  C   UNL     1       3.236   3.585  17.531  0.00  0.00    +0.000 A 
ATOM      9  C   UNL     1       3.196   2.324  18.138  0.00  0.00    +0.000 A 
ATOM     10  C   UNL     1       2.393   2.099  19.271  0.00  0.00    +0.000 A 
BRANCH   5  12
ATOM     11  C   UNL     1       1.405   2.448  22.048  0.00  0.00    +0.000 C 
ATOM     12  O   UNL     1       0.820   3.058  20.906  0.00  0.00    +0.000 OA
ENDBRANCH   5  12
ENDBRANCH   1   8
BRANCH   2  13
ATOM     13  C   UNL     1       6.160   4.399  15.301  0.00  0.00    +0.000 A 
ATOM     14  C   UNL     1       7.177   5.334  15.219  0.00  0.00    +0.000 A 
ATOM     15  O   UNL     1       7.673   5.419  13.967  0.00  0.00    +0.000 OA
ATOM     16  C   UNL     1       6.976   4.535  13.206  0.00  0.00    +0.000 A 
ATOM     17  C   UNL     1       7.334   4.514  11.773  0.00  0.00    +0.000 C 
ATOM     18  C   UNL     1       6.050   3.861  13.982  0.00  0.00    +0.000 A 
ENDBRANCH   2  13
TORSDOF 3
ENDMDL
MODEL 2
REMARK VINA RESULT:      -6.3      0.158      1.169
REMARK  Name = 
REMARK  5 active torsions:
REMARK  status: ('A' for Active; 'I' for Inactive)
REMARK    1  A    between atoms: C_1  and  O_2
REMARK    2  A    between atoms: O_2  and  C_3
REMARK    3  A    between atoms: C_6  and  N_7
REMARK    4  A    between atoms: C_8  and  C_10
REMARK    5  A    between atoms: C_13  and  C_14
REMARK                            x       y       z     vdW  Elec       q    Type
REMARK                         _______ _______ _______ _____ _____    ______ ____
ROOT
ATOM      1  N   UNL     1       4.243   3.770  16.495  0.00  0.00    +0.000 N 
ATOM      2  C   UNL     1       5.562   4.193  16.579  0.00  0.00    +0.000 C 
ATOM      3  O   UNL     1       6.175   4.359  17.629  0.00  0.00    +0.000 OA
ATOM      4  H   UNL     1       3.902   3.472  15.592  0.00  0.00    +0.000 HD
ENDROOT
BRANCH   1   8
ATOM      5  C   UNL     1       1.600   3.215  19.767  0.00  0.00    +0.000 A 
ATOM      6  C   UNL     1       2.286   2.129  19.236  0.00  0.00    +0.000 A 
ATOM      7  C   UNL     1       3.185   2.302  18.180  0.00  0.00    +0.000 A 
ATOM      8  C   UNL     1       3.393   3.560  17.611  0.00  0.00    +0.000 A 
ATOM      9  C   UNL     1       2.728   4.658  18.170  0.00  0.00    +0.000 A 
ATOM     10  C   UNL     1       1.825   4.484  19.234  0.00  0.00    +0.000 A 
BRANCH   5  12
ATOM     11  C   UNL     1       1.281   2.564  22.020  0.00  0.00    +0.000 C 
ATOM     12  O   UNL     1       0.718   2.899  20.760  0.00  0.00    +0.000 OA
ENDBRANCH   5  12
ENDBRANCH   1   8
BRANCH   2  13
ATOM     13  C   UNL     1       6.254   4.418  15.317  0.00  0.00    +0.000 A 
ATOM     14  C   UNL     1       7.290   5.329  15.220  0.00  0.00    +0.000 A 
ATOM     15  O   UNL     1       7.754   5.421  13.956  0.00  0.00    +0.000 OA
ATOM     16  C   UNL     1       7.016   4.564  13.202  0.00  0.00    +0.000 A 
ATOM     17  C   UNL     1       7.334   4.556  11.760  0.00  0.00    +0.000 C 
ATOM     18  C   UNL     1       6.095   3.901  13.994  0.00  0.00    +0.000 A 
ENDBRANCH   2  13
TORSDOF 3
ENDMDL
MODEL 3
REMARK VINA RESULT:      -6.1      4.079      7.708
REMARK  Name = 
REMARK  5 active torsions:
REMARK  status: ('A' for Active; 'I' for Inactive)
REMARK    1  A    between atoms: C_1  and  O_2
REMARK    2  A    between atoms: O_2  and  C_3
REMARK    3  A    between atoms: C_6  and  N_7
REMARK    4  A    between atoms: C_8  and  C_10
REMARK    5  A    between atoms: C_13  and  C_14
REMARK                            x       y       z     vdW  Elec       q    Type
REMARK                         _______ _______ _______ _____ _____    ______ ____
ROOT
ATOM      1  N   UNL     1       2.855   6.812  18.820  0.00  0.00    +0.000 N 
ATOM      2  C   UNL     1       2.243   8.026  18.538  0.00  0.00    +0.000 C 
ATOM      3  O   UNL     1       2.259   8.576  17.442  0.00  0.00    +0.000 OA
ATOM      4  H   UNL     1       2.613   6.353  19.686  0.00  0.00    +0.000 HD
ENDROOT
BRANCH   1   8
ATOM      5  C   UNL     1       5.145   4.593  16.021  0.00  0.00    +0.000 A 
ATOM      6  C   UNL     1       5.425   5.937  16.238  0.00  0.00    +0.000 A 
ATOM      7  C   UNL     1       4.701   6.672  17.180  0.00  0.00    +0.000 A 
ATOM      8  C   UNL     1       3.661   6.087  17.904  0.00  0.00    +0.000 A 
ATOM      9  C   UNL     1       3.403   4.724  17.711  0.00  0.00    +0.000 A 
ATOM     10  C   UNL     1       4.133   3.984  16.763  0.00  0.00    +0.000 A 
BRANCH   5  12
ATOM     11  C   UNL     1       6.899   4.816  14.448  0.00  0.00    +0.000 C 
ATOM     12  O   UNL     1       5.892   4.008  15.039  0.00  0.00    +0.000 OA
ENDBRANCH   5  12
ENDBRANCH   1   8
BRANCH   2  13
ATOM     13  C   UNL     1       1.510   8.652  19.630  0.00  0.00    +0.000 A 
ATOM     14  C   UNL     1       0.941   9.905  19.486  0.00  0.00    +0.000 A 
ATOM     15  O   UNL     1       0.357  10.320  20.629  0.00  0.00    +0.000 OA
ATOM     16  C   UNL     1       0.545   9.335  21.547  0.00  0.00    +0.000 A 
ATOM     17  C   UNL     1       0.022   9.623  22.899  0.00  0.00    +0.000 C 
ATOM     18  C   UNL     1       1.226   8.274  20.978  0.00  0.00    +0.000 A 
ENDBRANCH   2  13
TORSDOF 3
ENDMDL
MODEL 4
REMARK VINA RESULT:      -6.0      4.116      7.811
REMARK  Name = 
REMARK  5 active torsions:
REMARK  status: ('A' for Active; 'I' for Inactive)
REMARK    1  A    between atoms: C_1  and  O_2
REMARK    2  A    between atoms: O_2  and  C_3
REMARK    3  A    between atoms: C_6  and  N_7
REMARK    4  A    between atoms: C_8  and  C_10
REMARK    5  A    between atoms: C_13  and  C_14
REMARK                            x       y       z     vdW  Elec       q    Type
REMARK                         _______ _______ _______ _____ _____    ______ ____
ROOT
ATOM      1  N   UNL     1       2.781   6.850  18.804  0.00  0.00    +0.000 N 
ATOM      2  C   UNL     1       2.186   8.079  18.554  0.00  0.00    +0.000 C 
ATOM      3  O   UNL     1       2.207   8.655  17.470  0.00  0.00    +0.000 OA
ATOM      4  H   UNL     1       2.535   6.374  19.660  0.00  0.00    +0.000 HD
ENDROOT
BRANCH   1   8
ATOM      5  C   UNL     1       5.264   4.762  16.070  0.00  0.00    +0.000 A 
ATOM      6  C   UNL     1       4.234   4.094  16.724  0.00  0.00    +0.000 A 
ATOM      7  C   UNL     1       3.388   4.777  17.601  0.00  0.00    +0.000 A 
ATOM      8  C   UNL     1       3.572   6.135  17.869  0.00  0.00    +0.000 A 
ATOM      9  C   UNL     1       4.587   6.813  17.183  0.00  0.00    +0.000 A 
ATOM     10  C   UNL     1       5.438   6.127  16.298  0.00  0.00    +0.000 A 
BRANCH   5  12
ATOM     11  C   UNL     1       6.789   4.626  14.266  0.00  0.00    +0.000 C 
ATOM     12  O   UNL     1       6.045   3.967  15.281  0.00  0.00    +0.000 OA
ENDBRANCH   5  12
ENDBRANCH   1   8
BRANCH   2  13
ATOM     13  C   UNL     1       1.467   8.691  19.663  0.00  0.00    +0.000 A 
ATOM     14  C   UNL     1       0.896   9.945  19.543  0.00  0.00    +0.000 A 
ATOM     15  O   UNL     1       0.326  10.344  20.698  0.00  0.00    +0.000 OA
ATOM     16  C   UNL     1       0.525   9.347  21.601  0.00  0.00    +0.000 A 
ATOM     17  C   UNL     1       0.019   9.616  22.962  0.00  0.00    +0.000 C 
ATOM     18  C   UNL     1       1.199   8.294  21.009  0.00  0.00    +0.000 A 
ENDBRANCH   2  13
TORSDOF 3
ENDMDL
MODEL 5
REMARK VINA RESULT:      -6.0      2.730      3.440
REMARK  Name = 
REMARK  5 active torsions:
REMARK  status: ('A' for Active; 'I' for Inactive)
REMARK    1  A    between atoms: C_1  and  O_2
REMARK    2  A    between atoms: O_2  and  C_3
REMARK    3  A    between atoms: C_6  and  N_7
REMARK    4  A    between atoms: C_8  and  C_10
REMARK    5  A    between atoms: C_13  and  C_14
REMARK                            x       y       z     vdW  Elec       q    Type
REMARK                         _______ _______ _______ _____ _____    ______ ____
ROOT
ATOM      1  N   UNL     1       3.830   5.784  17.323  0.00  0.00    +0.000 N 
ATOM      2  C   UNL     1       5.213   5.803  17.212  0.00  0.00    +0.000 C 
ATOM      3  O   UNL     1       5.973   6.275  18.051  0.00  0.00    +0.000 OA
ATOM      4  H   UNL     1       3.314   5.198  16.683  0.00  0.00    +0.000 HD
ENDROOT
BRANCH   1   8
ATOM      5  C   UNL     1       1.551   7.639  20.384  0.00  0.00    +0.000 A 
ATOM      6  C   UNL     1       1.973   6.322  20.532  0.00  0.00    +0.000 A 
ATOM      7  C   UNL     1       2.752   5.710  19.547  0.00  0.00    +0.000 A 
ATOM      8  C   UNL     1       3.100   6.389  18.379  0.00  0.00    +0.000 A 
ATOM      9  C   UNL     1       2.705   7.726  18.247  0.00  0.00    +0.000 A 
ATOM     10  C   UNL     1       1.922   8.344  19.239  0.00  0.00    +0.000 A 
BRANCH   5  12
ATOM     11  C   UNL     1       1.142   9.330  21.989  0.00  0.00    +0.000 C 
ATOM     12  O   UNL     1       0.757   8.098  21.395  0.00  0.00    +0.000 OA
ENDBRANCH   5  12
ENDBRANCH   1   8
BRANCH   2  13
ATOM     13  C   UNL     1       5.777   5.184  16.020  0.00  0.00    +0.000 A 
ATOM     14  C   UNL     1       7.136   5.226  15.765  0.00  0.00    +0.000 A 
ATOM     15  O   UNL     1       7.439   4.642  14.587  0.00  0.00    +0.000 OA
ATOM     16  C   UNL     1       6.268   4.210  14.049  0.00  0.00    +0.000 A 
ATOM     17  C   UNL     1       6.378   3.583  12.715  0.00  0.00    +0.000 C 
ATOM     18  C   UNL     1       5.215   4.495  14.901  0.00  0.00    +0.000 A 
ENDBRANCH   2  13
TORSDOF 3
ENDMDL
MODEL 6
REMARK VINA RESULT:      -6.0      2.694      3.239
REMARK  Name = 
REMARK  5 active torsions:
REMARK  status: ('A' for Active; 'I' for Inactive)
REMARK    1  A    between atoms: C_1  and  O_2
REMARK    2  A    between atoms: O_2  and  C_3
REMARK    3  A    between atoms: C_6  and  N_7
REMARK    4  A    between atoms: C_8  and  C_10
REMARK    5  A    between atoms: C_13  and  C_14
REMARK                            x       y       z     vdW  Elec       q    Type
REMARK                         _______ _______ _______ _____ _____    ______ ____
ROOT
ATOM      1  N   UNL     1       3.741   5.833  17.335  0.00  0.00    +0.000 N 
ATOM      2  C   UNL     1       5.127   5.784  17.282  0.00  0.00    +0.000 C 
ATOM      3  O   UNL     1       5.872   6.192  18.168  0.00  0.00    +0.000 OA
ATOM      4  H   UNL     1       3.225   5.292  16.656  0.00  0.00    +0.000 HD
ENDROOT
BRANCH   1   8
ATOM      5  C   UNL     1       1.612   7.612  20.545  0.00  0.00    +0.000 A 
ATOM      6  C   UNL     1       1.912   8.358  19.411  0.00  0.00    +0.000 A 
ATOM      7  C   UNL     1       2.583   7.776  18.333  0.00  0.00    +0.000 A 
ATOM      8  C   UNL     1       2.997   6.444  18.377  0.00  0.00    +0.000 A 
ATOM      9  C   UNL     1       2.664   5.683  19.505  0.00  0.00    +0.000 A 
ATOM     10  C   UNL     1       1.986   6.269  20.590  0.00  0.00    +0.000 A 
BRANCH   5  12
ATOM     11  C   UNL     1      -0.411   8.452  21.441  0.00  0.00    +0.000 C 
ATOM     12  O   UNL     1       0.999   8.314  21.543  0.00  0.00    +0.000 OA
ENDBRANCH   5  12
ENDBRANCH   1   8
BRANCH   2  13
ATOM     13  C   UNL     1       5.711   5.171  16.097  0.00  0.00    +0.000 A 
ATOM     14  C   UNL     1       7.077   5.183  15.883  0.00  0.00    +0.000 A 
ATOM     15  O   UNL     1       7.401   4.611  14.705  0.00  0.00    +0.000 OA
ATOM     16  C   UNL     1       6.236   4.219  14.124  0.00  0.00    +0.000 A 
ATOM     17  C   UNL     1       6.370   3.613  12.783  0.00  0.00    +0.000 C 
ATOM     18  C   UNL     1       5.166   4.516  14.950  0.00  0.00    +0.000 A 
ENDBRANCH   2  13
TORSDOF 3
ENDMDL
MODEL 7
REMARK VINA RESULT:      -5.9      1.063      1.193
REMARK  Name = 
REMARK  5 active torsions:
REMARK  status: ('A' for Active; 'I' for Inactive)
REMARK    1  A    between atoms: C_1  and  O_2
REMARK    2  A    between atoms: O_2  and  C_3
REMARK    3  A    between atoms: C_6  and  N_7
REMARK    4  A    between atoms: C_8  and  C_10
REMARK    5  A    between atoms: C_13  and  C_14
REMARK                            x       y       z     vdW  Elec       q    Type
REMARK                         _______ _______ _______ _____ _____    ______ ____
ROOT
ATOM      1  N   UNL     1       4.345   4.865  16.684  0.00  0.00    +0.000 N 
ATOM      2  C   UNL     1       5.205   3.902  16.176  0.00  0.00    +0.000 C 
ATOM      3  O   UNL     1       5.259   2.740  16.568  0.00  0.00    +0.000 OA
ATOM      4  H   UNL     1       4.238   5.723  16.161  0.00  0.00    +0.000 HD
ENDROOT
BRANCH   1   8
ATOM      5  C   UNL     1       1.728   4.130  19.941  0.00  0.00    +0.000 A 
ATOM      6  C   UNL     1       2.940   4.776  20.156  0.00  0.00    +0.000 A 
ATOM      7  C   UNL     1       3.796   5.054  19.087  0.00  0.00    +0.000 A 
ATOM      8  C   UNL     1       3.474   4.665  17.786  0.00  0.00    +0.000 A 
ATOM      9  C   UNL     1       2.238   4.046  17.567  0.00  0.00    +0.000 A 
ATOM     10  C   UNL     1       1.374   3.767  18.641  0.00  0.00    +0.000 A 
BRANCH   5  12
ATOM     11  C   UNL     1       1.323   2.671  21.761  0.00  0.00    +0.000 C 
ATOM     12  O   UNL     1       1.011   3.875  21.075  0.00  0.00    +0.000 OA
ENDBRANCH   5  12
ENDBRANCH   1   8
BRANCH   2  13
ATOM     13  C   UNL     1       6.071   4.317  15.081  0.00  0.00    +0.000 A 
ATOM     14  C   UNL     1       7.113   5.203  15.287  0.00  0.00    +0.000 A 
ATOM     15  O   UNL     1       7.754   5.493  14.137  0.00  0.00    +0.000 OA
ATOM     16  C   UNL     1       7.129   4.796  13.151  0.00  0.00    +0.000 A 
ATOM     17  C   UNL     1       7.651   5.023  11.787  0.00  0.00    +0.000 C 
ATOM     18  C   UNL     1       6.102   4.035  13.680  0.00  0.00    +0.000 A 
ENDBRANCH   2  13
TORSDOF 3
ENDMDL
MODEL 8
REMARK VINA RESULT:      -5.9      5.093      8.359
REMARK  Name = 
REMARK  5 active torsions:
REMARK  status: ('A' for Active; 'I' for Inactive)
REMARK    1  A    between atoms: C_1  and  O_2
REMARK    2  A    between atoms: O_2  and  C_3
REMARK    3  A    between atoms: C_6  and  N_7
REMARK    4  A    between atoms: C_8  and  C_10
REMARK    5  A    between atoms: C_13  and  C_14
REMARK                            x       y       z     vdW  Elec       q    Type
REMARK                         _______ _______ _______ _____ _____    ______ ____
ROOT
ATOM      1  N   UNL     1       1.449   7.227  21.027  0.00  0.00    +0.000 N 
ATOM      2  C   UNL     1       1.212   8.494  20.512  0.00  0.00    +0.000 C 
ATOM      3  O   UNL     1       1.473   8.839  19.364  0.00  0.00    +0.000 OA
ATOM      4  H   UNL     1       1.016   6.988  21.907  0.00  0.00    +0.000 HD
ENDROOT
BRANCH   1   8
ATOM      5  C   UNL     1       3.296   4.050  18.906  0.00  0.00    +0.000 A 
ATOM      6  C   UNL     1       3.612   5.368  18.598  0.00  0.00    +0.000 A 
ATOM      7  C   UNL     1       3.037   6.423  19.310  0.00  0.00    +0.000 A 
ATOM      8  C   UNL     1       2.109   6.185  20.325  0.00  0.00    +0.000 A 
ATOM      9  C   UNL     1       1.817   4.856  20.658  0.00  0.00    +0.000 A 
ATOM     10  C   UNL     1       2.398   3.794  19.942  0.00  0.00    +0.000 A 
BRANCH   5  12
ATOM     11  C   UNL     1       3.369   1.800  18.175  0.00  0.00    +0.000 C 
ATOM     12  O   UNL     1       3.889   3.120  18.101  0.00  0.00    +0.000 OA
ENDBRANCH   5  12
ENDBRANCH   1   8
BRANCH   2  13
ATOM     13  C   UNL     1       0.579   9.451  21.409  0.00  0.00    +0.000 A 
ATOM     14  C   UNL     1       0.638   9.295  22.782  0.00  0.00    +0.000 A 
ATOM     15  O   UNL     1      -0.055  10.259  23.422  0.00  0.00    +0.000 OA
ATOM     16  C   UNL     1      -0.586  11.065  22.465  0.00  0.00    +0.000 A 
ATOM     17  C   UNL     1      -1.437  12.164  22.964  0.00  0.00    +0.000 C 
ATOM     18  C   UNL     1      -0.205  10.629  21.208  0.00  0.00    +0.000 A 
ENDBRANCH   2  13
TORSDOF 3
ENDMDL
MODEL 9
REMARK VINA RESULT:      -5.8      1.537      1.928
REMARK  Name = 
REMARK  5 active torsions:
REMARK  status: ('A' for Active; 'I' for Inactive)
REMARK    1  A    between atoms: C_1  and  O_2
REMARK    2  A    between atoms: O_2  and  C_3
REMARK    3  A    between atoms: C_6  and  N_7
REMARK    4  A    between atoms: C_8  and  C_10
REMARK    5  A    between atoms: C_13  and  C_14
REMARK                            x       y       z     vdW  Elec       q    Type
REMARK                         _______ _______ _______ _____ _____    ______ ____
ROOT
ATOM      1  N   UNL     1       5.223   4.470  17.845  0.00  0.00    +0.000 N 
ATOM      2  C   UNL     1       4.857   4.155  16.544  0.00  0.00    +0.000 C 
ATOM      3  O   UNL     1       3.776   3.672  16.222  0.00  0.00    +0.000 OA
ATOM      4  H   UNL     1       6.042   5.045  17.977  0.00  0.00    +0.000 HD
ENDROOT
BRANCH   1   8
ATOM      5  C   UNL     1       2.751   3.692  21.204  0.00  0.00    +0.000 A 
ATOM      6  C   UNL     1       3.589   2.698  20.713  0.00  0.00    +0.000 A 
ATOM      7  C   UNL     1       4.433   2.951  19.629  0.00  0.00    +0.000 A 
ATOM      8  C   UNL     1       4.434   4.192  18.991  0.00  0.00    +0.000 A 
ATOM      9  C   UNL     1       3.615   5.204  19.509  0.00  0.00    +0.000 A 
ATOM     10  C   UNL     1       2.767   4.950  20.602  0.00  0.00    +0.000 A 
BRANCH   5  12
ATOM     11  C   UNL     1       1.077   2.204  21.971  0.00  0.00    +0.000 C 
ATOM     12  O   UNL     1       1.944   3.298  22.234  0.00  0.00    +0.000 OA
ENDBRANCH   5  12
ENDBRANCH   1   8
BRANCH   2  13
ATOM     13  C   UNL     1       5.830   4.459  15.504  0.00  0.00    +0.000 A 
ATOM     14  C   UNL     1       6.988   5.160  15.788  0.00  0.00    +0.000 A 
ATOM     15  O   UNL     1       7.722   5.378  14.677  0.00  0.00    +0.000 OA
ATOM     16  C   UNL     1       7.043   4.820  13.640  0.00  0.00    +0.000 A 
ATOM     17  C   UNL     1       7.660   5.001  12.310  0.00  0.00    +0.000 C 
ATOM     18  C   UNL     1       5.884   4.217  14.096  0.00  0.00    +0.000 A 
ENDBRANCH   2  13
TORSDOF 3
ENDMDL
