MODEL 1
REMARK VINA RESULT:      -6.7      0.000      0.000
REMARK  Name = 
REMARK  16 active torsions:
REMARK  status: ('A' for Active; 'I' for Inactive)
REMARK    1  A    between atoms: C_1  and  C_2
REMARK    2  A    between atoms: C_2  and  C_3
REMARK    3  A    between atoms: C_2  and  C_4
REMARK    4  A    between atoms: C_4  and  C_5
REMARK    5  A    between atoms: C_5  and  C_6
REMARK    6  A    between atoms: C_6  and  C_7
REMARK    7  A    between atoms: C_7  and  C_8
REMARK    8  A    between atoms: C_7  and  C_9
REMARK    9  A    between atoms: C_9  and  C_10
REMARK   10  A    between atoms: C_10  and  N_11
REMARK   11  A    between atoms: N_11  and  S_12
REMARK   12  A    between atoms: S_12  and  N_15
REMARK   13  A    between atoms: N_15  and  C_16
REMARK   14  A    between atoms: C_19  and  O_20
REMARK   15  A    between atoms: C_21  and  O_22
REMARK   16  A    between atoms: C_23  and  O_24
REMARK                            x       y       z     vdW  Elec       q    Type
REMARK                         _______ _______ _______ _____ _____    ______ ____
ROOT
ATOM      1  S   UNL     1       6.826   5.150  18.072  0.00  0.00    +0.000 S 
ATOM      2  O   UNL     1       8.036   4.370  17.970  0.00  0.00    +0.000 OA
ATOM      3  O   UNL     1       6.816   6.579  17.917  0.00  0.00    +0.000 OA
ENDROOT
BRANCH   1   4
ATOM      4  N   UNL     1       5.730   4.515  16.980  0.00  0.00    +0.000 NA
ATOM      5  H   UNL     1       6.206   3.793  16.438  0.00  0.00    +0.000 HD
BRANCH   4   6
ATOM      6  C   UNL     1       5.034   5.492  16.115  0.00  0.00    +0.000 C 
BRANCH   6   7
ATOM      7  C   UNL     1       5.877   5.763  14.868  0.00  0.00    +0.000 C 
BRANCH   7   8
ATOM      8  C   UNL     1       6.596   4.532  14.272  0.00  0.00    +0.000 C 
ATOM      9  C   UNL     1       7.681   5.022  13.303  0.00  0.00    +0.000 C 
BRANCH   8  10
ATOM     10  C   UNL     1       5.613   3.553  13.593  0.00  0.00    +0.000 C 
BRANCH  10  11
ATOM     11  C   UNL     1       5.840   3.449  12.083  0.00  0.00    +0.000 C 
BRANCH  11  12
ATOM     12  C   UNL     1       5.205   2.196  11.479  0.00  0.00    +0.000 C 
BRANCH  12  14
ATOM     13  C   UNL     1       7.651   1.814  11.030  0.00  0.00    +0.000 C 
ATOM     14  C   UNL     1       6.242   1.254  10.836  0.00  0.00    +0.000 C 
ATOM     15  C   UNL     1       6.173  -0.169  11.398  0.00  0.00    +0.000 C 
ENDBRANCH  12  14
ENDBRANCH  11  12
ENDBRANCH  10  11
ENDBRANCH   8  10
ENDBRANCH   7   8
ENDBRANCH   6   7
ENDBRANCH   4   6
ENDBRANCH   1   4
BRANCH   1  16
ATOM     16  N   UNL     1       6.049   4.698  19.468  0.00  0.00    +0.000 NA
ATOM     17  H   UNL     1       5.860   5.547  20.011  0.00  0.00    +0.000 HD
BRANCH  16  18
ATOM     18  C   UNL     1       4.786   3.985  19.270  0.00  0.00    +0.000 C 
ATOM     19  O   UNL     1       4.879   2.734  19.929  0.00  0.00    +0.000 OA
ATOM     20  C   UNL     1       3.701   1.942  19.753  0.00  0.00    +0.000 C 
ATOM     21  C   UNL     1       2.537   2.638  20.453  0.00  0.00    +0.000 C 
ATOM     22  C   UNL     1       2.343   4.043  19.868  0.00  0.00    +0.000 C 
ATOM     23  C   UNL     1       3.658   4.841  19.889  0.00  0.00    +0.000 C 
BRANCH  21  24
ATOM     24  O   UNL     1       2.820   2.771  21.857  0.00  0.00    +0.000 OA
ATOM     25  H   UNL     1       3.084   1.887  22.185  0.00  0.00    +0.000 HD
ENDBRANCH  21  24
BRANCH  22  26
ATOM     26  O   UNL     1       1.338   4.744  20.611  0.00  0.00    +0.000 OA
ATOM     27  H   UNL     1       0.900   5.343  19.970  0.00  0.00    +0.000 HD
ENDBRANCH  22  26
BRANCH  23  28
ATOM     28  O   UNL     1       3.563   6.085  19.173  0.00  0.00    +0.000 OA
ATOM     29  H   UNL     1       3.734   6.812  19.798  0.00  0.00    +0.000 HD
ENDBRANCH  23  28
ENDBRANCH  16  18
ENDBRANCH   1  16
TORSDOF 13
ENDMDL
MODEL 2
REMARK VINA RESULT:      -6.6      3.787      7.759
REMARK  Name = 
REMARK  16 active torsions:
REMARK  status: ('A' for Active; 'I' for Inactive)
REMARK    1  A    between atoms: C_1  and  C_2
REMARK    2  A    between atoms: C_2  and  C_3
REMARK    3  A    between atoms: C_2  and  C_4
REMARK    4  A    between atoms: C_4  and  C_5
REMARK    5  A    between atoms: C_5  and  C_6
REMARK    6  A    between atoms: C_6  and  C_7
REMARK    7  A    between atoms: C_7  and  C_8
REMARK    8  A    between atoms: C_7  and  C_9
REMARK    9  A    between atoms: C_9  and  C_10
REMARK   10  A    between atoms: C_10  and  N_11
REMARK   11  A    between atoms: N_11  and  S_12
REMARK   12  A    between atoms: S_12  and  N_15
REMARK   13  A    between atoms: N_15  and  C_16
REMARK   14  A    between atoms: C_19  and  O_20
REMARK   15  A    between atoms: C_21  and  O_22
REMARK   16  A    between atoms: C_23  and  O_24
REMARK                            x       y       z     vdW  Elec       q    Type
REMARK                         _______ _______ _______ _____ _____    ______ ____
ROOT
ATOM      1  S   UNL     1       3.606   2.677  19.996  0.00  0.00    +0.000 S 
ATOM      2  O   UNL     1       3.867   2.302  21.364  0.00  0.00    +0.000 OA
ATOM      3  O   UNL     1       2.642   1.990  19.181  0.00  0.00    +0.000 OA
ENDROOT
BRANCH   1   4
ATOM      4  N   UNL     1       3.207   4.301  19.991  0.00  0.00    +0.000 NA
ATOM      5  H   UNL     1       3.527   4.708  20.871  0.00  0.00    +0.000 HD
BRANCH   4   6
ATOM      6  C   UNL     1       1.791   4.622  19.712  0.00  0.00    +0.000 C 
BRANCH   6   7
ATOM      7  C   UNL     1       1.358   5.815  20.567  0.00  0.00    +0.000 C 
BRANCH   7   8
ATOM      8  C   UNL     1       2.086   7.145  20.266  0.00  0.00    +0.000 C 
ATOM      9  C   UNL     1       1.419   8.261  21.083  0.00  0.00    +0.000 C 
BRANCH   8  10
ATOM     10  C   UNL     1       2.111   7.469  18.756  0.00  0.00    +0.000 C 
BRANCH  10  11
ATOM     11  C   UNL     1       2.103   8.975  18.481  0.00  0.00    +0.000 C 
BRANCH  11  12
ATOM     12  C   UNL     1       0.879   9.416  17.677  0.00  0.00    +0.000 C 
BRANCH  12  14
ATOM     13  C   UNL     1       0.308  11.548  18.886  0.00  0.00    +0.000 C 
ATOM     14  C   UNL     1      -0.173  10.139  18.543  0.00  0.00    +0.000 C 
ATOM     15  C   UNL     1      -1.543  10.214  17.864  0.00  0.00    +0.000 C 
ENDBRANCH  12  14
ENDBRANCH  11  12
ENDBRANCH  10  11
ENDBRANCH   8  10
ENDBRANCH   7   8
ENDBRANCH   6   7
ENDBRANCH   4   6
ENDBRANCH   1   4
BRANCH   1  16
ATOM     16  N   UNL     1       5.066   2.796  19.216  0.00  0.00    +0.000 NA
ATOM     17  H   UNL     1       5.095   2.073  18.491  0.00  0.00    +0.000 HD
BRANCH  16  18
ATOM     18  C   UNL     1       5.329   4.092  18.589  0.00  0.00    +0.000 C 
ATOM     19  O   UNL     1       6.681   4.436  18.838  0.00  0.00    +0.000 OA
ATOM     20  C   UNL     1       7.020   5.716  18.298  0.00  0.00    +0.000 C 
ATOM     21  C   UNL     1       6.939   5.640  16.776  0.00  0.00    +0.000 C 
ATOM     22  C   UNL     1       5.524   5.226  16.351  0.00  0.00    +0.000 C 
ATOM     23  C   UNL     1       5.080   3.941  17.071  0.00  0.00    +0.000 C 
BRANCH  21  24
ATOM     24  O   UNL     1       7.863   4.652  16.285  0.00  0.00    +0.000 OA
ATOM     25  H   UNL     1       8.281   4.234  17.066  0.00  0.00    +0.000 HD
ENDBRANCH  21  24
BRANCH  22  26
ATOM     26  O   UNL     1       5.482   5.027  14.933  0.00  0.00    +0.000 OA
ATOM     27  H   UNL     1       5.809   4.115  14.780  0.00  0.00    +0.000 HD
ENDBRANCH  22  26
BRANCH  23  28
ATOM     28  O   UNL     1       3.693   3.631  16.849  0.00  0.00    +0.000 OA
ATOM     29  H   UNL     1       3.236   3.643  17.709  0.00  0.00    +0.000 HD
ENDBRANCH  23  28
ENDBRANCH  16  18
ENDBRANCH   1  16
TORSDOF 13
ENDMDL
MODEL 3
REMARK VINA RESULT:      -6.6      4.365      6.670
REMARK  Name = 
REMARK  16 active torsions:
REMARK  status: ('A' for Active; 'I' for Inactive)
REMARK    1  A    between atoms: C_1  and  C_2
REMARK    2  A    between atoms: C_2  and  C_3
REMARK    3  A    between atoms: C_2  and  C_4
REMARK    4  A    between atoms: C_4  and  C_5
REMARK    5  A    between atoms: C_5  and  C_6
REMARK    6  A    between atoms: C_6  and  C_7
REMARK    7  A    between atoms: C_7  and  C_8
REMARK    8  A    between atoms: C_7  and  C_9
REMARK    9  A    between atoms: C_9  and  C_10
REMARK   10  A    between atoms: C_10  and  N_11
REMARK   11  A    between atoms: N_11  and  S_12
REMARK   12  A    between atoms: S_12  and  N_15
REMARK   13  A    between atoms: N_15  and  C_16
REMARK   14  A    between atoms: C_19  and  O_20
REMARK   15  A    between atoms: C_21  and  O_22
REMARK   16  A    between atoms: C_23  and  O_24
REMARK                            x       y       z     vdW  Elec       q    Type
REMARK                         _______ _______ _______ _____ _____    ______ ____
ROOT
ATOM      1  S   UNL     1       6.181   4.367  15.996  0.00  0.00    +0.000 S 
ATOM      2  O   UNL     1       5.729   4.638  14.654  0.00  0.00    +0.000 OA
ATOM      3  O   UNL     1       7.563   4.124  16.308  0.00  0.00    +0.000 OA
ENDROOT
BRANCH   1   4
ATOM      4  N   UNL     1       5.660   5.629  16.963  0.00  0.00    +0.000 NA
ATOM      5  H   UNL     1       4.668   5.489  17.157  0.00  0.00    +0.000 HD
BRANCH   4   6
ATOM      6  C   UNL     1       5.942   6.991  16.463  0.00  0.00    +0.000 C 
BRANCH   6   7
ATOM      7  C   UNL     1       6.502   7.848  17.600  0.00  0.00    +0.000 C 
BRANCH   7   8
ATOM      8  C   UNL     1       7.971   7.560  17.986  0.00  0.00    +0.000 C 
ATOM      9  C   UNL     1       7.995   6.373  18.959  0.00  0.00    +0.000 C 
BRANCH   8  10
ATOM     10  C   UNL     1       8.676   8.803  18.571  0.00  0.00    +0.000 C 
BRANCH  10  11
ATOM     11  C   UNL     1       8.334  10.084  17.806  0.00  0.00    +0.000 C 
BRANCH  11  12
ATOM     12  C   UNL     1       9.118  11.296  18.312  0.00  0.00    +0.000 C 
BRANCH  12  14
ATOM     13  C   UNL     1      11.491  11.481  19.130  0.00  0.00    +0.000 C 
ATOM     14  C   UNL     1      10.098  10.938  19.448  0.00  0.00    +0.000 C 
ATOM     15  C   UNL     1       9.640  11.466  20.810  0.00  0.00    +0.000 C 
ENDBRANCH  12  14
ENDBRANCH  11  12
ENDBRANCH  10  11
ENDBRANCH   8  10
ENDBRANCH   7   8
ENDBRANCH   6   7
ENDBRANCH   4   6
ENDBRANCH   1   4
BRANCH   1  16
ATOM     16  N   UNL     1       5.211   3.177  16.627  0.00  0.00    +0.000 NA
ATOM     17  H   UNL     1       5.806   2.541  17.168  0.00  0.00    +0.000 HD
BRANCH  16  18
ATOM     18  C   UNL     1       4.133   3.652  17.494  0.00  0.00    +0.000 C 
ATOM     19  O   UNL     1       2.898   3.270  16.912  0.00  0.00    +0.000 OA
ATOM     20  C   UNL     1       1.777   3.733  17.670  0.00  0.00    +0.000 C 
ATOM     21  C   UNL     1       1.777   3.024  19.021  0.00  0.00    +0.000 C 
ATOM     22  C   UNL     1       3.091   3.311  19.759  0.00  0.00    +0.000 C 
ATOM     23  C   UNL     1       4.308   2.984  18.877  0.00  0.00    +0.000 C 
BRANCH  21  24
ATOM     24  O   UNL     1       1.672   1.602  18.829  0.00  0.00    +0.000 OA
ATOM     25  H   UNL     1       0.806   1.431  18.404  0.00  0.00    +0.000 HD
ENDBRANCH  21  24
BRANCH  22  26
ATOM     26  O   UNL     1       3.148   2.544  20.967  0.00  0.00    +0.000 OA
ATOM     27  H   UNL     1       3.273   1.612  20.688  0.00  0.00    +0.000 HD
ENDBRANCH  22  26
BRANCH  23  28
ATOM     28  O   UNL     1       5.549   3.424  19.458  0.00  0.00    +0.000 OA
ATOM     29  H   UNL     1       6.123   3.750  18.742  0.00  0.00    +0.000 HD
ENDBRANCH  23  28
ENDBRANCH  16  18
ENDBRANCH   1  16
TORSDOF 13
ENDMDL
MODEL 4
REMARK VINA RESULT:      -6.5      1.724      2.682
REMARK  Name = 
REMARK  16 active torsions:
REMARK  status: ('A' for Active; 'I' for Inactive)
REMARK    1  A    between atoms: C_1  and  C_2
REMARK    2  A    between atoms: C_2  and  C_3
REMARK    3  A    between atoms: C_2  and  C_4
REMARK    4  A    between atoms: C_4  and  C_5
REMARK    5  A    between atoms: C_5  and  C_6
REMARK    6  A    between atoms: C_6  and  C_7
REMARK    7  A    between atoms: C_7  and  C_8
REMARK    8  A    between atoms: C_7  and  C_9
REMARK    9  A    between atoms: C_9  and  C_10
REMARK   10  A    between atoms: C_10  and  N_11
REMARK   11  A    between atoms: N_11  and  S_12
REMARK   12  A    between atoms: S_12  and  N_15
REMARK   13  A    between atoms: N_15  and  C_16
REMARK   14  A    between atoms: C_19  and  O_20
REMARK   15  A    between atoms: C_21  and  O_22
REMARK   16  A    between atoms: C_23  and  O_24
REMARK                            x       y       z     vdW  Elec       q    Type
REMARK                         _______ _______ _______ _____ _____    ______ ____
ROOT
ATOM      1  S   UNL     1       4.932   4.033  18.692  0.00  0.00    +0.000 S 
ATOM      2  O   UNL     1       4.572   5.209  19.446  0.00  0.00    +0.000 OA
ATOM      3  O   UNL     1       4.292   3.688  17.452  0.00  0.00    +0.000 OA
ENDROOT
BRANCH   1   4
ATOM      4  N   UNL     1       6.579   4.110  18.406  0.00  0.00    +0.000 NA
ATOM      5  H   UNL     1       7.060   4.000  19.299  0.00  0.00    +0.000 HD
BRANCH   4   6
ATOM      6  C   UNL     1       7.055   5.293  17.659  0.00  0.00    +0.000 C 
BRANCH   6   7
ATOM      7  C   UNL     1       7.349   4.900  16.210  0.00  0.00    +0.000 C 
BRANCH   7   8
ATOM      8  C   UNL     1       6.353   5.442  15.160  0.00  0.00    +0.000 C 
ATOM      9  C   UNL     1       5.341   6.350  15.872  0.00  0.00    +0.000 C 
BRANCH   8  10
ATOM     10  C   UNL     1       5.660   4.309  14.372  0.00  0.00    +0.000 C 
BRANCH  10  11
ATOM     11  C   UNL     1       5.886   4.423  12.863  0.00  0.00    +0.000 C 
BRANCH  11  12
ATOM     12  C   UNL     1       6.614   3.208  12.286  0.00  0.00    +0.000 C 
BRANCH  12  14
ATOM     13  C   UNL     1       4.464   2.757  11.059  0.00  0.00    +0.000 C 
ATOM     14  C   UNL     1       5.647   2.117  11.785  0.00  0.00    +0.000 C 
ATOM     15  C   UNL     1       6.328   1.103  10.862  0.00  0.00    +0.000 C 
ENDBRANCH  12  14
ENDBRANCH  11  12
ENDBRANCH  10  11
ENDBRANCH   8  10
ENDBRANCH   7   8
ENDBRANCH   6   7
ENDBRANCH   4   6
ENDBRANCH   1   4
BRANCH   1  16
ATOM     16  N   UNL     1       4.939   2.744  19.737  0.00  0.00    +0.000 NA
ATOM     17  H   UNL     1       5.539   2.986  20.531  0.00  0.00    +0.000 HD
BRANCH  16  18
ATOM     18  C   UNL     1       3.624   2.357  20.250  0.00  0.00    +0.000 C 
ATOM     19  O   UNL     1       3.199   3.351  21.168  0.00  0.00    +0.000 OA
ATOM     20  C   UNL     1       1.936   3.035  21.759  0.00  0.00    +0.000 C 
ATOM     21  C   UNL     1       0.867   3.065  20.670  0.00  0.00    +0.000 C 
ATOM     22  C   UNL     1       1.221   2.057  19.568  0.00  0.00    +0.000 C 
ATOM     23  C   UNL     1       2.653   2.278  19.051  0.00  0.00    +0.000 C 
BRANCH  21  24
ATOM     24  O   UNL     1       0.807   4.374  20.079  0.00  0.00    +0.000 OA
ATOM     25  H   UNL     1      -0.077   4.465  19.666  0.00  0.00    +0.000 HD
ENDBRANCH  21  24
BRANCH  22  26
ATOM     26  O   UNL     1       0.290   2.176  18.485  0.00  0.00    +0.000 OA
ATOM     27  H   UNL     1      -0.440   1.553  18.689  0.00  0.00    +0.000 HD
ENDBRANCH  22  26
BRANCH  23  28
ATOM     28  O   UNL     1       3.088   1.234  18.161  0.00  0.00    +0.000 OA
ATOM     29  H   UNL     1       2.387   0.559  18.115  0.00  0.00    +0.000 HD
ENDBRANCH  23  28
ENDBRANCH  16  18
ENDBRANCH   1  16
TORSDOF 13
ENDMDL
MODEL 5
REMARK VINA RESULT:      -6.5      1.527      2.307
REMARK  Name = 
REMARK  16 active torsions:
REMARK  status: ('A' for Active; 'I' for Inactive)
REMARK    1  A    between atoms: C_1  and  C_2
REMARK    2  A    between atoms: C_2  and  C_3
REMARK    3  A    between atoms: C_2  and  C_4
REMARK    4  A    between atoms: C_4  and  C_5
REMARK    5  A    between atoms: C_5  and  C_6
REMARK    6  A    between atoms: C_6  and  C_7
REMARK    7  A    between atoms: C_7  and  C_8
REMARK    8  A    between atoms: C_7  and  C_9
REMARK    9  A    between atoms: C_9  and  C_10
REMARK   10  A    between atoms: C_10  and  N_11
REMARK   11  A    between atoms: N_11  and  S_12
REMARK   12  A    between atoms: S_12  and  N_15
REMARK   13  A    between atoms: N_15  and  C_16
REMARK   14  A    between atoms: C_19  and  O_20
REMARK   15  A    between atoms: C_21  and  O_22
REMARK   16  A    between atoms: C_23  and  O_24
REMARK                            x       y       z     vdW  Elec       q    Type
REMARK                         _______ _______ _______ _____ _____    ______ ____
ROOT
ATOM      1  S   UNL     1       6.757   4.858  18.624  0.00  0.00    +0.000 S 
ATOM      2  O   UNL     1       8.023   4.501  18.033  0.00  0.00    +0.000 OA
ATOM      3  O   UNL     1       6.637   5.265  19.997  0.00  0.00    +0.000 OA
ENDROOT
BRANCH   1   4
ATOM      4  N   UNL     1       6.087   6.064  17.679  0.00  0.00    +0.000 NA
ATOM      5  H   UNL     1       5.072   5.980  17.732  0.00  0.00    +0.000 HD
BRANCH   4   6
ATOM      6  C   UNL     1       6.567   6.139  16.283  0.00  0.00    +0.000 C 
BRANCH   6   7
ATOM      7  C   UNL     1       5.434   5.750  15.331  0.00  0.00    +0.000 C 
BRANCH   7   8
ATOM      8  C   UNL     1       5.731   4.553  14.400  0.00  0.00    +0.000 C 
ATOM      9  C   UNL     1       5.757   3.273  15.247  0.00  0.00    +0.000 C 
BRANCH   8  10
ATOM     10  C   UNL     1       7.038   4.744  13.601  0.00  0.00    +0.000 C 
BRANCH  10  11
ATOM     11  C   UNL     1       6.958   4.140  12.196  0.00  0.00    +0.000 C 
BRANCH  11  12
ATOM     12  C   UNL     1       5.942   3.001  12.105  0.00  0.00    +0.000 C 
BRANCH  12  14
ATOM     13  C   UNL     1       7.833   1.999  10.779  0.00  0.00    +0.000 C 
ATOM     14  C   UNL     1       6.331   1.941  11.054  0.00  0.00    +0.000 C 
ATOM     15  C   UNL     1       5.940   0.522  11.477  0.00  0.00    +0.000 C 
ENDBRANCH  12  14
ENDBRANCH  11  12
ENDBRANCH  10  11
ENDBRANCH   8  10
ENDBRANCH   7   8
ENDBRANCH   6   7
ENDBRANCH   4   6
ENDBRANCH   1   4
BRANCH   1  16
ATOM     16  N   UNL     1       5.673   3.654  18.264  0.00  0.00    +0.000 NA
ATOM     17  H   UNL     1       6.132   2.755  18.441  0.00  0.00    +0.000 HD
BRANCH  16  18
ATOM     18  C   UNL     1       4.426   3.695  19.029  0.00  0.00    +0.000 C 
ATOM     19  O   UNL     1       3.735   4.884  18.682  0.00  0.00    +0.000 OA
ATOM     20  C   UNL     1       2.518   5.035  19.418  0.00  0.00    +0.000 C 
ATOM     21  C   UNL     1       1.558   3.922  19.004  0.00  0.00    +0.000 C 
ATOM     22  C   UNL     1       2.196   2.555  19.281  0.00  0.00    +0.000 C 
ATOM     23  C   UNL     1       3.592   2.452  18.642  0.00  0.00    +0.000 C 
BRANCH  21  24
ATOM     24  O   UNL     1       1.282   4.012  17.595  0.00  0.00    +0.000 OA
ATOM     25  H   UNL     1       0.901   3.153  17.320  0.00  0.00    +0.000 HD
ENDBRANCH  21  24
BRANCH  22  26
ATOM     26  O   UNL     1       1.353   1.514  18.775  0.00  0.00    +0.000 OA
ATOM     27  H   UNL     1       1.306   1.654  17.805  0.00  0.00    +0.000 HD
ENDBRANCH  22  26
BRANCH  23  28
ATOM     28  O   UNL     1       4.300   1.266  19.043  0.00  0.00    +0.000 OA
ATOM     29  H   UNL     1       4.289   0.637  18.299  0.00  0.00    +0.000 HD
ENDBRANCH  23  28
ENDBRANCH  16  18
ENDBRANCH   1  16
TORSDOF 13
ENDMDL
MODEL 6
REMARK VINA RESULT:      -6.4      1.558      2.369
REMARK  Name = 
REMARK  16 active torsions:
REMARK  status: ('A' for Active; 'I' for Inactive)
REMARK    1  A    between atoms: C_1  and  C_2
REMARK    2  A    between atoms: C_2  and  C_3
REMARK    3  A    between atoms: C_2  and  C_4
REMARK    4  A    between atoms: C_4  and  C_5
REMARK    5  A    between atoms: C_5  and  C_6
REMARK    6  A    between atoms: C_6  and  C_7
REMARK    7  A    between atoms: C_7  and  C_8
REMARK    8  A    between atoms: C_7  and  C_9
REMARK    9  A    between atoms: C_9  and  C_10
REMARK   10  A    between atoms: C_10  and  N_11
REMARK   11  A    between atoms: N_11  and  S_12
REMARK   12  A    between atoms: S_12  and  N_15
REMARK   13  A    between atoms: N_15  and  C_16
REMARK   14  A    between atoms: C_19  and  O_20
REMARK   15  A    between atoms: C_21  and  O_22
REMARK   16  A    between atoms: C_23  and  O_24
REMARK                            x       y       z     vdW  Elec       q    Type
REMARK                         _______ _______ _______ _____ _____    ______ ____
ROOT
ATOM      1  S   UNL     1       6.234   5.192  18.761  0.00  0.00    +0.000 S 
ATOM      2  O   UNL     1       6.824   5.398  20.061  0.00  0.00    +0.000 OA
ATOM      3  O   UNL     1       5.276   6.104  18.198  0.00  0.00    +0.000 OA
ENDROOT
BRANCH   1   4
ATOM      4  N   UNL     1       7.486   5.033  17.664  0.00  0.00    +0.000 NA
ATOM      5  H   UNL     1       8.351   5.310  18.129  0.00  0.00    +0.000 HD
BRANCH   4   6
ATOM      6  C   UNL     1       7.307   5.721  16.368  0.00  0.00    +0.000 C 
BRANCH   6   7
ATOM      7  C   UNL     1       7.337   4.694  15.234  0.00  0.00    +0.000 C 
BRANCH   7   8
ATOM      8  C   UNL     1       6.014   4.532  14.452  0.00  0.00    +0.000 C 
ATOM      9  C   UNL     1       5.026   3.745  15.324  0.00  0.00    +0.000 C 
BRANCH   8  10
ATOM     10  C   UNL     1       6.227   3.866  13.075  0.00  0.00    +0.000 C 
BRANCH  10  11
ATOM     11  C   UNL     1       4.910   3.448  12.417  0.00  0.00    +0.000 C 
BRANCH  11  12
ATOM     12  C   UNL     1       5.108   2.395  11.326  0.00  0.00    +0.000 C 
BRANCH  12  14
ATOM     13  C   UNL     1       6.001   0.043  11.256  0.00  0.00    +0.000 C 
ATOM     14  C   UNL     1       6.336   1.499  11.580  0.00  0.00    +0.000 C 
ATOM     15  C   UNL     1       7.562   1.936  10.771  0.00  0.00    +0.000 C 
ENDBRANCH  12  14
ENDBRANCH  11  12
ENDBRANCH  10  11
ENDBRANCH   8  10
ENDBRANCH   7   8
ENDBRANCH   6   7
ENDBRANCH   4   6
ENDBRANCH   1   4
BRANCH   1  16
ATOM     16  N   UNL     1       5.675   3.630  18.701  0.00  0.00    +0.000 NA
ATOM     17  H   UNL     1       6.424   3.015  19.033  0.00  0.00    +0.000 HD
BRANCH  16  18
ATOM     18  C   UNL     1       4.475   3.372  19.499  0.00  0.00    +0.000 C 
ATOM     19  O   UNL     1       3.816   4.608  19.717  0.00  0.00    +0.000 OA
ATOM     20  C   UNL     1       2.649   4.461  20.531  0.00  0.00    +0.000 C 
ATOM     21  C   UNL     1       1.622   3.631  19.765  0.00  0.00    +0.000 C 
ATOM     22  C   UNL     1       2.218   2.262  19.413  0.00  0.00    +0.000 C 
ATOM     23  C   UNL     1       3.570   2.411  18.694  0.00  0.00    +0.000 C 
BRANCH  21  24
ATOM     24  O   UNL     1       1.272   4.297  18.539  0.00  0.00    +0.000 OA
ATOM     25  H   UNL     1       0.358   4.633  18.643  0.00  0.00    +0.000 HD
ENDBRANCH  21  24
BRANCH  22  26
ATOM     26  O   UNL     1       1.305   1.534  18.584  0.00  0.00    +0.000 OA
ATOM     27  H   UNL     1       1.794   1.335  17.756  0.00  0.00    +0.000 HD
ENDBRANCH  22  26
BRANCH  23  28
ATOM     28  O   UNL     1       4.250   1.155  18.525  0.00  0.00    +0.000 OA
ATOM     29  H   UNL     1       4.206   0.667  19.367  0.00  0.00    +0.000 HD
ENDBRANCH  23  28
ENDBRANCH  16  18
ENDBRANCH   1  16
TORSDOF 13
ENDMDL
MODEL 7
REMARK VINA RESULT:      -6.4      5.949      8.596
REMARK  Name = 
REMARK  16 active torsions:
REMARK  status: ('A' for Active; 'I' for Inactive)
REMARK    1  A    between atoms: C_1  and  C_2
REMARK    2  A    between atoms: C_2  and  C_3
REMARK    3  A    between atoms: C_2  and  C_4
REMARK    4  A    between atoms: C_4  and  C_5
REMARK    5  A    between atoms: C_5  and  C_6
REMARK    6  A    between atoms: C_6  and  C_7
REMARK    7  A    between atoms: C_7  and  C_8
REMARK    8  A    between atoms: C_7  and  C_9
REMARK    9  A    between atoms: C_9  and  C_10
REMARK   10  A    between atoms: C_10  and  N_11
REMARK   11  A    between atoms: N_11  and  S_12
REMARK   12  A    between atoms: S_12  and  N_15
REMARK   13  A    between atoms: N_15  and  C_16
REMARK   14  A    between atoms: C_19  and  O_20
REMARK   15  A    between atoms: C_21  and  O_22
REMARK   16  A    between atoms: C_23  and  O_24
REMARK                            x       y       z     vdW  Elec       q    Type
REMARK                         _______ _______ _______ _____ _____    ______ ____
ROOT
ATOM      1  S   UNL     1       1.042   8.780  21.335  0.00  0.00    +0.000 S 
ATOM      2  O   UNL     1      -0.259   8.170  21.458  0.00  0.00    +0.000 OA
ATOM      3  O   UNL     1       1.792   9.230  22.476  0.00  0.00    +0.000 OA
ENDROOT
BRANCH   1   4
ATOM      4  N   UNL     1       2.012   7.719  20.480  0.00  0.00    +0.000 NA
ATOM      5  H   UNL     1       2.931   7.705  20.922  0.00  0.00    +0.000 HD
BRANCH   4   6
ATOM      6  C   UNL     1       2.099   7.949  19.022  0.00  0.00    +0.000 C 
BRANCH   6   7
ATOM      7  C   UNL     1       3.261   7.137  18.445  0.00  0.00    +0.000 C 
BRANCH   7   8
ATOM      8  C   UNL     1       3.305   5.651  18.866  0.00  0.00    +0.000 C 
ATOM      9  C   UNL     1       4.747   5.298  19.257  0.00  0.00    +0.000 C 
BRANCH   8  10
ATOM     10  C   UNL     1       2.758   4.715  17.766  0.00  0.00    +0.000 C 
BRANCH  10  11
ATOM     11  C   UNL     1       1.424   4.072  18.155  0.00  0.00    +0.000 C 
BRANCH  11  12
ATOM     12  C   UNL     1       1.124   4.202  19.649  0.00  0.00    +0.000 C 
BRANCH  12  14
ATOM     13  C   UNL     1       1.781   1.781  19.456  0.00  0.00    +0.000 C 
ATOM     14  C   UNL     1       1.279   2.868  20.405  0.00  0.00    +0.000 C 
ATOM     15  C   UNL     1       2.222   2.977  21.606  0.00  0.00    +0.000 C 
ENDBRANCH  12  14
ENDBRANCH  11  12
ENDBRANCH  10  11
ENDBRANCH   8  10
ENDBRANCH   7   8
ENDBRANCH   6   7
ENDBRANCH   4   6
ENDBRANCH   1   4
BRANCH   1  16
ATOM     16  N   UNL     1       0.935   9.973  20.186  0.00  0.00    +0.000 NA
ATOM     17  H   UNL     1       1.294   9.593  19.305  0.00  0.00    +0.000 HD
BRANCH  16  18
ATOM     18  C   UNL     1      -0.415  10.488  19.953  0.00  0.00    +0.000 C 
ATOM     19  O   UNL     1      -0.617  11.600  20.808  0.00  0.00    +0.000 OA
ATOM     20  C   UNL     1      -1.932  12.146  20.682  0.00  0.00    +0.000 C 
ATOM     21  C   UNL     1      -2.085  12.732  19.281  0.00  0.00    +0.000 C 
ATOM     22  C   UNL     1      -1.846  11.638  18.232  0.00  0.00    +0.000 C 
ATOM     23  C   UNL     1      -0.507  10.920  18.471  0.00  0.00    +0.000 C 
BRANCH  21  24
ATOM     24  O   UNL     1      -1.113  13.771  19.075  0.00  0.00    +0.000 OA
ATOM     25  H   UNL     1      -0.246  13.335  18.943  0.00  0.00    +0.000 HD
ENDBRANCH  21  24
BRANCH  22  26
ATOM     26  O   UNL     1      -1.861  12.212  16.919  0.00  0.00    +0.000 OA
ATOM     27  H   UNL     1      -1.236  11.676  16.385  0.00  0.00    +0.000 HD
ENDBRANCH  22  26
BRANCH  23  28
ATOM     28  O   UNL     1      -0.339   9.763  17.632  0.00  0.00    +0.000 OA
ATOM     29  H   UNL     1      -0.306   8.974  18.202  0.00  0.00    +0.000 HD
ENDBRANCH  23  28
ENDBRANCH  16  18
ENDBRANCH   1  16
TORSDOF 13
ENDMDL
MODEL 8
REMARK VINA RESULT:      -6.4      5.436      8.746
REMARK  Name = 
REMARK  16 active torsions:
REMARK  status: ('A' for Active; 'I' for Inactive)
REMARK    1  A    between atoms: C_1  and  C_2
REMARK    2  A    between atoms: C_2  and  C_3
REMARK    3  A    between atoms: C_2  and  C_4
REMARK    4  A    between atoms: C_4  and  C_5
REMARK    5  A    between atoms: C_5  and  C_6
REMARK    6  A    between atoms: C_6  and  C_7
REMARK    7  A    between atoms: C_7  and  C_8
REMARK    8  A    between atoms: C_7  and  C_9
REMARK    9  A    between atoms: C_9  and  C_10
REMARK   10  A    between atoms: C_10  and  N_11
REMARK   11  A    between atoms: N_11  and  S_12
REMARK   12  A    between atoms: S_12  and  N_15
REMARK   13  A    between atoms: N_15  and  C_16
REMARK   14  A    between atoms: C_19  and  O_20
REMARK   15  A    between atoms: C_21  and  O_22
REMARK   16  A    between atoms: C_23  and  O_24
REMARK                            x       y       z     vdW  Elec       q    Type
REMARK                         _______ _______ _______ _____ _____    ______ ____
ROOT
ATOM      1  S   UNL     1       2.489   6.364  18.912  0.00  0.00    +0.000 S 
ATOM      2  O   UNL     1       1.939   6.525  20.235  0.00  0.00    +0.000 OA
ATOM      3  O   UNL     1       1.803   5.639  17.877  0.00  0.00    +0.000 OA
ENDROOT
BRANCH   1   4
ATOM      4  N   UNL     1       2.823   7.893  18.321  0.00  0.00    +0.000 NA
ATOM      5  H   UNL     1       3.444   8.358  18.983  0.00  0.00    +0.000 HD
BRANCH   4   6
ATOM      6  C   UNL     1       1.652   8.726  17.974  0.00  0.00    +0.000 C 
BRANCH   6   7
ATOM      7  C   UNL     1       1.336   9.672  19.134  0.00  0.00    +0.000 C 
BRANCH   7   8
ATOM      8  C   UNL     1       0.334  10.804  18.812  0.00  0.00    +0.000 C 
ATOM      9  C   UNL     1      -0.296  11.285  20.127  0.00  0.00    +0.000 C 
BRANCH   8  10
ATOM     10  C   UNL     1      -0.733  10.366  17.785  0.00  0.00    +0.000 C 
BRANCH  10  11
ATOM     11  C   UNL     1      -2.014   9.859  18.453  0.00  0.00    +0.000 C 
BRANCH  11  12
ATOM     12  C   UNL     1      -3.157   9.664  17.455  0.00  0.00    +0.000 C 
BRANCH  12  14
ATOM     13  C   UNL     1      -3.098  10.229  15.003  0.00  0.00    +0.000 C 
ATOM     14  C   UNL     1      -3.238  10.799  16.414  0.00  0.00    +0.000 C 
ATOM     15  C   UNL     1      -4.538  11.601  16.518  0.00  0.00    +0.000 C 
ENDBRANCH  12  14
ENDBRANCH  11  12
ENDBRANCH  10  11
ENDBRANCH   8  10
ENDBRANCH   7   8
ENDBRANCH   6   7
ENDBRANCH   4   6
ENDBRANCH   1   4
BRANCH   1  16
ATOM     16  N   UNL     1       4.053   5.832  19.074  0.00  0.00    +0.000 NA
ATOM     17  H   UNL     1       4.056   5.073  19.763  0.00  0.00    +0.000 HD
BRANCH  16  18
ATOM     18  C   UNL     1       4.670   5.341  17.841  0.00  0.00    +0.000 C 
ATOM     19  O   UNL     1       4.809   6.435  16.951  0.00  0.00    +0.000 OA
ATOM     20  C   UNL     1       5.365   6.041  15.694  0.00  0.00    +0.000 C 
ATOM     21  C   UNL     1       6.800   5.573  15.921  0.00  0.00    +0.000 C 
ATOM     22  C   UNL     1       6.814   4.404  16.915  0.00  0.00    +0.000 C 
ATOM     23  C   UNL     1       6.055   4.760  18.205  0.00  0.00    +0.000 C 
BRANCH  21  24
ATOM     24  O   UNL     1       7.582   6.645  16.478  0.00  0.00    +0.000 OA
ATOM     25  H   UNL     1       7.195   7.484  16.155  0.00  0.00    +0.000 HD
ENDBRANCH  21  24
BRANCH  22  26
ATOM     26  O   UNL     1       8.166   4.049  17.229  0.00  0.00    +0.000 OA
ATOM     27  H   UNL     1       8.153   3.738  18.159  0.00  0.00    +0.000 HD
ENDBRANCH  22  26
BRANCH  23  28
ATOM     28  O   UNL     1       5.878   3.628  19.075  0.00  0.00    +0.000 OA
ATOM     29  H   UNL     1       6.214   3.865  19.958  0.00  0.00    +0.000 HD
ENDBRANCH  23  28
ENDBRANCH  16  18
ENDBRANCH   1  16
TORSDOF 13
ENDMDL
MODEL 9
REMARK VINA RESULT:      -6.4      3.525      7.671
REMARK  Name = 
REMARK  16 active torsions:
REMARK  status: ('A' for Active; 'I' for Inactive)
REMARK    1  A    between atoms: C_1  and  C_2
REMARK    2  A    between atoms: C_2  and  C_3
REMARK    3  A    between atoms: C_2  and  C_4
REMARK    4  A    between atoms: C_4  and  C_5
REMARK    5  A    between atoms: C_5  and  C_6
REMARK    6  A    between atoms: C_6  and  C_7
REMARK    7  A    between atoms: C_7  and  C_8
REMARK    8  A    between atoms: C_7  and  C_9
REMARK    9  A    between atoms: C_9  and  C_10
REMARK   10  A    between atoms: C_10  and  N_11
REMARK   11  A    between atoms: N_11  and  S_12
REMARK   12  A    between atoms: S_12  and  N_15
REMARK   13  A    between atoms: N_15  and  C_16
REMARK   14  A    between atoms: C_19  and  O_20
REMARK   15  A    between atoms: C_21  and  O_22
REMARK   16  A    between atoms: C_23  and  O_24
REMARK                            x       y       z     vdW  Elec       q    Type
REMARK                         _______ _______ _______ _____ _____    ______ ____
ROOT
ATOM      1  S   UNL     1       3.785   2.547  19.126  0.00  0.00    +0.000 S 
ATOM      2  O   UNL     1       4.924   2.659  20.004  0.00  0.00    +0.000 OA
ATOM      3  O   UNL     1       3.433   1.313  18.477  0.00  0.00    +0.000 OA
ENDROOT
BRANCH   1   4
ATOM      4  N   UNL     1       2.444   3.070  19.977  0.00  0.00    +0.000 NA
ATOM      5  H   UNL     1       1.817   2.275  20.098  0.00  0.00    +0.000 HD
BRANCH   4   6
ATOM      6  C   UNL     1       1.746   4.252  19.429  0.00  0.00    +0.000 C 
BRANCH   6   7
ATOM      7  C   UNL     1       1.548   5.289  20.536  0.00  0.00    +0.000 C 
BRANCH   7   8
ATOM      8  C   UNL     1       2.198   6.667  20.278  0.00  0.00    +0.000 C 
ATOM      9  C   UNL     1       1.380   7.738  21.014  0.00  0.00    +0.000 C 
BRANCH   8  10
ATOM     10  C   UNL     1       2.334   6.976  18.771  0.00  0.00    +0.000 C 
BRANCH  10  11
ATOM     11  C   UNL     1       2.321   8.479  18.479  0.00  0.00    +0.000 C 
BRANCH  11  12
ATOM     12  C   UNL     1       1.132   8.897  17.612  0.00  0.00    +0.000 C 
BRANCH  12  14
ATOM     13  C   UNL     1      -0.981  10.117  18.227  0.00  0.00    +0.000 C 
ATOM     14  C   UNL     1       0.530  10.250  18.041  0.00  0.00    +0.000 C 
ATOM     15  C   UNL     1       1.160  10.795  19.326  0.00  0.00    +0.000 C 
ENDBRANCH  12  14
ENDBRANCH  11  12
ENDBRANCH  10  11
ENDBRANCH   8  10
ENDBRANCH   7   8
ENDBRANCH   6   7
ENDBRANCH   4   6
ENDBRANCH   1   4
BRANCH   1  16
ATOM     16  N   UNL     1       3.865   3.792  18.032  0.00  0.00    +0.000 NA
ATOM     17  H   UNL     1       3.635   4.660  18.526  0.00  0.00    +0.000 HD
BRANCH  16  18
ATOM     18  C   UNL     1       5.165   3.962  17.381  0.00  0.00    +0.000 C 
ATOM     19  O   UNL     1       4.979   3.824  15.982  0.00  0.00    +0.000 OA
ATOM     20  C   UNL     1       6.209   3.930  15.261  0.00  0.00    +0.000 C 
ATOM     21  C   UNL     1       6.745   5.351  15.418  0.00  0.00    +0.000 C 
ATOM     22  C   UNL     1       6.956   5.665  16.906  0.00  0.00    +0.000 C 
ATOM     23  C   UNL     1       5.683   5.378  17.721  0.00  0.00    +0.000 C 
BRANCH  21  24
ATOM     24  O   UNL     1       5.796   6.294  14.890  0.00  0.00    +0.000 OA
ATOM     25  H   UNL     1       6.002   6.411  13.940  0.00  0.00    +0.000 HD
ENDBRANCH  21  24
BRANCH  22  26
ATOM     26  O   UNL     1       7.334   7.038  17.063  0.00  0.00    +0.000 OA
ATOM     27  H   UNL     1       7.125   7.268  17.994  0.00  0.00    +0.000 HD
ENDBRANCH  22  26
BRANCH  23  28
ATOM     28  O   UNL     1       5.900   5.472  19.140  0.00  0.00    +0.000 OA
ATOM     29  H   UNL     1       5.592   4.645  19.552  0.00  0.00    +0.000 HD
ENDBRANCH  23  28
ENDBRANCH  16  18
ENDBRANCH   1  16
TORSDOF 13
ENDMDL
