MODEL 1
REMARK VINA RESULT:      -7.4      0.000      0.000
REMARK  Name = 
REMARK  4 active torsions:
REMARK  status: ('A' for Active; 'I' for Inactive)
REMARK    1  A    between atoms: C_1  and  O_2
REMARK    2  A    between atoms: O_2  and  C_3
REMARK    3  A    between atoms: C_7  and  C_8
REMARK    4  A    between atoms: C_17  and  C_18
REMARK                            x       y       z     vdW  Elec       q    Type
REMARK                         _______ _______ _______ _____ _____    ______ ____
ROOT
ATOM      1  C   UNL     1      -4.267  12.537  21.248  0.00  0.00    +0.000 C 
ATOM      2  O   UNL     1      -4.931  12.409  22.275  0.00  0.00    +0.000 OA
ATOM      3  N   UNL     1      -2.871  12.592  21.263  0.00  0.00    +0.000 N 
ATOM      4  C   UNL     1      -1.959  12.906  20.157  0.00  0.00    +0.000 C 
ATOM      5  C   UNL     1      -1.083  11.691  19.845  0.00  0.00    +0.000 C 
ATOM      6  N   UNL     1      -0.577  11.089  21.063  0.00  0.00    +0.000 N 
ATOM      7  C   UNL     1      -1.068  11.381  22.313  0.00  0.00    +0.000 A 
ATOM      8  N   UNL     1      -0.399  10.682  23.199  0.00  0.00    +0.000 NA
ATOM      9  N   UNL     1       0.481   9.873  22.517  0.00  0.00    +0.000 NA
ATOM     10  C   UNL     1       0.346  10.086  21.217  0.00  0.00    +0.000 A 
ATOM     11  C   UNL     1      -2.178  12.355  22.538  0.00  0.00    +0.000 C 
ENDROOT
BRANCH   1  16
ATOM     12  C   UNL     1      -5.345  12.089  17.636  0.00  0.00    +0.000 A 
ATOM     13  C   UNL     1      -6.284  13.112  17.520  0.00  0.00    +0.000 A 
ATOM     14  C   UNL     1      -6.638  13.876  18.634  0.00  0.00    +0.000 A 
ATOM     15  C   UNL     1      -5.990  13.670  19.852  0.00  0.00    +0.000 A 
ATOM     16  C   UNL     1      -5.017  12.670  19.966  0.00  0.00    +0.000 A 
ATOM     17  C   UNL     1      -4.789  11.816  18.885  0.00  0.00    +0.000 A 
BRANCH  12  19
ATOM     18  C   UNL     1      -3.751  10.798  16.438  0.00  0.00    +0.000 C 
ATOM     19  O   UNL     1      -5.027  11.433  16.479  0.00  0.00    +0.000 OA
ENDBRANCH  12  19
ENDBRANCH   1  16
BRANCH  10  20
ATOM     20  C   UNL     1       1.045   9.368  20.147  0.00  0.00    +0.000 A 
ATOM     21  C   UNL     1       1.171   9.918  18.876  0.00  0.00    +0.000 A 
ATOM     22  C   UNL     1       1.844   9.193  17.895  0.00  0.00    +0.000 A 
ATOM     23  C   UNL     1       2.371   7.948  18.207  0.00  0.00    +0.000 A 
ATOM     24  C   UNL     1       2.212   7.478  19.501  0.00  0.00    +0.000 A 
ATOM     25  N   UNL     1       1.567   8.156  20.473  0.00  0.00    +0.000 NA
ENDBRANCH  10  20
TORSDOF 3
ENDMDL
MODEL 2
REMARK VINA RESULT:      -7.0      5.020      9.230
REMARK  Name = 
REMARK  4 active torsions:
REMARK  status: ('A' for Active; 'I' for Inactive)
REMARK    1  A    between atoms: C_1  and  O_2
REMARK    2  A    between atoms: O_2  and  C_3
REMARK    3  A    between atoms: C_7  and  C_8
REMARK    4  A    between atoms: C_17  and  C_18
REMARK                            x       y       z     vdW  Elec       q    Type
REMARK                         _______ _______ _______ _____ _____    ______ ____
ROOT
ATOM      1  C   UNL     1       3.975   5.416  19.229  0.00  0.00    +0.000 C 
ATOM      2  O   UNL     1       4.307   4.792  20.236  0.00  0.00    +0.000 OA
ATOM      3  N   UNL     1       2.761   6.101  19.142  0.00  0.00    +0.000 N 
ATOM      4  C   UNL     1       2.157   6.740  17.967  0.00  0.00    +0.000 C 
ATOM      5  C   UNL     1       2.044   8.250  18.197  0.00  0.00    +0.000 C 
ATOM      6  N   UNL     1       1.540   8.535  19.525  0.00  0.00    +0.000 N 
ATOM      7  C   UNL     1       1.475   7.599  20.529  0.00  0.00    +0.000 A 
ATOM      8  N   UNL     1       0.970   8.166  21.599  0.00  0.00    +0.000 NA
ATOM      9  N   UNL     1       0.776   9.499  21.315  0.00  0.00    +0.000 NA
ATOM     10  C   UNL     1       1.160   9.736  20.070  0.00  0.00    +0.000 A 
ATOM     11  C   UNL     1       1.919   6.185  20.345  0.00  0.00    +0.000 C 
ENDROOT
BRANCH   1  16
ATOM     12  C   UNL     1       6.792   6.303  16.845  0.00  0.00    +0.000 A 
ATOM     13  C   UNL     1       6.504   5.452  15.779  0.00  0.00    +0.000 A 
ATOM     14  C   UNL     1       5.462   4.526  15.876  0.00  0.00    +0.000 A 
ATOM     15  C   UNL     1       4.654   4.507  17.013  0.00  0.00    +0.000 A 
ATOM     16  C   UNL     1       4.913   5.386  18.070  0.00  0.00    +0.000 A 
ATOM     17  C   UNL     1       6.051   6.195  18.020  0.00  0.00    +0.000 A 
BRANCH  12  19
ATOM     18  C   UNL     1       7.899   8.273  17.576  0.00  0.00    +0.000 C 
ATOM     19  O   UNL     1       7.794   7.208  16.633  0.00  0.00    +0.000 OA
ENDBRANCH  12  19
ENDBRANCH   1  16
BRANCH  10  20
ATOM     20  C   UNL     1       1.188  11.044  19.410  0.00  0.00    +0.000 A 
ATOM     21  C   UNL     1       0.106  11.915  19.494  0.00  0.00    +0.000 A 
ATOM     22  C   UNL     1       0.184  13.146  18.847  0.00  0.00    +0.000 A 
ATOM     23  C   UNL     1       1.332  13.474  18.139  0.00  0.00    +0.000 A 
ATOM     24  C   UNL     1       2.369  12.554  18.115  0.00  0.00    +0.000 A 
ATOM     25  N   UNL     1       2.325  11.355  18.732  0.00  0.00    +0.000 NA
ENDBRANCH  10  20
TORSDOF 3
ENDMDL
MODEL 3
REMARK VINA RESULT:      -6.9      9.213     12.269
REMARK  Name = 
REMARK  4 active torsions:
REMARK  status: ('A' for Active; 'I' for Inactive)
REMARK    1  A    between atoms: C_1  and  O_2
REMARK    2  A    between atoms: O_2  and  C_3
REMARK    3  A    between atoms: C_7  and  C_8
REMARK    4  A    between atoms: C_17  and  C_18
REMARK                            x       y       z     vdW  Elec       q    Type
REMARK                         _______ _______ _______ _____ _____    ______ ____
ROOT
ATOM      1  C   UNL     1       6.917   4.745  13.599  0.00  0.00    +0.000 C 
ATOM      2  O   UNL     1       7.474   5.753  13.168  0.00  0.00    +0.000 OA
ATOM      3  N   UNL     1       6.841   4.461  14.965  0.00  0.00    +0.000 N 
ATOM      4  C   UNL     1       6.365   3.233  15.615  0.00  0.00    +0.000 C 
ATOM      5  C   UNL     1       5.121   3.538  16.453  0.00  0.00    +0.000 C 
ATOM      6  N   UNL     1       5.300   4.753  17.223  0.00  0.00    +0.000 N 
ATOM      7  C   UNL     1       6.310   5.656  16.991  0.00  0.00    +0.000 A 
ATOM      8  N   UNL     1       6.202   6.637  17.856  0.00  0.00    +0.000 NA
ATOM      9  N   UNL     1       5.069   6.411  18.606  0.00  0.00    +0.000 NA
ATOM     10  C   UNL     1       4.496   5.290  18.196  0.00  0.00    +0.000 A 
ATOM     11  C   UNL     1       7.330   5.470  15.916  0.00  0.00    +0.000 C 
ENDROOT
BRANCH   1  16
ATOM     12  C   UNL     1       4.473   2.969  11.302  0.00  0.00    +0.000 A 
ATOM     13  C   UNL     1       5.247   1.883  10.895  0.00  0.00    +0.000 A 
ATOM     14  C   UNL     1       6.584   1.782  11.285  0.00  0.00    +0.000 A 
ATOM     15  C   UNL     1       7.128   2.731  12.151  0.00  0.00    +0.000 A 
ATOM     16  C   UNL     1       6.345   3.803  12.595  0.00  0.00    +0.000 A 
ATOM     17  C   UNL     1       5.061   3.971  12.072  0.00  0.00    +0.000 A 
BRANCH  12  19
ATOM     18  C   UNL     1       2.829   3.723   9.763  0.00  0.00    +0.000 C 
ATOM     19  O   UNL     1       3.162   2.949  10.913  0.00  0.00    +0.000 OA
ENDBRANCH  12  19
ENDBRANCH   1  16
BRANCH  10  20
ATOM     20  C   UNL     1       3.228   4.741  18.685  0.00  0.00    +0.000 A 
ATOM     21  C   UNL     1       2.247   4.302  17.802  0.00  0.00    +0.000 A 
ATOM     22  C   UNL     1       1.059   3.790  18.319  0.00  0.00    +0.000 A 
ATOM     23  C   UNL     1       0.883   3.728  19.694  0.00  0.00    +0.000 A 
ATOM     24  C   UNL     1       1.915   4.176  20.504  0.00  0.00    +0.000 A 
ATOM     25  N   UNL     1       3.077   4.676  20.035  0.00  0.00    +0.000 NA
ENDBRANCH  10  20
TORSDOF 3
ENDMDL
MODEL 4
REMARK VINA RESULT:      -6.9      4.979      9.285
REMARK  Name = 
REMARK  4 active torsions:
REMARK  status: ('A' for Active; 'I' for Inactive)
REMARK    1  A    between atoms: C_1  and  O_2
REMARK    2  A    between atoms: O_2  and  C_3
REMARK    3  A    between atoms: C_7  and  C_8
REMARK    4  A    between atoms: C_17  and  C_18
REMARK                            x       y       z     vdW  Elec       q    Type
REMARK                         _______ _______ _______ _____ _____    ______ ____
ROOT
ATOM      1  C   UNL     1       4.078   5.584  19.111  0.00  0.00    +0.000 C 
ATOM      2  O   UNL     1       4.432   4.960  20.110  0.00  0.00    +0.000 OA
ATOM      3  N   UNL     1       2.846   6.239  19.038  0.00  0.00    +0.000 N 
ATOM      4  C   UNL     1       2.218   6.872  17.872  0.00  0.00    +0.000 C 
ATOM      5  C   UNL     1       2.068   8.376  18.116  0.00  0.00    +0.000 C 
ATOM      6  N   UNL     1       1.565   8.637  19.450  0.00  0.00    +0.000 N 
ATOM      7  C   UNL     1       1.531   7.690  20.446  0.00  0.00    +0.000 A 
ATOM      8  N   UNL     1       1.017   8.234  21.524  0.00  0.00    +0.000 NA
ATOM      9  N   UNL     1       0.788   9.564  21.253  0.00  0.00    +0.000 NA
ATOM     10  C   UNL     1       1.158   9.823  20.008  0.00  0.00    +0.000 A 
ATOM     11  C   UNL     1       2.010   6.290  20.246  0.00  0.00    +0.000 C 
ENDROOT
BRANCH   1  16
ATOM     12  C   UNL     1       5.906   4.545  15.951  0.00  0.00    +0.000 A 
ATOM     13  C   UNL     1       6.918   5.503  15.914  0.00  0.00    +0.000 A 
ATOM     14  C   UNL     1       6.947   6.537  16.852  0.00  0.00    +0.000 A 
ATOM     15  C   UNL     1       6.004   6.569  17.881  0.00  0.00    +0.000 A 
ATOM     16  C   UNL     1       5.009   5.588  17.947  0.00  0.00    +0.000 A 
ATOM     17  C   UNL     1       4.903   4.653  16.914  0.00  0.00    +0.000 A 
BRANCH  12  19
ATOM     18  C   UNL     1       6.291   3.940  13.687  0.00  0.00    +0.000 C 
ATOM     19  O   UNL     1       5.995   3.544  15.025  0.00  0.00    +0.000 OA
ENDBRANCH  12  19
ENDBRANCH   1  16
BRANCH  10  20
ATOM     20  C   UNL     1       1.149  11.137  19.360  0.00  0.00    +0.000 A 
ATOM     21  C   UNL     1       0.020  11.950  19.400  0.00  0.00    +0.000 A 
ATOM     22  C   UNL     1       0.064  13.190  18.766  0.00  0.00    +0.000 A 
ATOM     23  C   UNL     1       1.224  13.583  18.115  0.00  0.00    +0.000 A 
ATOM     24  C   UNL     1       2.307  12.719  18.132  0.00  0.00    +0.000 A 
ATOM     25  N   UNL     1       2.297  11.513  18.737  0.00  0.00    +0.000 NA
ENDBRANCH  10  20
TORSDOF 3
ENDMDL
MODEL 5
REMARK VINA RESULT:      -6.9      1.530      2.113
REMARK  Name = 
REMARK  4 active torsions:
REMARK  status: ('A' for Active; 'I' for Inactive)
REMARK    1  A    between atoms: C_1  and  O_2
REMARK    2  A    between atoms: O_2  and  C_3
REMARK    3  A    between atoms: C_7  and  C_8
REMARK    4  A    between atoms: C_17  and  C_18
REMARK                            x       y       z     vdW  Elec       q    Type
REMARK                         _______ _______ _______ _____ _____    ______ ____
ROOT
ATOM      1  C   UNL     1      -3.945  12.559  22.110  0.00  0.00    +0.000 C 
ATOM      2  O   UNL     1      -4.584  12.290  23.126  0.00  0.00    +0.000 OA
ATOM      3  N   UNL     1      -2.550  12.492  22.067  0.00  0.00    +0.000 N 
ATOM      4  C   UNL     1      -1.649  12.937  20.997  0.00  0.00    +0.000 C 
ATOM      5  C   UNL     1      -0.899  11.736  20.416  0.00  0.00    +0.000 C 
ATOM      6  N   UNL     1      -0.411  10.870  21.471  0.00  0.00    +0.000 N 
ATOM      7  C   UNL     1      -0.832  10.955  22.777  0.00  0.00    +0.000 A 
ATOM      8  N   UNL     1      -0.202  10.044  23.480  0.00  0.00    +0.000 NA
ATOM      9  N   UNL     1       0.578   9.311  22.614  0.00  0.00    +0.000 NA
ATOM     10  C   UNL     1       0.422   9.783  21.387  0.00  0.00    +0.000 A 
ATOM     11  C   UNL     1      -1.841  11.956  23.237  0.00  0.00    +0.000 C 
ENDROOT
BRANCH   1  16
ATOM     12  C   UNL     1      -5.941  14.700  19.695  0.00  0.00    +0.000 A 
ATOM     13  C   UNL     1      -6.368  13.733  18.787  0.00  0.00    +0.000 A 
ATOM     14  C   UNL     1      -5.927  12.413  18.902  0.00  0.00    +0.000 A 
ATOM     15  C   UNL     1      -5.120  12.041  19.978  0.00  0.00    +0.000 A 
ATOM     16  C   UNL     1      -4.721  12.999  20.915  0.00  0.00    +0.000 A 
ATOM     17  C   UNL     1      -5.043  14.341  20.698  0.00  0.00    +0.000 A 
BRANCH  12  19
ATOM     18  C   UNL     1      -6.676  16.381  18.187  0.00  0.00    +0.000 C 
ATOM     19  O   UNL     1      -6.469  15.951  19.530  0.00  0.00    +0.000 OA
ENDBRANCH  12  19
ENDBRANCH   1  16
BRANCH  10  20
ATOM     20  C   UNL     1       1.017   9.229  20.167  0.00  0.00    +0.000 A 
ATOM     21  C   UNL     1       0.878   9.876  18.943  0.00  0.00    +0.000 A 
ATOM     22  C   UNL     1       1.462   9.306  17.813  0.00  0.00    +0.000 A 
ATOM     23  C   UNL     1       2.166   8.116  17.935  0.00  0.00    +0.000 A 
ATOM     24  C   UNL     1       2.267   7.543  19.194  0.00  0.00    +0.000 A 
ATOM     25  N   UNL     1       1.714   8.071  20.306  0.00  0.00    +0.000 NA
ENDBRANCH  10  20
TORSDOF 3
ENDMDL
MODEL 6
REMARK VINA RESULT:      -6.9      1.847      2.829
REMARK  Name = 
REMARK  4 active torsions:
REMARK  status: ('A' for Active; 'I' for Inactive)
REMARK    1  A    between atoms: C_1  and  O_2
REMARK    2  A    between atoms: O_2  and  C_3
REMARK    3  A    between atoms: C_7  and  C_8
REMARK    4  A    between atoms: C_17  and  C_18
REMARK                            x       y       z     vdW  Elec       q    Type
REMARK                         _______ _______ _______ _____ _____    ______ ____
ROOT
ATOM      1  C   UNL     1      -2.239  11.828  19.666  0.00  0.00    +0.000 C 
ATOM      2  O   UNL     1      -2.814  12.353  20.618  0.00  0.00    +0.000 OA
ATOM      3  N   UNL     1      -0.885  11.484  19.710  0.00  0.00    +0.000 N 
ATOM      4  C   UNL     1      -0.029  11.013  18.614  0.00  0.00    +0.000 C 
ATOM      5  C   UNL     1       0.452   9.589  18.905  0.00  0.00    +0.000 C 
ATOM      6  N   UNL     1       0.886   9.460  20.282  0.00  0.00    +0.000 N 
ATOM      7  C   UNL     1       0.611  10.391  21.254  0.00  0.00    +0.000 A 
ATOM      8  N   UNL     1       1.145   9.988  22.383  0.00  0.00    +0.000 NA
ATOM      9  N   UNL     1       1.705   8.750  22.163  0.00  0.00    +0.000 NA
ATOM     10  C   UNL     1       1.513   8.407  20.899  0.00  0.00    +0.000 A 
ATOM     11  C   UNL     1      -0.167  11.637  20.983  0.00  0.00    +0.000 C 
ENDROOT
BRANCH   1  16
ATOM     12  C   UNL     1      -3.189  11.011  16.084  0.00  0.00    +0.000 A 
ATOM     13  C   UNL     1      -4.525  11.406  16.076  0.00  0.00    +0.000 A 
ATOM     14  C   UNL     1      -5.140  11.840  17.253  0.00  0.00    +0.000 A 
ATOM     15  C   UNL     1      -4.393  11.956  18.425  0.00  0.00    +0.000 A 
ATOM     16  C   UNL     1      -3.040  11.598  18.430  0.00  0.00    +0.000 A 
ATOM     17  C   UNL     1      -2.484  11.021  17.286  0.00  0.00    +0.000 A 
BRANCH  12  19
ATOM     18  C   UNL     1      -3.563  10.055  13.942  0.00  0.00    +0.000 C 
ATOM     19  O   UNL     1      -2.664  10.652  14.873  0.00  0.00    +0.000 OA
ENDBRANCH  12  19
ENDBRANCH   1  16
BRANCH  10  20
ATOM     20  C   UNL     1       1.888   7.130  20.285  0.00  0.00    +0.000 A 
ATOM     21  C   UNL     1       1.499   5.920  20.849  0.00  0.00    +0.000 A 
ATOM     22  C   UNL     1       1.884   4.734  20.225  0.00  0.00    +0.000 A 
ATOM     23  C   UNL     1       2.639   4.789  19.063  0.00  0.00    +0.000 A 
ATOM     24  C   UNL     1       2.975   6.036  18.560  0.00  0.00    +0.000 A 
ATOM     25  N   UNL     1       2.617   7.201  19.139  0.00  0.00    +0.000 NA
ENDBRANCH  10  20
TORSDOF 3
ENDMDL
MODEL 7
REMARK VINA RESULT:      -6.8      4.876      7.924
REMARK  Name = 
REMARK  4 active torsions:
REMARK  status: ('A' for Active; 'I' for Inactive)
REMARK    1  A    between atoms: C_1  and  O_2
REMARK    2  A    between atoms: O_2  and  C_3
REMARK    3  A    between atoms: C_7  and  C_8
REMARK    4  A    between atoms: C_17  and  C_18
REMARK                            x       y       z     vdW  Elec       q    Type
REMARK                         _______ _______ _______ _____ _____    ______ ____
ROOT
ATOM      1  C   UNL     1       1.882   7.639  19.745  0.00  0.00    +0.000 C 
ATOM      2  O   UNL     1       1.824   7.067  20.833  0.00  0.00    +0.000 OA
ATOM      3  N   UNL     1       1.192   8.826  19.489  0.00  0.00    +0.000 N 
ATOM      4  C   UNL     1       1.028   9.527  18.209  0.00  0.00    +0.000 C 
ATOM      5  C   UNL     1       1.697  10.902  18.280  0.00  0.00    +0.000 C 
ATOM      6  N   UNL     1       1.380  11.569  19.527  0.00  0.00    +0.000 N 
ATOM      7  C   UNL     1       0.821  10.930  20.608  0.00  0.00    +0.000 A 
ATOM      8  N   UNL     1       0.652  11.806  21.571  0.00  0.00    +0.000 NA
ATOM      9  N   UNL     1       1.174  13.006  21.142  0.00  0.00    +0.000 NA
ATOM     10  C   UNL     1       1.655  12.855  19.918  0.00  0.00    +0.000 A 
ATOM     11  C   UNL     1       0.484   9.475  20.602  0.00  0.00    +0.000 C 
ENDROOT
BRANCH   1  16
ATOM     12  C   UNL     1       3.458   5.013  17.504  0.00  0.00    +0.000 A 
ATOM     13  C   UNL     1       4.413   5.782  16.840  0.00  0.00    +0.000 A 
ATOM     14  C   UNL     1       4.477   7.161  17.046  0.00  0.00    +0.000 A 
ATOM     15  C   UNL     1       3.634   7.764  17.981  0.00  0.00    +0.000 A 
ATOM     16  C   UNL     1       2.700   6.991  18.680  0.00  0.00    +0.000 A 
ATOM     17  C   UNL     1       2.546   5.643  18.348  0.00  0.00    +0.000 A 
BRANCH  12  19
ATOM     18  C   UNL     1       3.184   2.821  18.378  0.00  0.00    +0.000 C 
ATOM     19  O   UNL     1       3.511   3.666  17.277  0.00  0.00    +0.000 OA
ENDBRANCH  12  19
ENDBRANCH   1  16
BRANCH  10  20
ATOM     20  C   UNL     1       2.364  13.874  19.138  0.00  0.00    +0.000 A 
ATOM     21  C   UNL     1       3.634  13.631  18.625  0.00  0.00    +0.000 A 
ATOM     22  C   UNL     1       4.265  14.633  17.892  0.00  0.00    +0.000 A 
ATOM     23  C   UNL     1       3.615  15.843  17.689  0.00  0.00    +0.000 A 
ATOM     24  C   UNL     1       2.346  15.999  18.225  0.00  0.00    +0.000 A 
ATOM     25  N   UNL     1       1.708  15.048  18.938  0.00  0.00    +0.000 NA
ENDBRANCH  10  20
TORSDOF 3
ENDMDL
MODEL 8
REMARK VINA RESULT:      -6.7      3.239      7.678
REMARK  Name = 
REMARK  4 active torsions:
REMARK  status: ('A' for Active; 'I' for Inactive)
REMARK    1  A    between atoms: C_1  and  O_2
REMARK    2  A    between atoms: O_2  and  C_3
REMARK    3  A    between atoms: C_7  and  C_8
REMARK    4  A    between atoms: C_17  and  C_18
REMARK                            x       y       z     vdW  Elec       q    Type
REMARK                         _______ _______ _______ _____ _____    ______ ____
ROOT
ATOM      1  C   UNL     1      -2.122  10.598  18.379  0.00  0.00    +0.000 C 
ATOM      2  O   UNL     1      -2.145   9.587  17.678  0.00  0.00    +0.000 OA
ATOM      3  N   UNL     1      -3.190  11.497  18.426  0.00  0.00    +0.000 N 
ATOM      4  C   UNL     1      -3.245  12.814  19.073  0.00  0.00    +0.000 C 
ATOM      5  C   UNL     1      -4.287  12.799  20.195  0.00  0.00    +0.000 C 
ATOM      6  N   UNL     1      -5.505  12.144  19.762  0.00  0.00    +0.000 N 
ATOM      7  C   UNL     1      -5.591  11.379  18.623  0.00  0.00    +0.000 A 
ATOM      8  N   UNL     1      -6.822  10.936  18.508  0.00  0.00    +0.000 NA
ATOM      9  N   UNL     1      -7.521  11.352  19.619  0.00  0.00    +0.000 NA
ATOM     10  C   UNL     1      -6.715  12.050  20.403  0.00  0.00    +0.000 A 
ATOM     11  C   UNL     1      -4.429  11.148  17.715  0.00  0.00    +0.000 C 
ENDROOT
BRANCH   1  16
ATOM     12  C   UNL     1       0.388  10.711  21.223  0.00  0.00    +0.000 A 
ATOM     13  C   UNL     1       1.358  11.550  20.676  0.00  0.00    +0.000 A 
ATOM     14  C   UNL     1       1.245  11.993  19.357  0.00  0.00    +0.000 A 
ATOM     15  C   UNL     1       0.116  11.662  18.606  0.00  0.00    +0.000 A 
ATOM     16  C   UNL     1      -0.880  10.853  19.163  0.00  0.00    +0.000 A 
ATOM     17  C   UNL     1      -0.677  10.293  20.426  0.00  0.00    +0.000 A 
BRANCH  12  19
ATOM     18  C   UNL     1      -0.621  10.065  23.274  0.00  0.00    +0.000 C 
ATOM     19  O   UNL     1       0.559  10.375  22.537  0.00  0.00    +0.000 OA
ENDBRANCH  12  19
ENDBRANCH   1  16
BRANCH  10  20
ATOM     20  C   UNL     1      -7.053  12.601  21.718  0.00  0.00    +0.000 A 
ATOM     21  C   UNL     1      -7.414  13.936  21.866  0.00  0.00    +0.000 A 
ATOM     22  C   UNL     1      -7.725  14.410  23.139  0.00  0.00    +0.000 A 
ATOM     23  C   UNL     1      -7.670  13.544  24.222  0.00  0.00    +0.000 A 
ATOM     24  C   UNL     1      -7.312  12.226  23.986  0.00  0.00    +0.000 A 
ATOM     25  N   UNL     1      -7.007  11.737  22.766  0.00  0.00    +0.000 NA
ENDBRANCH  10  20
TORSDOF 3
ENDMDL
MODEL 9
REMARK VINA RESULT:      -6.6      5.095      8.829
REMARK  Name = 
REMARK  4 active torsions:
REMARK  status: ('A' for Active; 'I' for Inactive)
REMARK    1  A    between atoms: C_1  and  O_2
REMARK    2  A    between atoms: O_2  and  C_3
REMARK    3  A    between atoms: C_7  and  C_8
REMARK    4  A    between atoms: C_17  and  C_18
REMARK                            x       y       z     vdW  Elec       q    Type
REMARK                         _______ _______ _______ _____ _____    ______ ____
ROOT
ATOM      1  C   UNL     1       3.497   5.933  19.223  0.00  0.00    +0.000 C 
ATOM      2  O   UNL     1       3.813   5.183  20.145  0.00  0.00    +0.000 OA
ATOM      3  N   UNL     1       2.349   6.728  19.269  0.00  0.00    +0.000 N 
ATOM      4  C   UNL     1       1.756   7.535  18.196  0.00  0.00    +0.000 C 
ATOM      5  C   UNL     1       1.793   9.017  18.579  0.00  0.00    +0.000 C 
ATOM      6  N   UNL     1       1.376   9.207  19.954  0.00  0.00    +0.000 N 
ATOM      7  C   UNL     1       1.269   8.181  20.862  0.00  0.00    +0.000 A 
ATOM      8  N   UNL     1       0.864   8.677  22.008  0.00  0.00    +0.000 NA
ATOM      9  N   UNL     1       0.783  10.044  21.867  0.00  0.00    +0.000 NA
ATOM     10  C   UNL     1       1.133  10.374  20.634  0.00  0.00    +0.000 A 
ATOM     11  C   UNL     1       1.572   6.760  20.517  0.00  0.00    +0.000 C 
ENDROOT
BRANCH   1  16
ATOM     12  C   UNL     1       5.242   4.870  16.025  0.00  0.00    +0.000 A 
ATOM     13  C   UNL     1       6.201   5.875  15.910  0.00  0.00    +0.000 A 
ATOM     14  C   UNL     1       6.215   6.944  16.808  0.00  0.00    +0.000 A 
ATOM     15  C   UNL     1       5.317   6.967  17.875  0.00  0.00    +0.000 A 
ATOM     16  C   UNL     1       4.377   5.940  18.020  0.00  0.00    +0.000 A 
ATOM     17  C   UNL     1       4.277   4.964  17.027  0.00  0.00    +0.000 A 
BRANCH  12  19
ATOM     18  C   UNL     1       6.273   4.014  14.064  0.00  0.00    +0.000 C 
ATOM     19  O   UNL     1       5.344   3.840  15.132  0.00  0.00    +0.000 OA
ENDBRANCH  12  19
ENDBRANCH   1  16
BRANCH  10  20
ATOM     20  C   UNL     1       1.253  11.736  20.105  0.00  0.00    +0.000 A 
ATOM     21  C   UNL     1       0.626  12.104  18.919  0.00  0.00    +0.000 A 
ATOM     22  C   UNL     1       0.774  13.411  18.460  0.00  0.00    +0.000 A 
ATOM     23  C   UNL     1       1.536  14.310  19.192  0.00  0.00    +0.000 A 
ATOM     24  C   UNL     1       2.118  13.865  20.370  0.00  0.00    +0.000 A 
ATOM     25  N   UNL     1       1.993  12.607  20.841  0.00  0.00    +0.000 NA
ENDBRANCH  10  20
TORSDOF 3
ENDMDL
