MODEL 1
REMARK VINA RESULT:      -7.2      0.000      0.000
REMARK  Name = 
REMARK  4 active torsions:
REMARK  status: ('A' for Active; 'I' for Inactive)
REMARK    1  A    between atoms: C_1  and  C_2
REMARK    2  A    between atoms: C_9  and  C_11
REMARK    3  A    between atoms: C_11  and  S_12
REMARK    4  A    between atoms: S_12  and  C_13
REMARK                            x       y       z     vdW  Elec       q    Type
REMARK                         _______ _______ _______ _____ _____    ______ ____
ROOT
ATOM      1  C   UNL     1       8.557   6.349  11.942  0.00  0.00    +0.000 C 
ATOM      2  C   UNL     1       7.664   5.301  12.534  0.00  0.00    +0.000 A 
ATOM      3  C   UNL     1       6.990   4.402  11.748  0.00  0.00    +0.000 A 
ATOM      4  C   UNL     1       6.249   3.476  12.441  0.00  0.00    +0.000 A 
ATOM      5 CL   UNL     1       5.329   2.295  11.598  0.00  0.00    +0.000 Cl
ATOM      6  N   UNL     1       6.152   3.398  13.778  0.00  0.00    +0.000 NA
ATOM      7  C   UNL     1       6.815   4.340  14.452  0.00  0.00    +0.000 A 
ATOM      8  N   UNL     1       6.686   4.268  15.831  0.00  0.00    +0.000 N 
ATOM      9  C   UNL     1       7.111   5.223  16.726  0.00  0.00    +0.000 C 
ATOM     10  O   UNL     1       7.548   6.337  16.446  0.00  0.00    +0.000 OA
ATOM     11  N   UNL     1       7.571   5.282  13.877  0.00  0.00    +0.000 NA
ATOM     12  H   UNL     1       6.226   3.431  16.154  0.00  0.00    +0.000 HD
ENDROOT
BRANCH   9  13
ATOM     13  C   UNL     1       6.912   4.828  18.182  0.00  0.00    +0.000 C 
BRANCH  13  14
ATOM     14  S   UNL     1       5.592   5.848  18.916  0.00  0.00    +0.000 S 
BRANCH  14  15
ATOM     15  C   UNL     1       4.119   4.854  18.747  0.00  0.00    +0.000 A 
ATOM     16  C   UNL     1       3.154   4.985  17.741  0.00  0.00    +0.000 A 
ATOM     17  C   UNL     1       2.040   4.133  17.711  0.00  0.00    +0.000 A 
ATOM     18  C   UNL     1       1.884   3.148  18.684  0.00  0.00    +0.000 A 
ATOM     19 CL   UNL     1       0.519   2.103  18.641  0.00  0.00    +0.000 Cl
ATOM     20  C   UNL     1       2.830   3.007  19.692  0.00  0.00    +0.000 A 
ATOM     21  C   UNL     1       3.939   3.858  19.721  0.00  0.00    +0.000 A 
ENDBRANCH  14  15
ENDBRANCH  13  14
ENDBRANCH   9  13
TORSDOF 3
ENDMDL
MODEL 2
REMARK VINA RESULT:      -7.1      0.358      1.064
REMARK  Name = 
REMARK  4 active torsions:
REMARK  status: ('A' for Active; 'I' for Inactive)
REMARK    1  A    between atoms: C_1  and  C_2
REMARK    2  A    between atoms: C_9  and  C_11
REMARK    3  A    between atoms: C_11  and  S_12
REMARK    4  A    between atoms: S_12  and  C_13
REMARK                            x       y       z     vdW  Elec       q    Type
REMARK                         _______ _______ _______ _____ _____    ______ ____
ROOT
ATOM      1  C   UNL     1       8.796   6.280  12.161  0.00  0.00    +0.000 C 
ATOM      2  C   UNL     1       7.810   5.293  12.705  0.00  0.00    +0.000 A 
ATOM      3  C   UNL     1       7.133   4.424  11.888  0.00  0.00    +0.000 A 
ATOM      4  C   UNL     1       6.299   3.551  12.541  0.00  0.00    +0.000 A 
ATOM      5 CL   UNL     1       5.364   2.415  11.654  0.00  0.00    +0.000 Cl
ATOM      6  N   UNL     1       6.117   3.495  13.871  0.00  0.00    +0.000 NA
ATOM      7  C   UNL     1       6.791   4.405  14.576  0.00  0.00    +0.000 A 
ATOM      8  N   UNL     1       6.575   4.357  15.945  0.00  0.00    +0.000 N 
ATOM      9  C   UNL     1       7.000   5.296  16.857  0.00  0.00    +0.000 C 
ATOM     10  O   UNL     1       7.518   6.380  16.594  0.00  0.00    +0.000 OA
ATOM     11  N   UNL     1       7.634   5.295  14.041  0.00  0.00    +0.000 NA
ATOM     12  H   UNL     1       6.048   3.552  16.246  0.00  0.00    +0.000 HD
ENDROOT
BRANCH   9  13
ATOM     13  C   UNL     1       6.690   4.931  18.301  0.00  0.00    +0.000 C 
BRANCH  13  14
ATOM     14  S   UNL     1       5.317   5.962  18.910  0.00  0.00    +0.000 S 
BRANCH  14  15
ATOM     15  C   UNL     1       3.919   4.852  18.961  0.00  0.00    +0.000 A 
ATOM     16  C   UNL     1       3.355   4.297  20.116  0.00  0.00    +0.000 A 
ATOM     17  C   UNL     1       2.247   3.442  20.025  0.00  0.00    +0.000 A 
ATOM     18  C   UNL     1       1.697   3.137  18.782  0.00  0.00    +0.000 A 
ATOM     19 CL   UNL     1       0.335   2.092  18.675  0.00  0.00    +0.000 Cl
ATOM     20  C   UNL     1       2.246   3.677  17.625  0.00  0.00    +0.000 A 
ATOM     21  C   UNL     1       3.351   4.527  17.718  0.00  0.00    +0.000 A 
ENDBRANCH  14  15
ENDBRANCH  13  14
ENDBRANCH   9  13
TORSDOF 3
ENDMDL
MODEL 3
REMARK VINA RESULT:      -7.1      3.777      4.931
REMARK  Name = 
REMARK  4 active torsions:
REMARK  status: ('A' for Active; 'I' for Inactive)
REMARK    1  A    between atoms: C_1  and  C_2
REMARK    2  A    between atoms: C_9  and  C_11
REMARK    3  A    between atoms: C_11  and  S_12
REMARK    4  A    between atoms: S_12  and  C_13
REMARK                            x       y       z     vdW  Elec       q    Type
REMARK                         _______ _______ _______ _____ _____    ______ ____
ROOT
ATOM      1  C   UNL     1       6.112   3.984  14.974  0.00  0.00    +0.000 C 
ATOM      2  C   UNL     1       6.282   4.507  16.367  0.00  0.00    +0.000 A 
ATOM      3  C   UNL     1       7.145   5.534  16.652  0.00  0.00    +0.000 A 
ATOM      4  C   UNL     1       7.154   5.931  17.966  0.00  0.00    +0.000 A 
ATOM      5 CL   UNL     1       8.200   7.190  18.486  0.00  0.00    +0.000 Cl
ATOM      6  N   UNL     1       6.400   5.402  18.945  0.00  0.00    +0.000 NA
ATOM      7  C   UNL     1       5.620   4.384  18.575  0.00  0.00    +0.000 A 
ATOM      8  N   UNL     1       4.866   3.828  19.598  0.00  0.00    +0.000 N 
ATOM      9  C   UNL     1       4.138   2.664  19.513  0.00  0.00    +0.000 C 
ATOM     10  O   UNL     1       4.143   1.871  18.573  0.00  0.00    +0.000 OA
ATOM     11  N   UNL     1       5.530   3.925  17.322  0.00  0.00    +0.000 NA
ATOM     12  H   UNL     1       4.896   4.352  20.458  0.00  0.00    +0.000 HD
ENDROOT
BRANCH   9  13
ATOM     13  C   UNL     1       3.342   2.348  20.771  0.00  0.00    +0.000 C 
BRANCH  13  14
ATOM     14  S   UNL     1       1.645   2.990  20.597  0.00  0.00    +0.000 S 
BRANCH  14  15
ATOM     15  C   UNL     1       1.858   4.611  19.880  0.00  0.00    +0.000 A 
ATOM     16  C   UNL     1       1.994   5.810  20.591  0.00  0.00    +0.000 A 
ATOM     17  C   UNL     1       2.166   7.024  19.909  0.00  0.00    +0.000 A 
ATOM     18  C   UNL     1       2.201   7.047  18.517  0.00  0.00    +0.000 A 
ATOM     19 CL   UNL     1       2.417   8.537  17.685  0.00  0.00    +0.000 Cl
ATOM     20  C   UNL     1       2.065   5.867  17.795  0.00  0.00    +0.000 A 
ATOM     21  C   UNL     1       1.892   4.659  18.477  0.00  0.00    +0.000 A 
ENDBRANCH  14  15
ENDBRANCH  13  14
ENDBRANCH   9  13
TORSDOF 3
ENDMDL
MODEL 4
REMARK VINA RESULT:      -7.1      3.797      4.880
REMARK  Name = 
REMARK  4 active torsions:
REMARK  status: ('A' for Active; 'I' for Inactive)
REMARK    1  A    between atoms: C_1  and  C_2
REMARK    2  A    between atoms: C_9  and  C_11
REMARK    3  A    between atoms: C_11  and  S_12
REMARK    4  A    between atoms: S_12  and  C_13
REMARK                            x       y       z     vdW  Elec       q    Type
REMARK                         _______ _______ _______ _____ _____    ______ ____
ROOT
ATOM      1  C   UNL     1       5.830   4.157  14.968  0.00  0.00    +0.000 C 
ATOM      2  C   UNL     1       6.101   4.599  16.374  0.00  0.00    +0.000 A 
ATOM      3  C   UNL     1       7.024   5.572  16.658  0.00  0.00    +0.000 A 
ATOM      4  C   UNL     1       7.125   5.898  17.988  0.00  0.00    +0.000 A 
ATOM      5 CL   UNL     1       8.254   7.085  18.507  0.00  0.00    +0.000 Cl
ATOM      6  N   UNL     1       6.406   5.350  18.981  0.00  0.00    +0.000 NA
ATOM      7  C   UNL     1       5.562   4.386  18.608  0.00  0.00    +0.000 A 
ATOM      8  N   UNL     1       4.845   3.808  19.644  0.00  0.00    +0.000 N 
ATOM      9  C   UNL     1       4.061   2.681  19.544  0.00  0.00    +0.000 C 
ATOM     10  O   UNL     1       3.978   1.940  18.567  0.00  0.00    +0.000 OA
ATOM     11  N   UNL     1       5.381   3.998  17.341  0.00  0.00    +0.000 NA
ATOM     12  H   UNL     1       4.947   4.285  20.526  0.00  0.00    +0.000 HD
ENDROOT
BRANCH   9  13
ATOM     13  C   UNL     1       3.326   2.332  20.830  0.00  0.00    +0.000 C 
BRANCH  13  14
ATOM     14  S   UNL     1       1.649   3.044  20.786  0.00  0.00    +0.000 S 
BRANCH  14  15
ATOM     15  C   UNL     1       1.825   4.530  19.812  0.00  0.00    +0.000 A 
ATOM     16  C   UNL     1       1.715   4.614  18.419  0.00  0.00    +0.000 A 
ATOM     17  C   UNL     1       1.865   5.847  17.767  0.00  0.00    +0.000 A 
ATOM     18  C   UNL     1       2.127   7.001  18.503  0.00  0.00    +0.000 A 
ATOM     19 CL   UNL     1       2.306   8.512  17.701  0.00  0.00    +0.000 Cl
ATOM     20  C   UNL     1       2.244   6.936  19.886  0.00  0.00    +0.000 A 
ATOM     21  C   UNL     1       2.095   5.705  20.533  0.00  0.00    +0.000 A 
ENDBRANCH  14  15
ENDBRANCH  13  14
ENDBRANCH   9  13
TORSDOF 3
ENDMDL
MODEL 5
REMARK VINA RESULT:      -6.9      1.244      1.492
REMARK  Name = 
REMARK  4 active torsions:
REMARK  status: ('A' for Active; 'I' for Inactive)
REMARK    1  A    between atoms: C_1  and  C_2
REMARK    2  A    between atoms: C_9  and  C_11
REMARK    3  A    between atoms: C_11  and  S_12
REMARK    4  A    between atoms: S_12  and  C_13
REMARK                            x       y       z     vdW  Elec       q    Type
REMARK                         _______ _______ _______ _____ _____    ______ ____
ROOT
ATOM      1  C   UNL     1       8.748   6.259  12.009  0.00  0.00    +0.000 C 
ATOM      2  C   UNL     1       7.774   5.270  12.572  0.00  0.00    +0.000 A 
ATOM      3  C   UNL     1       7.141   4.349  11.777  0.00  0.00    +0.000 A 
ATOM      4  C   UNL     1       6.314   3.482  12.447  0.00  0.00    +0.000 A 
ATOM      5 CL   UNL     1       5.432   2.285  11.588  0.00  0.00    +0.000 Cl
ATOM      6  N   UNL     1       6.099   3.479  13.773  0.00  0.00    +0.000 NA
ATOM      7  C   UNL     1       6.731   4.437  14.454  0.00  0.00    +0.000 A 
ATOM      8  N   UNL     1       6.480   4.442  15.819  0.00  0.00    +0.000 N 
ATOM      9  C   UNL     1       6.858   5.431  16.698  0.00  0.00    +0.000 C 
ATOM     10  O   UNL     1       7.353   6.516  16.401  0.00  0.00    +0.000 OA
ATOM     11  N   UNL     1       7.564   5.325  13.902  0.00  0.00    +0.000 NA
ATOM     12  H   UNL     1       5.968   3.637  16.142  0.00  0.00    +0.000 HD
ENDROOT
BRANCH   9  13
ATOM     13  C   UNL     1       6.520   5.120  18.149  0.00  0.00    +0.000 C 
BRANCH  13  14
ATOM     14  S   UNL     1       5.064   6.090  18.658  0.00  0.00    +0.000 S 
BRANCH  14  15
ATOM     15  C   UNL     1       4.037   4.921  19.534  0.00  0.00    +0.000 A 
ATOM     16  C   UNL     1       4.263   3.543  19.628  0.00  0.00    +0.000 A 
ATOM     17  C   UNL     1       3.385   2.727  20.357  0.00  0.00    +0.000 A 
ATOM     18  C   UNL     1       2.278   3.284  20.994  0.00  0.00    +0.000 A 
ATOM     19 CL   UNL     1       1.206   2.281  21.891  0.00  0.00    +0.000 Cl
ATOM     20  C   UNL     1       2.036   4.649  20.908  0.00  0.00    +0.000 A 
ATOM     21  C   UNL     1       2.912   5.460  20.180  0.00  0.00    +0.000 A 
ENDBRANCH  14  15
ENDBRANCH  13  14
ENDBRANCH   9  13
TORSDOF 3
ENDMDL
MODEL 6
REMARK VINA RESULT:      -6.9      5.006      8.281
REMARK  Name = 
REMARK  4 active torsions:
REMARK  status: ('A' for Active; 'I' for Inactive)
REMARK    1  A    between atoms: C_1  and  C_2
REMARK    2  A    between atoms: C_9  and  C_11
REMARK    3  A    between atoms: C_11  and  S_12
REMARK    4  A    between atoms: S_12  and  C_13
REMARK                            x       y       z     vdW  Elec       q    Type
REMARK                         _______ _______ _______ _____ _____    ______ ____
ROOT
ATOM      1  C   UNL     1       0.792  11.070  18.696  0.00  0.00    +0.000 C 
ATOM      2  C   UNL     1       0.906  10.074  19.809  0.00  0.00    +0.000 A 
ATOM      3  C   UNL     1       0.413  10.333  21.062  0.00  0.00    +0.000 A 
ATOM      4  C   UNL     1       0.553   9.303  21.960  0.00  0.00    +0.000 A 
ATOM      5 CL   UNL     1       0.006   9.482  23.578  0.00  0.00    +0.000 Cl
ATOM      6  N   UNL     1       1.115   8.112  21.697  0.00  0.00    +0.000 NA
ATOM      7  C   UNL     1       1.598   7.971  20.461  0.00  0.00    +0.000 A 
ATOM      8  N   UNL     1       2.200   6.747  20.209  0.00  0.00    +0.000 N 
ATOM      9  C   UNL     1       2.932   6.431  19.087  0.00  0.00    +0.000 C 
ATOM     10  O   UNL     1       3.276   7.212  18.201  0.00  0.00    +0.000 OA
ATOM     11  N   UNL     1       1.507   8.905  19.509  0.00  0.00    +0.000 NA
ATOM     12  H   UNL     1       2.070   6.070  20.943  0.00  0.00    +0.000 HD
ENDROOT
BRANCH   9  13
ATOM     13  C   UNL     1       3.397   4.983  19.048  0.00  0.00    +0.000 C 
BRANCH  13  14
ATOM     14  S   UNL     1       5.215   4.923  19.158  0.00  0.00    +0.000 S 
BRANCH  14  15
ATOM     15  C   UNL     1       5.754   4.730  17.466  0.00  0.00    +0.000 A 
ATOM     16  C   UNL     1       7.068   4.866  17.005  0.00  0.00    +0.000 A 
ATOM     17  C   UNL     1       7.367   4.679  15.647  0.00  0.00    +0.000 A 
ATOM     18  C   UNL     1       6.356   4.356  14.745  0.00  0.00    +0.000 A 
ATOM     19 CL   UNL     1       6.727   4.123  13.082  0.00  0.00    +0.000 Cl
ATOM     20  C   UNL     1       5.045   4.220  15.185  0.00  0.00    +0.000 A 
ATOM     21  C   UNL     1       4.749   4.408  16.538  0.00  0.00    +0.000 A 
ENDBRANCH  14  15
ENDBRANCH  13  14
ENDBRANCH   9  13
TORSDOF 3
ENDMDL
MODEL 7
REMARK VINA RESULT:      -6.9      4.995      8.246
REMARK  Name = 
REMARK  4 active torsions:
REMARK  status: ('A' for Active; 'I' for Inactive)
REMARK    1  A    between atoms: C_1  and  C_2
REMARK    2  A    between atoms: C_9  and  C_11
REMARK    3  A    between atoms: C_11  and  S_12
REMARK    4  A    between atoms: S_12  and  C_13
REMARK                            x       y       z     vdW  Elec       q    Type
REMARK                         _______ _______ _______ _____ _____    ______ ____
ROOT
ATOM      1  C   UNL     1       0.560  10.879  18.440  0.00  0.00    +0.000 C 
ATOM      2  C   UNL     1       0.745   9.987  19.629  0.00  0.00    +0.000 A 
ATOM      3  C   UNL     1       0.226  10.306  20.858  0.00  0.00    +0.000 A 
ATOM      4  C   UNL     1       0.441   9.366  21.835  0.00  0.00    +0.000 A 
ATOM      5 CL   UNL     1      -0.128   9.629  23.434  0.00  0.00    +0.000 Cl
ATOM      6  N   UNL     1       1.097   8.205  21.668  0.00  0.00    +0.000 NA
ATOM      7  C   UNL     1       1.597   8.004  20.447  0.00  0.00    +0.000 A 
ATOM      8  N   UNL     1       2.295   6.815  20.293  0.00  0.00    +0.000 N 
ATOM      9  C   UNL     1       3.055   6.470  19.200  0.00  0.00    +0.000 C 
ATOM     10  O   UNL     1       3.343   7.202  18.255  0.00  0.00    +0.000 OA
ATOM     11  N   UNL     1       1.438   8.849  19.424  0.00  0.00    +0.000 NA
ATOM     12  H   UNL     1       2.214   6.191  21.080  0.00  0.00    +0.000 HD
ENDROOT
BRANCH   9  13
ATOM     13  C   UNL     1       3.634   5.064  19.277  0.00  0.00    +0.000 C 
BRANCH  13  14
ATOM     14  S   UNL     1       5.442   5.135  19.063  0.00  0.00    +0.000 S 
BRANCH  14  15
ATOM     15  C   UNL     1       5.697   4.770  17.334  0.00  0.00    +0.000 A 
ATOM     16  C   UNL     1       4.733   4.267  16.452  0.00  0.00    +0.000 A 
ATOM     17  C   UNL     1       5.055   4.030  15.108  0.00  0.00    +0.000 A 
ATOM     18  C   UNL     1       6.341   4.291  14.639  0.00  0.00    +0.000 A 
ATOM     19 CL   UNL     1       6.731   4.002  12.989  0.00  0.00    +0.000 Cl
ATOM     20  C   UNL     1       7.311   4.787  15.501  0.00  0.00    +0.000 A 
ATOM     21  C   UNL     1       6.988   5.022  16.841  0.00  0.00    +0.000 A 
ENDBRANCH  14  15
ENDBRANCH  13  14
ENDBRANCH   9  13
TORSDOF 3
ENDMDL
MODEL 8
REMARK VINA RESULT:      -6.8      2.096      2.214
REMARK  Name = 
REMARK  4 active torsions:
REMARK  status: ('A' for Active; 'I' for Inactive)
REMARK    1  A    between atoms: C_1  and  C_2
REMARK    2  A    between atoms: C_9  and  C_11
REMARK    3  A    between atoms: C_11  and  S_12
REMARK    4  A    between atoms: S_12  and  C_13
REMARK                            x       y       z     vdW  Elec       q    Type
REMARK                         _______ _______ _______ _____ _____    ______ ____
ROOT
ATOM      1  C   UNL     1       8.639   6.242  12.201  0.00  0.00    +0.000 C 
ATOM      2  C   UNL     1       7.670   5.210  12.691  0.00  0.00    +0.000 A 
ATOM      3  C   UNL     1       7.109   4.288  11.844  0.00  0.00    +0.000 A 
ATOM      4  C   UNL     1       6.277   3.381  12.452  0.00  0.00    +0.000 A 
ATOM      5 CL   UNL     1       5.480   2.176  11.522  0.00  0.00    +0.000 Cl
ATOM      6  N   UNL     1       5.994   3.341  13.764  0.00  0.00    +0.000 NA
ATOM      7  C   UNL     1       6.558   4.302  14.498  0.00  0.00    +0.000 A 
ATOM      8  N   UNL     1       6.237   4.268  15.847  0.00  0.00    +0.000 N 
ATOM      9  C   UNL     1       6.535   5.248  16.766  0.00  0.00    +0.000 C 
ATOM     10  O   UNL     1       7.010   6.355  16.518  0.00  0.00    +0.000 OA
ATOM     11  N   UNL     1       7.389   5.228  14.008  0.00  0.00    +0.000 NA
ATOM     12  H   UNL     1       5.734   3.440  16.125  0.00  0.00    +0.000 HD
ENDROOT
BRANCH   9  13
ATOM     13  C   UNL     1       6.133   4.893  18.190  0.00  0.00    +0.000 C 
BRANCH  13  14
ATOM     14  S   UNL     1       4.479   4.128  18.184  0.00  0.00    +0.000 S 
BRANCH  14  15
ATOM     15  C   UNL     1       3.426   5.343  18.960  0.00  0.00    +0.000 A 
ATOM     16  C   UNL     1       3.266   6.671  18.547  0.00  0.00    +0.000 A 
ATOM     17  C   UNL     1       2.397   7.529  19.237  0.00  0.00    +0.000 A 
ATOM     18  C   UNL     1       1.686   7.066  20.342  0.00  0.00    +0.000 A 
ATOM     19 CL   UNL     1       0.619   8.120  21.183  0.00  0.00    +0.000 Cl
ATOM     20  C   UNL     1       1.836   5.752  20.768  0.00  0.00    +0.000 A 
ATOM     21  C   UNL     1       2.704   4.899  20.079  0.00  0.00    +0.000 A 
ENDBRANCH  14  15
ENDBRANCH  13  14
ENDBRANCH   9  13
TORSDOF 3
ENDMDL
MODEL 9
REMARK VINA RESULT:      -6.6      6.115      8.017
REMARK  Name = 
REMARK  4 active torsions:
REMARK  status: ('A' for Active; 'I' for Inactive)
REMARK    1  A    between atoms: C_1  and  C_2
REMARK    2  A    between atoms: C_9  and  C_11
REMARK    3  A    between atoms: C_11  and  S_12
REMARK    4  A    between atoms: S_12  and  C_13
REMARK                            x       y       z     vdW  Elec       q    Type
REMARK                         _______ _______ _______ _____ _____    ______ ____
ROOT
ATOM      1  C   UNL     1       5.175   4.298  17.575  0.00  0.00    +0.000 C 
ATOM      2  C   UNL     1       4.111   4.753  18.527  0.00  0.00    +0.000 A 
ATOM      3  C   UNL     1       3.647   3.943  19.532  0.00  0.00    +0.000 A 
ATOM      4  C   UNL     1       2.707   4.520  20.348  0.00  0.00    +0.000 A 
ATOM      5 CL   UNL     1       2.011   3.625  21.639  0.00  0.00    +0.000 Cl
ATOM      6  N   UNL     1       2.237   5.773  20.231  0.00  0.00    +0.000 NA
ATOM      7  C   UNL     1       2.723   6.469  19.201  0.00  0.00    +0.000 A 
ATOM      8  N   UNL     1       2.211   7.752  19.073  0.00  0.00    +0.000 N 
ATOM      9  C   UNL     1       2.408   8.589  17.999  0.00  0.00    +0.000 C 
ATOM     10  O   UNL     1       2.950   8.291  16.936  0.00  0.00    +0.000 OA
ATOM     11  N   UNL     1       3.646   6.005  18.352  0.00  0.00    +0.000 NA
ATOM     12  H   UNL     1       1.647   8.045  19.855  0.00  0.00    +0.000 HD
ENDROOT
BRANCH   9  13
ATOM     13  C   UNL     1       1.795   9.970  18.179  0.00  0.00    +0.000 C 
BRANCH  13  14
ATOM     14  S   UNL     1       0.521   9.906  19.481  0.00  0.00    +0.000 S 
BRANCH  14  15
ATOM     15  C   UNL     1      -0.985  10.384  18.649  0.00  0.00    +0.000 A 
ATOM     16  C   UNL     1      -1.465   9.845  17.450  0.00  0.00    +0.000 A 
ATOM     17  C   UNL     1      -2.672  10.300  16.900  0.00  0.00    +0.000 A 
ATOM     18  C   UNL     1      -3.405  11.294  17.544  0.00  0.00    +0.000 A 
ATOM     19 CL   UNL     1      -4.888  11.846  16.868  0.00  0.00    +0.000 Cl
ATOM     20  C   UNL     1      -2.942  11.843  18.733  0.00  0.00    +0.000 A 
ATOM     21  C   UNL     1      -1.738  11.389  19.279  0.00  0.00    +0.000 A 
ENDBRANCH  14  15
ENDBRANCH  13  14
ENDBRANCH   9  13
TORSDOF 3
ENDMDL
