MODEL 1
REMARK VINA RESULT:      -7.8      0.000      0.000
REMARK  Name = 
REMARK  12 active torsions:
REMARK  status: ('A' for Active; 'I' for Inactive)
REMARK    1  A    between atoms: C_1  and  O_2
REMARK    2  A    between atoms: O_2  and  C_3
REMARK    3  A    between atoms: C_3  and  C_5
REMARK    4  A    between atoms: C_5  and  N_6
REMARK    5  A    between atoms: C_7  and  C_9
REMARK    6  A    between atoms: C_12  and  N_13
REMARK    7  A    between atoms: C_14  and  C_16
REMARK    8  A    between atoms: C_18  and  C_19
REMARK    9  A    between atoms: C_25  and  O_26
REMARK   10  A    between atoms: O_26  and  C_27
REMARK   11  A    between atoms: C_27  and  C_28
REMARK   12  A    between atoms: C_27  and  C_29
REMARK                            x       y       z     vdW  Elec       q    Type
REMARK                         _______ _______ _______ _____ _____    ______ ____
ROOT
ATOM      1  C   UNL     1       3.239   7.004  18.243  0.00  0.00    +0.000 A 
ATOM      2  C   UNL     1       2.923   8.260  17.679  0.00  0.00    +0.000 A 
ATOM      3  C   UNL     1       2.059   9.167  18.297  0.00  0.00    +0.000 A 
ATOM      4  C   UNL     1       1.473   8.838  19.501  0.00  0.00    +0.000 A 
ATOM      5  C   UNL     1       1.806   7.617  20.093  0.00  0.00    +0.000 A 
ATOM      6  C   UNL     1       2.693   6.681  19.502  0.00  0.00    +0.000 A 
ENDROOT
BRANCH   1   8
ATOM      7  N   UNL     1       4.581   4.947  17.794  0.00  0.00    +0.000 N 
ATOM      8  C   UNL     1       4.147   6.181  17.373  0.00  0.00    +0.000 C 
ATOM      9  O   UNL     1       4.492   6.616  16.275  0.00  0.00    +0.000 OA
ATOM     10  H   UNL     1       4.463   4.697  18.773  0.00  0.00    +0.000 HD
BRANCH   7  11
ATOM     11  C   UNL     1       5.525   4.201  16.959  0.00  0.00    +0.000 C 
BRANCH  11  12
ATOM     12  C   UNL     1       6.982   4.489  17.338  0.00  0.00    +0.000 C 
ATOM     13  O   UNL     1       7.393   4.581  18.483  0.00  0.00    +0.000 OA
BRANCH  12  15
ATOM     14  C   UNL     1       7.027   4.659  14.997  0.00  0.00    +0.000 C 
ATOM     15  O   UNL     1       7.763   4.551  16.220  0.00  0.00    +0.000 OA
ENDBRANCH  12  15
ENDBRANCH  11  12
ENDBRANCH   7  11
ENDBRANCH   1   8
BRANCH   4  16
ATOM     16  N   UNL     1       0.550   9.652  20.185  0.00  0.00    +0.000 N 
ATOM     17  C   UNL     1       0.579  11.025  20.315  0.00  0.00    +0.000 C 
ATOM     18  O   UNL     1       1.441  11.757  19.840  0.00  0.00    +0.000 OA
ATOM     19  H   UNL     1      -0.273   9.188  20.552  0.00  0.00    +0.000 HD
BRANCH  17  20
ATOM     20  C   UNL     1      -0.541  11.597  21.037  0.00  0.00    +0.000 A 
ATOM     21  N   UNL     1      -1.247  12.654  20.491  0.00  0.00    +0.000 N 
ATOM     22  C   UNL     1      -2.319  12.985  21.281  0.00  0.00    +0.000 A 
ATOM     23  C   UNL     1      -3.296  14.033  20.894  0.00  0.00    +0.000 C 
ATOM     24  C   UNL     1      -2.271  12.168  22.391  0.00  0.00    +0.000 A 
ATOM     25 CL   UNL     1      -3.381  12.165  23.682  0.00  0.00    +0.000 Cl
ATOM     26  C   UNL     1      -1.150  11.307  22.249  0.00  0.00    +0.000 A 
ATOM     27 CL   UNL     1      -0.706  10.108  23.382  0.00  0.00    +0.000 Cl
ATOM     28  H   UNL     1      -1.005  13.077  19.601  0.00  0.00    +0.000 HD
ENDBRANCH  17  20
ENDBRANCH   4  16
BRANCH   6  29
ATOM     29  O   UNL     1       2.983   5.487  20.137  0.00  0.00    +0.000 OA
BRANCH  29  30
ATOM     30  C   UNL     1       1.839   4.647  20.442  0.00  0.00    +0.000 C 
ATOM     31  C   UNL     1       1.331   3.864  19.219  0.00  0.00    +0.000 C 
ATOM     32  C   UNL     1       2.211   3.644  21.532  0.00  0.00    +0.000 C 
ENDBRANCH  29  30
ENDBRANCH   6  29
TORSDOF 8
ENDMDL
MODEL 2
REMARK VINA RESULT:      -7.7      1.499      1.761
REMARK  Name = 
REMARK  12 active torsions:
REMARK  status: ('A' for Active; 'I' for Inactive)
REMARK    1  A    between atoms: C_1  and  O_2
REMARK    2  A    between atoms: O_2  and  C_3
REMARK    3  A    between atoms: C_3  and  C_5
REMARK    4  A    between atoms: C_5  and  N_6
REMARK    5  A    between atoms: C_7  and  C_9
REMARK    6  A    between atoms: C_12  and  N_13
REMARK    7  A    between atoms: C_14  and  C_16
REMARK    8  A    between atoms: C_18  and  C_19
REMARK    9  A    between atoms: C_25  and  O_26
REMARK   10  A    between atoms: O_26  and  C_27
REMARK   11  A    between atoms: C_27  and  C_28
REMARK   12  A    between atoms: C_27  and  C_29
REMARK                            x       y       z     vdW  Elec       q    Type
REMARK                         _______ _______ _______ _____ _____    ______ ____
ROOT
ATOM      1  C   UNL     1       3.529   5.771  18.106  0.00  0.00    +0.000 A 
ATOM      2  C   UNL     1       3.450   7.026  17.463  0.00  0.00    +0.000 A 
ATOM      3  C   UNL     1       2.770   8.114  18.015  0.00  0.00    +0.000 A 
ATOM      4  C   UNL     1       2.136   7.975  19.232  0.00  0.00    +0.000 A 
ATOM      5  C   UNL     1       2.238   6.752  19.901  0.00  0.00    +0.000 A 
ATOM      6  C   UNL     1       2.935   5.634  19.378  0.00  0.00    +0.000 A 
ENDROOT
BRANCH   1   8
ATOM      7  N   UNL     1       5.609   4.892  17.039  0.00  0.00    +0.000 N 
ATOM      8  C   UNL     1       4.268   4.741  17.298  0.00  0.00    +0.000 C 
ATOM      9  O   UNL     1       3.663   3.755  16.877  0.00  0.00    +0.000 OA
ATOM     10  H   UNL     1       6.039   5.798  17.210  0.00  0.00    +0.000 HD
BRANCH   7  11
ATOM     11  C   UNL     1       6.284   3.911  16.186  0.00  0.00    +0.000 C 
BRANCH  11  12
ATOM     12  C   UNL     1       6.616   4.483  14.804  0.00  0.00    +0.000 C 
ATOM     13  O   UNL     1       7.441   5.358  14.598  0.00  0.00    +0.000 OA
BRANCH  12  15
ATOM     14  C   UNL     1       6.575   3.785  12.563  0.00  0.00    +0.000 C 
ATOM     15  O   UNL     1       5.918   3.823  13.834  0.00  0.00    +0.000 OA
ENDBRANCH  12  15
ENDBRANCH  11  12
ENDBRANCH   7  11
ENDBRANCH   1   8
BRANCH   4  16
ATOM     16  N   UNL     1       1.381   8.987  19.855  0.00  0.00    +0.000 N 
ATOM     17  C   UNL     1       0.446   9.815  19.271  0.00  0.00    +0.000 C 
ATOM     18  O   UNL     1       0.128   9.790  18.087  0.00  0.00    +0.000 OA
ATOM     19  H   UNL     1       1.473   9.060  20.862  0.00  0.00    +0.000 HD
BRANCH  17  20
ATOM     20  C   UNL     1      -0.213  10.733  20.180  0.00  0.00    +0.000 A 
ATOM     21  N   UNL     1      -0.537  12.010  19.755  0.00  0.00    +0.000 N 
ATOM     22  C   UNL     1      -1.235  12.685  20.725  0.00  0.00    +0.000 A 
ATOM     23  C   UNL     1      -1.779  14.048  20.508  0.00  0.00    +0.000 C 
ATOM     24  C   UNL     1      -1.310  11.852  21.822  0.00  0.00    +0.000 A 
ATOM     25 CL   UNL     1      -2.081  12.206  23.298  0.00  0.00    +0.000 Cl
ATOM     26  C   UNL     1      -0.659  10.634  21.489  0.00  0.00    +0.000 A 
ATOM     27 CL   UNL     1      -0.520   9.296  22.542  0.00  0.00    +0.000 Cl
ATOM     28  H   UNL     1      -0.315  12.356  18.827  0.00  0.00    +0.000 HD
ENDBRANCH  17  20
ENDBRANCH   4  16
BRANCH   6  29
ATOM     29  O   UNL     1       3.001   4.449  20.088  0.00  0.00    +0.000 OA
BRANCH  29  30
ATOM     30  C   UNL     1       1.722   3.875  20.468  0.00  0.00    +0.000 C 
ATOM     31  C   UNL     1       1.075   3.058  19.336  0.00  0.00    +0.000 C 
ATOM     32  C   UNL     1       1.905   2.959  21.676  0.00  0.00    +0.000 C 
ENDBRANCH  29  30
ENDBRANCH   6  29
TORSDOF 8
ENDMDL
MODEL 3
REMARK VINA RESULT:      -7.7      1.379      1.559
REMARK  Name = 
REMARK  12 active torsions:
REMARK  status: ('A' for Active; 'I' for Inactive)
REMARK    1  A    between atoms: C_1  and  O_2
REMARK    2  A    between atoms: O_2  and  C_3
REMARK    3  A    between atoms: C_3  and  C_5
REMARK    4  A    between atoms: C_5  and  N_6
REMARK    5  A    between atoms: C_7  and  C_9
REMARK    6  A    between atoms: C_12  and  N_13
REMARK    7  A    between atoms: C_14  and  C_16
REMARK    8  A    between atoms: C_18  and  C_19
REMARK    9  A    between atoms: C_25  and  O_26
REMARK   10  A    between atoms: O_26  and  C_27
REMARK   11  A    between atoms: C_27  and  C_28
REMARK   12  A    between atoms: C_27  and  C_29
REMARK                            x       y       z     vdW  Elec       q    Type
REMARK                         _______ _______ _______ _____ _____    ______ ____
ROOT
ATOM      1  C   UNL     1       3.156   7.071  18.277  0.00  0.00    +0.000 A 
ATOM      2  C   UNL     1       2.842   8.271  17.602  0.00  0.00    +0.000 A 
ATOM      3  C   UNL     1       1.908   9.188  18.091  0.00  0.00    +0.000 A 
ATOM      4  C   UNL     1       1.248   8.924  19.272  0.00  0.00    +0.000 A 
ATOM      5  C   UNL     1       1.575   7.761  19.974  0.00  0.00    +0.000 A 
ATOM      6  C   UNL     1       2.531   6.819  19.515  0.00  0.00    +0.000 A 
ENDROOT
BRANCH   1   8
ATOM      7  N   UNL     1       4.486   4.976  18.007  0.00  0.00    +0.000 N 
ATOM      8  C   UNL     1       4.149   6.221  17.535  0.00  0.00    +0.000 C 
ATOM      9  O   UNL     1       4.651   6.646  16.495  0.00  0.00    +0.000 OA
ATOM     10  H   UNL     1       4.229   4.729  18.959  0.00  0.00    +0.000 HD
BRANCH   7  11
ATOM     11  C   UNL     1       5.513   4.202  17.303  0.00  0.00    +0.000 C 
BRANCH  11  12
ATOM     12  C   UNL     1       6.929   4.633  17.699  0.00  0.00    +0.000 C 
ATOM     13  O   UNL     1       7.297   4.832  18.844  0.00  0.00    +0.000 OA
BRANCH  12  15
ATOM     14  C   UNL     1       7.041   4.544  15.356  0.00  0.00    +0.000 C 
ATOM     15  O   UNL     1       7.736   4.687  16.599  0.00  0.00    +0.000 OA
ENDBRANCH  12  15
ENDBRANCH  11  12
ENDBRANCH   7  11
ENDBRANCH   1   8
BRANCH   4  16
ATOM     16  N   UNL     1       0.253   9.751  19.830  0.00  0.00    +0.000 N 
ATOM     17  C   UNL     1       0.371  10.583  20.922  0.00  0.00    +0.000 C 
ATOM     18  O   UNL     1       1.391  10.727  21.589  0.00  0.00    +0.000 OA
ATOM     19  H   UNL     1      -0.623   9.805  19.322  0.00  0.00    +0.000 HD
BRANCH  17  20
ATOM     20  C   UNL     1      -0.815  11.357  21.235  0.00  0.00    +0.000 A 
ATOM     21  N   UNL     1      -1.385  11.268  22.494  0.00  0.00    +0.000 N 
ATOM     22  C   UNL     1      -2.434  12.144  22.617  0.00  0.00    +0.000 A 
ATOM     23  C   UNL     1      -3.178  12.316  23.890  0.00  0.00    +0.000 C 
ATOM     24  C   UNL     1      -2.586  12.767  21.397  0.00  0.00    +0.000 A 
ATOM     25 CL   UNL     1      -3.746  13.955  21.015  0.00  0.00    +0.000 Cl
ATOM     26  C   UNL     1      -1.583  12.267  20.524  0.00  0.00    +0.000 A 
ATOM     27 CL   UNL     1      -1.375  12.769  18.905  0.00  0.00    +0.000 Cl
ATOM     28  H   UNL     1      -1.023  10.659  23.221  0.00  0.00    +0.000 HD
ENDBRANCH  17  20
ENDBRANCH   4  16
BRANCH   6  29
ATOM     29  O   UNL     1       2.812   5.684  20.255  0.00  0.00    +0.000 OA
BRANCH  29  30
ATOM     30  C   UNL     1       1.697   4.775  20.454  0.00  0.00    +0.000 C 
ATOM     31  C   UNL     1       1.298   4.030  19.169  0.00  0.00    +0.000 C 
ATOM     32  C   UNL     1       2.059   3.739  21.516  0.00  0.00    +0.000 C 
ENDBRANCH  29  30
ENDBRANCH   6  29
TORSDOF 8
ENDMDL
MODEL 4
REMARK VINA RESULT:      -7.6      0.895      1.224
REMARK  Name = 
REMARK  12 active torsions:
REMARK  status: ('A' for Active; 'I' for Inactive)
REMARK    1  A    between atoms: C_1  and  O_2
REMARK    2  A    between atoms: O_2  and  C_3
REMARK    3  A    between atoms: C_3  and  C_5
REMARK    4  A    between atoms: C_5  and  N_6
REMARK    5  A    between atoms: C_7  and  C_9
REMARK    6  A    between atoms: C_12  and  N_13
REMARK    7  A    between atoms: C_14  and  C_16
REMARK    8  A    between atoms: C_18  and  C_19
REMARK    9  A    between atoms: C_25  and  O_26
REMARK   10  A    between atoms: O_26  and  C_27
REMARK   11  A    between atoms: C_27  and  C_28
REMARK   12  A    between atoms: C_27  and  C_29
REMARK                            x       y       z     vdW  Elec       q    Type
REMARK                         _______ _______ _______ _____ _____    ______ ____
ROOT
ATOM      1  C   UNL     1       3.015   6.418  18.341  0.00  0.00    +0.000 A 
ATOM      2  C   UNL     1       2.687   7.623  17.682  0.00  0.00    +0.000 A 
ATOM      3  C   UNL     1       1.928   8.629  18.286  0.00  0.00    +0.000 A 
ATOM      4  C   UNL     1       1.464   8.453  19.572  0.00  0.00    +0.000 A 
ATOM      5  C   UNL     1       1.814   7.284  20.253  0.00  0.00    +0.000 A 
ATOM      6  C   UNL     1       2.597   6.251  19.676  0.00  0.00    +0.000 A 
ENDROOT
BRANCH   1   8
ATOM      7  N   UNL     1       4.818   5.928  16.684  0.00  0.00    +0.000 N 
ATOM      8  C   UNL     1       3.793   5.467  17.474  0.00  0.00    +0.000 C 
ATOM      9  O   UNL     1       3.512   4.269  17.486  0.00  0.00    +0.000 OA
ATOM     10  H   UNL     1       4.900   6.930  16.528  0.00  0.00    +0.000 HD
BRANCH   7  11
ATOM     11  C   UNL     1       5.509   4.991  15.795  0.00  0.00    +0.000 C 
BRANCH  11  12
ATOM     12  C   UNL     1       7.032   5.100  15.915  0.00  0.00    +0.000 C 
ATOM     13  O   UNL     1       7.728   5.835  15.234  0.00  0.00    +0.000 OA
BRANCH  12  15
ATOM     14  C   UNL     1       7.660   5.016  18.175  0.00  0.00    +0.000 C 
ATOM     15  O   UNL     1       7.487   4.318  16.937  0.00  0.00    +0.000 OA
ENDBRANCH  12  15
ENDBRANCH  11  12
ENDBRANCH   7  11
ENDBRANCH   1   8
BRANCH   4  16
ATOM     16  N   UNL     1       0.651   9.376  20.258  0.00  0.00    +0.000 N 
ATOM     17  C   UNL     1       0.680  10.751  20.161  0.00  0.00    +0.000 C 
ATOM     18  O   UNL     1       1.444  11.389  19.444  0.00  0.00    +0.000 OA
ATOM     19  H   UNL     1      -0.095   8.986  20.821  0.00  0.00    +0.000 HD
BRANCH  17  20
ATOM     20  C   UNL     1      -0.317  11.443  20.954  0.00  0.00    +0.000 A 
ATOM     21  N   UNL     1      -0.895  12.606  20.475  0.00  0.00    +0.000 N 
ATOM     22  C   UNL     1      -1.876  13.051  21.325  0.00  0.00    +0.000 A 
ATOM     23  C   UNL     1      -2.715  14.235  21.018  0.00  0.00    +0.000 C 
ATOM     24  C   UNL     1      -1.891  12.195  22.406  0.00  0.00    +0.000 A 
ATOM     25 CL   UNL     1      -2.933  12.296  23.750  0.00  0.00    +0.000 Cl
ATOM     26  C   UNL     1      -0.907  11.195  22.184  0.00  0.00    +0.000 A 
ATOM     27 CL   UNL     1      -0.582   9.907  23.258  0.00  0.00    +0.000 Cl
ATOM     28  H   UNL     1      -0.637  13.024  19.586  0.00  0.00    +0.000 HD
ENDBRANCH  17  20
ENDBRANCH   4  16
BRANCH   6  29
ATOM     29  O   UNL     1       2.909   5.116  20.402  0.00  0.00    +0.000 OA
BRANCH  29  30
ATOM     30  C   UNL     1       1.774   4.350  20.885  0.00  0.00    +0.000 C 
ATOM     31  C   UNL     1       0.938   3.740  19.747  0.00  0.00    +0.000 C 
ATOM     32  C   UNL     1       2.262   3.215  21.782  0.00  0.00    +0.000 C 
ENDBRANCH  29  30
ENDBRANCH   6  29
TORSDOF 8
ENDMDL
MODEL 5
REMARK VINA RESULT:      -7.6      1.817      2.096
REMARK  Name = 
REMARK  12 active torsions:
REMARK  status: ('A' for Active; 'I' for Inactive)
REMARK    1  A    between atoms: C_1  and  O_2
REMARK    2  A    between atoms: O_2  and  C_3
REMARK    3  A    between atoms: C_3  and  C_5
REMARK    4  A    between atoms: C_5  and  N_6
REMARK    5  A    between atoms: C_7  and  C_9
REMARK    6  A    between atoms: C_12  and  N_13
REMARK    7  A    between atoms: C_14  and  C_16
REMARK    8  A    between atoms: C_18  and  C_19
REMARK    9  A    between atoms: C_25  and  O_26
REMARK   10  A    between atoms: O_26  and  C_27
REMARK   11  A    between atoms: C_27  and  C_28
REMARK   12  A    between atoms: C_27  and  C_29
REMARK                            x       y       z     vdW  Elec       q    Type
REMARK                         _______ _______ _______ _____ _____    ______ ____
ROOT
ATOM      1  C   UNL     1       3.509   6.218  18.389  0.00  0.00    +0.000 A 
ATOM      2  C   UNL     1       3.385   7.401  17.627  0.00  0.00    +0.000 A 
ATOM      3  C   UNL     1       2.578   8.471  18.024  0.00  0.00    +0.000 A 
ATOM      4  C   UNL     1       1.860   8.384  19.197  0.00  0.00    +0.000 A 
ATOM      5  C   UNL     1       2.002   7.238  19.983  0.00  0.00    +0.000 A 
ATOM      6  C   UNL     1       2.825   6.142  19.620  0.00  0.00    +0.000 A 
ENDROOT
BRANCH   1   8
ATOM      7  N   UNL     1       5.748   5.380  17.669  0.00  0.00    +0.000 N 
ATOM      8  C   UNL     1       4.389   5.188  17.738  0.00  0.00    +0.000 C 
ATOM      9  O   UNL     1       3.884   4.166  17.275  0.00  0.00    +0.000 OA
ATOM     10  H   UNL     1       6.119   6.307  17.862  0.00  0.00    +0.000 HD
BRANCH   7  11
ATOM     11  C   UNL     1       6.571   4.395  16.962  0.00  0.00    +0.000 C 
BRANCH  11  12
ATOM     12  C   UNL     1       7.092   4.934  15.626  0.00  0.00    +0.000 C 
ATOM     13  O   UNL     1       7.735   5.963  15.499  0.00  0.00    +0.000 OA
BRANCH  12  15
ATOM     14  C   UNL     1       5.485   4.212  14.075  0.00  0.00    +0.000 C 
ATOM     15  O   UNL     1       6.803   4.064  14.615  0.00  0.00    +0.000 OA
ENDBRANCH  12  15
ENDBRANCH  11  12
ENDBRANCH   7  11
ENDBRANCH   1   8
BRANCH   4  16
ATOM     16  N   UNL     1       0.979   9.379  19.665  0.00  0.00    +0.000 N 
ATOM     17  C   UNL     1      -0.002  10.033  18.951  0.00  0.00    +0.000 C 
ATOM     18  O   UNL     1      -0.257   9.838  17.766  0.00  0.00    +0.000 OA
ATOM     19  H   UNL     1       1.013   9.577  20.658  0.00  0.00    +0.000 HD
BRANCH  17  20
ATOM     20  C   UNL     1      -0.792  10.978  19.716  0.00  0.00    +0.000 A 
ATOM     21  N   UNL     1      -0.397  11.331  20.995  0.00  0.00    +0.000 N 
ATOM     22  C   UNL     1      -1.219  12.302  21.509  0.00  0.00    +0.000 A 
ATOM     23  C   UNL     1      -0.980  12.924  22.835  0.00  0.00    +0.000 C 
ATOM     24  C   UNL     1      -2.202  12.537  20.571  0.00  0.00    +0.000 A 
ATOM     25 CL   UNL     1      -3.474  13.661  20.712  0.00  0.00    +0.000 Cl
ATOM     26  C   UNL     1      -1.946  11.699  19.453  0.00  0.00    +0.000 A 
ATOM     27 CL   UNL     1      -2.900  11.664  18.036  0.00  0.00    +0.000 Cl
ATOM     28  H   UNL     1       0.423  10.939  21.447  0.00  0.00    +0.000 HD
ENDBRANCH  17  20
ENDBRANCH   4  16
BRANCH   6  29
ATOM     29  O   UNL     1       2.924   5.033  20.441  0.00  0.00    +0.000 OA
BRANCH  29  30
ATOM     30  C   UNL     1       1.692   4.291  20.642  0.00  0.00    +0.000 C 
ATOM     31  C   UNL     1       1.142   3.683  19.341  0.00  0.00    +0.000 C 
ATOM     32  C   UNL     1       1.929   3.159  21.639  0.00  0.00    +0.000 C 
ENDBRANCH  29  30
ENDBRANCH   6  29
TORSDOF 8
ENDMDL
MODEL 6
REMARK VINA RESULT:      -7.5      1.376      1.770
REMARK  Name = 
REMARK  12 active torsions:
REMARK  status: ('A' for Active; 'I' for Inactive)
REMARK    1  A    between atoms: C_1  and  O_2
REMARK    2  A    between atoms: O_2  and  C_3
REMARK    3  A    between atoms: C_3  and  C_5
REMARK    4  A    between atoms: C_5  and  N_6
REMARK    5  A    between atoms: C_7  and  C_9
REMARK    6  A    between atoms: C_12  and  N_13
REMARK    7  A    between atoms: C_14  and  C_16
REMARK    8  A    between atoms: C_18  and  C_19
REMARK    9  A    between atoms: C_25  and  O_26
REMARK   10  A    between atoms: O_26  and  C_27
REMARK   11  A    between atoms: C_27  and  C_28
REMARK   12  A    between atoms: C_27  and  C_29
REMARK                            x       y       z     vdW  Elec       q    Type
REMARK                         _______ _______ _______ _____ _____    ______ ____
ROOT
ATOM      1  C   UNL     1       3.244   7.117  18.122  0.00  0.00    +0.000 A 
ATOM      2  C   UNL     1       2.925   8.330  17.473  0.00  0.00    +0.000 A 
ATOM      3  C   UNL     1       2.012   9.248  17.998  0.00  0.00    +0.000 A 
ATOM      4  C   UNL     1       1.378   8.972  19.191  0.00  0.00    +0.000 A 
ATOM      5  C   UNL     1       1.712   7.795  19.867  0.00  0.00    +0.000 A 
ATOM      6  C   UNL     1       2.647   6.851  19.371  0.00  0.00    +0.000 A 
ENDROOT
BRANCH   1   8
ATOM      7  N   UNL     1       4.531   5.005  17.776  0.00  0.00    +0.000 N 
ATOM      8  C   UNL     1       4.210   6.269  17.343  0.00  0.00    +0.000 C 
ATOM      9  O   UNL     1       4.706   6.713  16.308  0.00  0.00    +0.000 OA
ATOM     10  H   UNL     1       4.282   4.738  18.725  0.00  0.00    +0.000 HD
BRANCH   7  11
ATOM     11  C   UNL     1       5.533   4.233  17.037  0.00  0.00    +0.000 C 
BRANCH  11  12
ATOM     12  C   UNL     1       6.948   4.462  17.576  0.00  0.00    +0.000 C 
ATOM     13  O   UNL     1       7.957   4.463  16.891  0.00  0.00    +0.000 OA
BRANCH  12  15
ATOM     14  C   UNL     1       7.805   5.783  19.318  0.00  0.00    +0.000 C 
ATOM     15  O   UNL     1       6.911   4.742  18.912  0.00  0.00    +0.000 OA
ENDBRANCH  12  15
ENDBRANCH  11  12
ENDBRANCH   7  11
ENDBRANCH   1   8
BRANCH   4  16
ATOM     16  N   UNL     1       0.405   9.800  19.785  0.00  0.00    +0.000 N 
ATOM     17  C   UNL     1       0.519  11.139  20.092  0.00  0.00    +0.000 C 
ATOM     18  O   UNL     1       1.516  11.824  19.887  0.00  0.00    +0.000 OA
ATOM     19  H   UNL     1      -0.509   9.387  19.927  0.00  0.00    +0.000 HD
BRANCH  17  20
ATOM     20  C   UNL     1      -0.673  11.743  20.654  0.00  0.00    +0.000 A 
ATOM     21  N   UNL     1      -0.664  12.202  21.960  0.00  0.00    +0.000 N 
ATOM     22  C   UNL     1      -1.849  12.821  22.268  0.00  0.00    +0.000 A 
ATOM     23  C   UNL     1      -2.083  13.479  23.578  0.00  0.00    +0.000 C 
ATOM     24  C   UNL     1      -2.665  12.705  21.163  0.00  0.00    +0.000 A 
ATOM     25 CL   UNL     1      -4.249  13.314  21.018  0.00  0.00    +0.000 Cl
ATOM     26  C   UNL     1      -1.937  12.018  20.155  0.00  0.00    +0.000 A 
ATOM     27 CL   UNL     1      -2.546  11.662  18.599  0.00  0.00    +0.000 Cl
ATOM     28  H   UNL     1       0.145  12.118  22.568  0.00  0.00    +0.000 HD
ENDBRANCH  17  20
ENDBRANCH   4  16
BRANCH   6  29
ATOM     29  O   UNL     1       2.935   5.702  20.086  0.00  0.00    +0.000 OA
BRANCH  29  30
ATOM     30  C   UNL     1       1.805   4.826  20.344  0.00  0.00    +0.000 C 
ATOM     31  C   UNL     1       1.375   4.027  19.102  0.00  0.00    +0.000 C 
ATOM     32  C   UNL     1       2.162   3.837  21.451  0.00  0.00    +0.000 C 
ENDBRANCH  29  30
ENDBRANCH   6  29
TORSDOF 8
ENDMDL
MODEL 7
REMARK VINA RESULT:      -7.5      2.903      4.060
REMARK  Name = 
REMARK  12 active torsions:
REMARK  status: ('A' for Active; 'I' for Inactive)
REMARK    1  A    between atoms: C_1  and  O_2
REMARK    2  A    between atoms: O_2  and  C_3
REMARK    3  A    between atoms: C_3  and  C_5
REMARK    4  A    between atoms: C_5  and  N_6
REMARK    5  A    between atoms: C_7  and  C_9
REMARK    6  A    between atoms: C_12  and  N_13
REMARK    7  A    between atoms: C_14  and  C_16
REMARK    8  A    between atoms: C_18  and  C_19
REMARK    9  A    between atoms: C_25  and  O_26
REMARK   10  A    between atoms: O_26  and  C_27
REMARK   11  A    between atoms: C_27  and  C_28
REMARK   12  A    between atoms: C_27  and  C_29
REMARK                            x       y       z     vdW  Elec       q    Type
REMARK                         _______ _______ _______ _____ _____    ______ ____
ROOT
ATOM      1  C   UNL     1       4.623   4.962  16.438  0.00  0.00    +0.000 A 
ATOM      2  C   UNL     1       5.005   6.311  16.604  0.00  0.00    +0.000 A 
ATOM      3  C   UNL     1       4.296   7.200  17.415  0.00  0.00    +0.000 A 
ATOM      4  C   UNL     1       3.169   6.766  18.080  0.00  0.00    +0.000 A 
ATOM      5  C   UNL     1       2.799   5.424  17.958  0.00  0.00    +0.000 A 
ATOM      6  C   UNL     1       3.506   4.491  17.158  0.00  0.00    +0.000 A 
ENDROOT
BRANCH   1   8
ATOM      7  N   UNL     1       5.454   4.482  14.133  0.00  0.00    +0.000 N 
ATOM      8  C   UNL     1       5.506   4.214  15.479  0.00  0.00    +0.000 C 
ATOM      9  O   UNL     1       6.285   3.364  15.911  0.00  0.00    +0.000 OA
ATOM     10  H   UNL     1       4.672   5.024  13.774  0.00  0.00    +0.000 HD
BRANCH   7  11
ATOM     11  C   UNL     1       6.272   3.685  13.215  0.00  0.00    +0.000 C 
BRANCH  11  12
ATOM     12  C   UNL     1       5.427   3.011  12.129  0.00  0.00    +0.000 C 
ATOM     13  O   UNL     1       5.736   1.981  11.553  0.00  0.00    +0.000 OA
BRANCH  12  15
ATOM     14  C   UNL     1       3.521   3.288  10.788  0.00  0.00    +0.000 C 
ATOM     15  O   UNL     1       4.251   3.682  11.954  0.00  0.00    +0.000 OA
ENDBRANCH  12  15
ENDBRANCH  11  12
ENDBRANCH   7  11
ENDBRANCH   1   8
BRANCH   4  16
ATOM     16  N   UNL     1       2.352   7.587  18.881  0.00  0.00    +0.000 N 
ATOM     17  C   UNL     1       1.782   8.794  18.535  0.00  0.00    +0.000 C 
ATOM     18  O   UNL     1       1.911   9.345  17.446  0.00  0.00    +0.000 OA
ATOM     19  H   UNL     1       2.083   7.210  19.782  0.00  0.00    +0.000 HD
BRANCH  17  20
ATOM     20  C   UNL     1       0.942   9.391  19.555  0.00  0.00    +0.000 A 
ATOM     21  N   UNL     1       0.991   8.916  20.854  0.00  0.00    +0.000 N 
ATOM     22  C   UNL     1       0.197   9.671  21.680  0.00  0.00    +0.000 A 
ATOM     23  C   UNL     1       0.123   9.435  23.143  0.00  0.00    +0.000 C 
ATOM     24  C   UNL     1      -0.427  10.614  20.890  0.00  0.00    +0.000 A 
ATOM     25 CL   UNL     1      -1.515  11.809  21.426  0.00  0.00    +0.000 Cl
ATOM     26  C   UNL     1       0.027  10.433  19.556  0.00  0.00    +0.000 A 
ATOM     27 CL   UNL     1      -0.467  11.391  18.231  0.00  0.00    +0.000 Cl
ATOM     28  H   UNL     1       1.581   8.139  21.135  0.00  0.00    +0.000 HD
ENDBRANCH  17  20
ENDBRANCH   4  16
BRANCH   6  29
ATOM     29  O   UNL     1       3.090   3.174  17.077  0.00  0.00    +0.000 OA
BRANCH  29  30
ATOM     30  C   UNL     1       3.362   2.358  18.248  0.00  0.00    +0.000 C 
ATOM     31  C   UNL     1       4.367   3.013  19.210  0.00  0.00    +0.000 C 
ATOM     32  C   UNL     1       2.065   2.102  19.011  0.00  0.00    +0.000 C 
ENDBRANCH  29  30
ENDBRANCH   6  29
TORSDOF 8
ENDMDL
MODEL 8
REMARK VINA RESULT:      -7.4      2.726      3.732
REMARK  Name = 
REMARK  12 active torsions:
REMARK  status: ('A' for Active; 'I' for Inactive)
REMARK    1  A    between atoms: C_1  and  O_2
REMARK    2  A    between atoms: O_2  and  C_3
REMARK    3  A    between atoms: C_3  and  C_5
REMARK    4  A    between atoms: C_5  and  N_6
REMARK    5  A    between atoms: C_7  and  C_9
REMARK    6  A    between atoms: C_12  and  N_13
REMARK    7  A    between atoms: C_14  and  C_16
REMARK    8  A    between atoms: C_18  and  C_19
REMARK    9  A    between atoms: C_25  and  O_26
REMARK   10  A    between atoms: O_26  and  C_27
REMARK   11  A    between atoms: C_27  and  C_28
REMARK   12  A    between atoms: C_27  and  C_29
REMARK                            x       y       z     vdW  Elec       q    Type
REMARK                         _______ _______ _______ _____ _____    ______ ____
ROOT
ATOM      1  C   UNL     1       4.688   5.288  16.726  0.00  0.00    +0.000 A 
ATOM      2  C   UNL     1       4.969   6.670  16.801  0.00  0.00    +0.000 A 
ATOM      3  C   UNL     1       4.192   7.557  17.550  0.00  0.00    +0.000 A 
ATOM      4  C   UNL     1       3.097   7.086  18.242  0.00  0.00    +0.000 A 
ATOM      5  C   UNL     1       2.828   5.715  18.212  0.00  0.00    +0.000 A 
ATOM      6  C   UNL     1       3.606   4.785  17.477  0.00  0.00    +0.000 A 
ENDROOT
BRANCH   1   8
ATOM      7  N   UNL     1       5.457   4.582  14.458  0.00  0.00    +0.000 N 
ATOM      8  C   UNL     1       5.630   4.544  15.820  0.00  0.00    +0.000 C 
ATOM      9  O   UNL     1       6.563   3.909  16.309  0.00  0.00    +0.000 OA
ATOM     10  H   UNL     1       4.576   4.930  14.088  0.00  0.00    +0.000 HD
BRANCH   7  11
ATOM     11  C   UNL     1       6.345   3.787  13.606  0.00  0.00    +0.000 C 
BRANCH  11  12
ATOM     12  C   UNL     1       5.625   3.257  12.362  0.00  0.00    +0.000 C 
ATOM     13  O   UNL     1       4.472   3.521  12.065  0.00  0.00    +0.000 OA
BRANCH  12  15
ATOM     14  C   UNL     1       5.964   1.230  11.226  0.00  0.00    +0.000 C 
ATOM     15  O   UNL     1       6.478   2.513  11.597  0.00  0.00    +0.000 OA
ENDBRANCH  12  15
ENDBRANCH  11  12
ENDBRANCH   7  11
ENDBRANCH   1   8
BRANCH   4  16
ATOM     16  N   UNL     1       2.217   7.897  18.985  0.00  0.00    +0.000 N 
ATOM     17  C   UNL     1       1.635   9.082  18.590  0.00  0.00    +0.000 C 
ATOM     18  O   UNL     1       1.806   9.620  17.501  0.00  0.00    +0.000 OA
ATOM     19  H   UNL     1       1.911   7.526  19.878  0.00  0.00    +0.000 HD
BRANCH  17  20
ATOM     20  C   UNL     1       0.726   9.671  19.555  0.00  0.00    +0.000 A 
ATOM     21  N   UNL     1       0.704   9.204  20.857  0.00  0.00    +0.000 N 
ATOM     22  C   UNL     1      -0.149   9.951  21.630  0.00  0.00    +0.000 A 
ATOM     23  C   UNL     1      -0.307   9.720  23.087  0.00  0.00    +0.000 C 
ATOM     24  C   UNL     1      -0.738  10.880  20.799  0.00  0.00    +0.000 A 
ATOM     25 CL   UNL     1      -1.874  12.061  21.262  0.00  0.00    +0.000 Cl
ATOM     26  C   UNL     1      -0.203  10.699  19.495  0.00  0.00    +0.000 A 
ATOM     27 CL   UNL     1      -0.631  11.643  18.138  0.00  0.00    +0.000 Cl
ATOM     28  H   UNL     1       1.288   8.437  21.178  0.00  0.00    +0.000 HD
ENDBRANCH  17  20
ENDBRANCH   4  16
BRANCH   6  29
ATOM     29  O   UNL     1       3.289   3.439  17.485  0.00  0.00    +0.000 OA
BRANCH  29  30
ATOM     30  C   UNL     1       2.885   2.899  18.771  0.00  0.00    +0.000 C 
ATOM     31  C   UNL     1       1.768   1.847  18.653  0.00  0.00    +0.000 C 
ATOM     32  C   UNL     1       4.084   2.249  19.458  0.00  0.00    +0.000 C 
ENDBRANCH  29  30
ENDBRANCH   6  29
TORSDOF 8
ENDMDL
MODEL 9
REMARK VINA RESULT:      -7.4      0.902      1.262
REMARK  Name = 
REMARK  12 active torsions:
REMARK  status: ('A' for Active; 'I' for Inactive)
REMARK    1  A    between atoms: C_1  and  O_2
REMARK    2  A    between atoms: O_2  and  C_3
REMARK    3  A    between atoms: C_3  and  C_5
REMARK    4  A    between atoms: C_5  and  N_6
REMARK    5  A    between atoms: C_7  and  C_9
REMARK    6  A    between atoms: C_12  and  N_13
REMARK    7  A    between atoms: C_14  and  C_16
REMARK    8  A    between atoms: C_18  and  C_19
REMARK    9  A    between atoms: C_25  and  O_26
REMARK   10  A    between atoms: O_26  and  C_27
REMARK   11  A    between atoms: C_27  and  C_28
REMARK   12  A    between atoms: C_27  and  C_29
REMARK                            x       y       z     vdW  Elec       q    Type
REMARK                         _______ _______ _______ _____ _____    ______ ____
ROOT
ATOM      1  C   UNL     1       3.305   7.034  18.092  0.00  0.00    +0.000 A 
ATOM      2  C   UNL     1       3.069   8.295  17.503  0.00  0.00    +0.000 A 
ATOM      3  C   UNL     1       2.238   9.255  18.086  0.00  0.00    +0.000 A 
ATOM      4  C   UNL     1       1.605   8.975  19.279  0.00  0.00    +0.000 A 
ATOM      5  C   UNL     1       1.860   7.748  19.896  0.00  0.00    +0.000 A 
ATOM      6  C   UNL     1       2.711   6.759  19.341  0.00  0.00    +0.000 A 
ENDROOT
BRANCH   1   8
ATOM      7  N   UNL     1       4.551   4.904  17.709  0.00  0.00    +0.000 N 
ATOM      8  C   UNL     1       4.191   6.151  17.258  0.00  0.00    +0.000 C 
ATOM      9  O   UNL     1       4.584   6.551  16.163  0.00  0.00    +0.000 OA
ATOM     10  H   UNL     1       4.396   4.676  18.688  0.00  0.00    +0.000 HD
BRANCH   7  11
ATOM     11  C   UNL     1       5.476   4.098  16.908  0.00  0.00    +0.000 C 
BRANCH  11  12
ATOM     12  C   UNL     1       6.925   4.571  17.053  0.00  0.00    +0.000 C 
ATOM     13  O   UNL     1       7.625   4.950  16.128  0.00  0.00    +0.000 OA
BRANCH  12  15
ATOM     14  C   UNL     1       7.538   5.889  18.897  0.00  0.00    +0.000 C 
ATOM     15  O   UNL     1       7.295   4.582  18.367  0.00  0.00    +0.000 OA
ENDBRANCH  12  15
ENDBRANCH  11  12
ENDBRANCH   7  11
ENDBRANCH   1   8
BRANCH   4  16
ATOM     16  N   UNL     1       0.709   9.847  19.927  0.00  0.00    +0.000 N 
ATOM     17  C   UNL     1      -0.469  10.361  19.428  0.00  0.00    +0.000 C 
ATOM     18  O   UNL     1      -0.919  10.128  18.310  0.00  0.00    +0.000 OA
ATOM     19  H   UNL     1       0.907  10.053  20.899  0.00  0.00    +0.000 HD
BRANCH  17  20
ATOM     20  C   UNL     1      -1.213  11.197  20.349  0.00  0.00    +0.000 A 
ATOM     21  N   UNL     1      -2.107  12.135  19.863  0.00  0.00    +0.000 N 
ATOM     22  C   UNL     1      -2.775  12.752  20.890  0.00  0.00    +0.000 A 
ATOM     23  C   UNL     1      -3.851  13.746  20.653  0.00  0.00    +0.000 C 
ATOM     24  C   UNL     1      -2.260  12.249  22.066  0.00  0.00    +0.000 A 
ATOM     25 CL   UNL     1      -2.750  12.679  23.640  0.00  0.00    +0.000 Cl
ATOM     26  C   UNL     1      -1.272  11.285  21.732  0.00  0.00    +0.000 A 
ATOM     27 CL   UNL     1      -0.375  10.387  22.875  0.00  0.00    +0.000 Cl
ATOM     28  H   UNL     1      -2.258  12.290  18.871  0.00  0.00    +0.000 HD
ENDBRANCH  17  20
ENDBRANCH   4  16
BRANCH   6  29
ATOM     29  O   UNL     1       2.923   5.561  20.000  0.00  0.00    +0.000 OA
BRANCH  29  30
ATOM     30  C   UNL     1       1.743   4.738  20.197  0.00  0.00    +0.000 C 
ATOM     31  C   UNL     1       1.398   3.887  18.963  0.00  0.00    +0.000 C 
ATOM     32  C   UNL     1       1.960   3.799  21.381  0.00  0.00    +0.000 C 
ENDBRANCH  29  30
ENDBRANCH   6  29
TORSDOF 8
ENDMDL
