MODEL 1
REMARK VINA RESULT:      -6.9      0.000      0.000
REMARK  Name = 
REMARK  10 active torsions:
REMARK  status: ('A' for Active; 'I' for Inactive)
REMARK    1  A    between atoms: C_2  and  O_3
REMARK    2  A    between atoms: C_2  and  C_4
REMARK    3  A    between atoms: C_4  and  C_6
REMARK    4  A    between atoms: C_7  and  O_8
REMARK    5  A    between atoms: C_7  and  C_9
REMARK    6  A    between atoms: C_12  and  C_13
REMARK    7  A    between atoms: C_13  and  O_14
REMARK    8  A    between atoms: C_15  and  C_16
REMARK    9  A    between atoms: C_16  and  C_18
REMARK   10  A    between atoms: C_18  and  O_20
REMARK                            x       y       z     vdW  Elec       q    Type
REMARK                         _______ _______ _______ _____ _____    ______ ____
ROOT
ATOM      1  C   UNL     1       4.000   6.371  18.128  0.00  0.00    +0.000 A 
ATOM      2  C   UNL     1       3.340   6.165  19.347  0.00  0.00    +0.000 A 
ATOM      3  C   UNL     1       2.357   7.057  19.809  0.00  0.00    +0.000 A 
ATOM      4  C   UNL     1       2.020   8.215  19.093  0.00  0.00    +0.000 A 
ATOM      5  C   UNL     1       2.690   8.427  17.876  0.00  0.00    +0.000 A 
ATOM      6  C   UNL     1       3.659   7.520  17.403  0.00  0.00    +0.000 A 
ENDROOT
BRANCH   1   8
ATOM      7  C   UNL     1       5.987   5.816  16.746  0.00  0.00    +0.000 C 
ATOM      8  C   UNL     1       5.046   5.439  17.633  0.00  0.00    +0.000 C 
BRANCH   7   9
ATOM      9  C   UNL     1       7.029   4.896  16.223  0.00  0.00    +0.000 C 
ATOM     10  O   UNL     1       7.859   4.331  16.928  0.00  0.00    +0.000 OA
BRANCH   9  12
ATOM     11  O   UNL     1       7.581   5.391  13.920  0.00  0.00    +0.000 OA
ATOM     12  C   UNL     1       7.040   4.640  14.710  0.00  0.00    +0.000 C 
BRANCH  12  13
ATOM     13  O   UNL     1       6.386   3.515  14.383  0.00  0.00    +0.000 OA
ATOM     14  H   UNL     1       6.273   2.928  15.163  0.00  0.00    +0.000 HD
ENDBRANCH  12  13
ENDBRANCH   9  12
ENDBRANCH   7   9
BRANCH   8  15
ATOM     15  O   UNL     1       4.982   4.169  18.171  0.00  0.00    +0.000 OA
ATOM     16  H   UNL     1       4.191   4.102  18.745  0.00  0.00    +0.000 HD
ENDBRANCH   8  15
ENDBRANCH   1   8
BRANCH   4  17
ATOM     17  C   UNL     1       0.996   9.175  19.591  0.00  0.00    +0.000 C 
ATOM     18  C   UNL     1       0.673   9.287  20.893  0.00  0.00    +0.000 C 
BRANCH  17  19
ATOM     19  O   UNL     1       0.386   9.979  18.650  0.00  0.00    +0.000 OA
ATOM     20  H   UNL     1      -0.337   9.494  18.220  0.00  0.00    +0.000 HD
ENDBRANCH  17  19
BRANCH  18  21
ATOM     21  C   UNL     1      -0.367  10.214  21.420  0.00  0.00    +0.000 C 
ATOM     22  O   UNL     1      -1.138  10.910  20.770  0.00  0.00    +0.000 OA
BRANCH  21  23
ATOM     23  C   UNL     1      -0.511  10.291  22.944  0.00  0.00    +0.000 C 
ATOM     24  O   UNL     1       0.229   9.729  23.727  0.00  0.00    +0.000 OA
BRANCH  23  25
ATOM     25  O   UNL     1      -1.574  11.052  23.278  0.00  0.00    +0.000 OA
ATOM     26  H   UNL     1      -2.398  10.547  23.075  0.00  0.00    +0.000 HD
ENDBRANCH  23  25
ENDBRANCH  21  23
ENDBRANCH  18  21
ENDBRANCH   4  17
TORSDOF 10
ENDMDL
MODEL 2
REMARK VINA RESULT:      -6.9      2.127      3.759
REMARK  Name = 
REMARK  10 active torsions:
REMARK  status: ('A' for Active; 'I' for Inactive)
REMARK    1  A    between atoms: C_2  and  O_3
REMARK    2  A    between atoms: C_2  and  C_4
REMARK    3  A    between atoms: C_4  and  C_6
REMARK    4  A    between atoms: C_7  and  O_8
REMARK    5  A    between atoms: C_7  and  C_9
REMARK    6  A    between atoms: C_12  and  C_13
REMARK    7  A    between atoms: C_13  and  O_14
REMARK    8  A    between atoms: C_15  and  C_16
REMARK    9  A    between atoms: C_16  and  C_18
REMARK   10  A    between atoms: C_18  and  O_20
REMARK                            x       y       z     vdW  Elec       q    Type
REMARK                         _______ _______ _______ _____ _____    ______ ____
ROOT
ATOM      1  C   UNL     1       5.344   5.219  15.704  0.00  0.00    +0.000 A 
ATOM      2  C   UNL     1       4.710   4.294  16.544  0.00  0.00    +0.000 A 
ATOM      3  C   UNL     1       3.939   4.710  17.644  0.00  0.00    +0.000 A 
ATOM      4  C   UNL     1       3.800   6.066  17.974  0.00  0.00    +0.000 A 
ATOM      5  C   UNL     1       4.444   6.993  17.137  0.00  0.00    +0.000 A 
ATOM      6  C   UNL     1       5.199   6.576  16.023  0.00  0.00    +0.000 A 
ENDROOT
BRANCH   1   8
ATOM      7  C   UNL     1       5.654   4.092  13.514  0.00  0.00    +0.000 C 
ATOM      8  C   UNL     1       6.167   4.792  14.544  0.00  0.00    +0.000 C 
BRANCH   7   9
ATOM      9  C   UNL     1       6.463   3.637  12.354  0.00  0.00    +0.000 C 
ATOM     10  O   UNL     1       7.469   4.214  11.953  0.00  0.00    +0.000 OA
BRANCH   9  12
ATOM     11  O   UNL     1       4.847   2.169  11.313  0.00  0.00    +0.000 OA
ATOM     12  C   UNL     1       6.004   2.360  11.639  0.00  0.00    +0.000 C 
BRANCH  12  13
ATOM     13  O   UNL     1       7.016   1.503  11.433  0.00  0.00    +0.000 OA
ATOM     14  H   UNL     1       7.565   1.399  12.241  0.00  0.00    +0.000 HD
ENDBRANCH  12  13
ENDBRANCH   9  12
ENDBRANCH   7   9
BRANCH   8  15
ATOM     15  O   UNL     1       7.489   5.187  14.603  0.00  0.00    +0.000 OA
ATOM     16  H   UNL     1       7.550   6.141  14.385  0.00  0.00    +0.000 HD
ENDBRANCH   8  15
ENDBRANCH   1   8
BRANCH   4  17
ATOM     17  C   UNL     1       3.003   6.508  19.152  0.00  0.00    +0.000 C 
ATOM     18  C   UNL     1       2.262   7.633  19.151  0.00  0.00    +0.000 C 
BRANCH  17  19
ATOM     19  O   UNL     1       3.034   5.696  20.266  0.00  0.00    +0.000 OA
ATOM     20  H   UNL     1       3.239   6.225  21.054  0.00  0.00    +0.000 HD
ENDBRANCH  17  19
BRANCH  18  21
ATOM     21  C   UNL     1       1.478   8.119  20.319  0.00  0.00    +0.000 C 
ATOM     22  O   UNL     1       1.278   7.530  21.376  0.00  0.00    +0.000 OA
BRANCH  21  23
ATOM     23  C   UNL     1       0.872   9.522  20.205  0.00  0.00    +0.000 C 
ATOM     24  O   UNL     1       0.340   9.955  19.202  0.00  0.00    +0.000 OA
BRANCH  23  25
ATOM     25  O   UNL     1       1.029  10.197  21.364  0.00  0.00    +0.000 OA
ATOM     26  H   UNL     1       1.358   9.569  22.051  0.00  0.00    +0.000 HD
ENDBRANCH  23  25
ENDBRANCH  21  23
ENDBRANCH  18  21
ENDBRANCH   4  17
TORSDOF 10
ENDMDL
MODEL 3
REMARK VINA RESULT:      -6.9      0.250      9.225
REMARK  Name = 
REMARK  10 active torsions:
REMARK  status: ('A' for Active; 'I' for Inactive)
REMARK    1  A    between atoms: C_2  and  O_3
REMARK    2  A    between atoms: C_2  and  C_4
REMARK    3  A    between atoms: C_4  and  C_6
REMARK    4  A    between atoms: C_7  and  O_8
REMARK    5  A    between atoms: C_7  and  C_9
REMARK    6  A    between atoms: C_12  and  C_13
REMARK    7  A    between atoms: C_13  and  O_14
REMARK    8  A    between atoms: C_15  and  C_16
REMARK    9  A    between atoms: C_16  and  C_18
REMARK   10  A    between atoms: C_18  and  O_20
REMARK                            x       y       z     vdW  Elec       q    Type
REMARK                         _______ _______ _______ _____ _____    ______ ____
ROOT
ATOM      1  C   UNL     1       1.909   8.320  19.037  0.00  0.00    +0.000 A 
ATOM      2  C   UNL     1       2.603   8.534  17.838  0.00  0.00    +0.000 A 
ATOM      3  C   UNL     1       3.555   7.613  17.366  0.00  0.00    +0.000 A 
ATOM      4  C   UNL     1       3.882   6.459  18.091  0.00  0.00    +0.000 A 
ATOM      5  C   UNL     1       3.194   6.249  19.298  0.00  0.00    +0.000 A 
ATOM      6  C   UNL     1       2.225   7.162  19.759  0.00  0.00    +0.000 A 
ENDROOT
BRANCH   1   8
ATOM      7  C   UNL     1       0.792   9.582  20.860  0.00  0.00    +0.000 C 
ATOM      8  C   UNL     1       0.908   9.290  19.550  0.00  0.00    +0.000 C 
BRANCH   7   9
ATOM      9  C   UNL     1      -0.215  10.533  21.396  0.00  0.00    +0.000 C 
ATOM     10  O   UNL     1      -0.770  11.395  20.722  0.00  0.00    +0.000 OA
BRANCH   9  12
ATOM     11  O   UNL     1      -1.605  10.858  23.349  0.00  0.00    +0.000 OA
ATOM     12  C   UNL     1      -0.578  10.402  22.882  0.00  0.00    +0.000 C 
BRANCH  12  13
ATOM     13  O   UNL     1       0.362   9.745  23.577  0.00  0.00    +0.000 OA
ATOM     14  H   UNL     1       1.080   9.422  22.988  0.00  0.00    +0.000 HD
ENDBRANCH  12  13
ENDBRANCH   9  12
ENDBRANCH   7   9
BRANCH   8  15
ATOM     15  O   UNL     1       0.125   9.875  18.575  0.00  0.00    +0.000 OA
ATOM     16  H   UNL     1       0.679  10.064  17.788  0.00  0.00    +0.000 HD
ENDBRANCH   8  15
ENDBRANCH   1   8
BRANCH   4  17
ATOM     17  C   UNL     1       4.906   5.492  17.605  0.00  0.00    +0.000 C 
ATOM     18  C   UNL     1       5.975   5.866  16.877  0.00  0.00    +0.000 C 
BRANCH  17  19
ATOM     19  O   UNL     1       4.728   4.169  17.951  0.00  0.00    +0.000 OA
ATOM     20  H   UNL     1       4.784   3.610  17.159  0.00  0.00    +0.000 HD
ENDBRANCH  17  19
BRANCH  18  21
ATOM     21  C   UNL     1       7.000   4.923  16.350  0.00  0.00    +0.000 C 
ATOM     22  O   UNL     1       7.865   4.335  16.990  0.00  0.00    +0.000 OA
BRANCH  21  23
ATOM     23  C   UNL     1       6.958   4.630  14.847  0.00  0.00    +0.000 C 
ATOM     24  O   UNL     1       6.259   3.775  14.339  0.00  0.00    +0.000 OA
BRANCH  23  25
ATOM     25  O   UNL     1       7.809   5.443  14.186  0.00  0.00    +0.000 OA
ATOM     26  H   UNL     1       8.681   4.986  14.106  0.00  0.00    +0.000 HD
ENDBRANCH  23  25
ENDBRANCH  21  23
ENDBRANCH  18  21
ENDBRANCH   4  17
TORSDOF 10
ENDMDL
MODEL 4
REMARK VINA RESULT:      -6.9      2.159      9.422
REMARK  Name = 
REMARK  10 active torsions:
REMARK  status: ('A' for Active; 'I' for Inactive)
REMARK    1  A    between atoms: C_2  and  O_3
REMARK    2  A    between atoms: C_2  and  C_4
REMARK    3  A    between atoms: C_4  and  C_6
REMARK    4  A    between atoms: C_7  and  O_8
REMARK    5  A    between atoms: C_7  and  C_9
REMARK    6  A    between atoms: C_12  and  C_13
REMARK    7  A    between atoms: C_13  and  O_14
REMARK    8  A    between atoms: C_15  and  C_16
REMARK    9  A    between atoms: C_16  and  C_18
REMARK   10  A    between atoms: C_18  and  O_20
REMARK                            x       y       z     vdW  Elec       q    Type
REMARK                         _______ _______ _______ _____ _____    ______ ____
ROOT
ATOM      1  C   UNL     1       3.822   6.037  18.059  0.00  0.00    +0.000 A 
ATOM      2  C   UNL     1       3.932   4.683  17.715  0.00  0.00    +0.000 A 
ATOM      3  C   UNL     1       4.681   4.267  16.600  0.00  0.00    +0.000 A 
ATOM      4  C   UNL     1       5.320   5.190  15.760  0.00  0.00    +0.000 A 
ATOM      5  C   UNL     1       5.202   6.548  16.099  0.00  0.00    +0.000 A 
ATOM      6  C   UNL     1       4.468   6.962  17.228  0.00  0.00    +0.000 A 
ENDROOT
BRANCH   1   8
ATOM      7  C   UNL     1       2.233   7.577  19.186  0.00  0.00    +0.000 C 
ATOM      8  C   UNL     1       3.026   6.489  19.230  0.00  0.00    +0.000 C 
BRANCH   7   9
ATOM      9  C   UNL     1       1.445   8.057  20.349  0.00  0.00    +0.000 C 
ATOM     10  O   UNL     1       1.197   7.374  21.337  0.00  0.00    +0.000 OA
BRANCH   9  12
ATOM     11  O   UNL     1       0.753  10.173  21.298  0.00  0.00    +0.000 OA
ATOM     12  C   UNL     1       0.933   9.503  20.297  0.00  0.00    +0.000 C 
BRANCH  12  13
ATOM     13  O   UNL     1       0.709   9.916  19.041  0.00  0.00    +0.000 OA
ATOM     14  H   UNL     1      -0.246  10.086  18.886  0.00  0.00    +0.000 HD
ENDBRANCH  12  13
ENDBRANCH   9  12
ENDBRANCH   7   9
BRANCH   8  15
ATOM     15  O   UNL     1       3.155   5.694  20.351  0.00  0.00    +0.000 OA
ATOM     16  H   UNL     1       4.107   5.541  20.529  0.00  0.00    +0.000 HD
ENDBRANCH   8  15
ENDBRANCH   1   8
BRANCH   4  17
ATOM     17  C   UNL     1       6.096   4.754  14.565  0.00  0.00    +0.000 C 
ATOM     18  C   UNL     1       5.559   4.016  13.575  0.00  0.00    +0.000 C 
BRANCH  17  19
ATOM     19  O   UNL     1       7.413   5.158  14.496  0.00  0.00    +0.000 OA
ATOM     20  H   UNL     1       7.504   5.885  13.859  0.00  0.00    +0.000 HD
ENDBRANCH  17  19
BRANCH  18  21
ATOM     21  C   UNL     1       6.314   3.539  12.383  0.00  0.00    +0.000 C 
ATOM     22  O   UNL     1       7.398   3.946  11.980  0.00  0.00    +0.000 OA
BRANCH  21  23
ATOM     23  C   UNL     1       5.683   2.395  11.582  0.00  0.00    +0.000 C 
ATOM     24  O   UNL     1       4.534   2.393  11.188  0.00  0.00    +0.000 OA
BRANCH  23  25
ATOM     25  O   UNL     1       6.579   1.403  11.395  0.00  0.00    +0.000 OA
ATOM     26  H   UNL     1       7.450   1.693  11.760  0.00  0.00    +0.000 HD
ENDBRANCH  23  25
ENDBRANCH  21  23
ENDBRANCH  18  21
ENDBRANCH   4  17
TORSDOF 10
ENDMDL
MODEL 5
REMARK VINA RESULT:      -6.8      2.120      3.778
REMARK  Name = 
REMARK  10 active torsions:
REMARK  status: ('A' for Active; 'I' for Inactive)
REMARK    1  A    between atoms: C_2  and  O_3
REMARK    2  A    between atoms: C_2  and  C_4
REMARK    3  A    between atoms: C_4  and  C_6
REMARK    4  A    between atoms: C_7  and  O_8
REMARK    5  A    between atoms: C_7  and  C_9
REMARK    6  A    between atoms: C_12  and  C_13
REMARK    7  A    between atoms: C_13  and  O_14
REMARK    8  A    between atoms: C_15  and  C_16
REMARK    9  A    between atoms: C_16  and  C_18
REMARK   10  A    between atoms: C_18  and  O_20
REMARK                            x       y       z     vdW  Elec       q    Type
REMARK                         _______ _______ _______ _____ _____    ______ ____
ROOT
ATOM      1  C   UNL     1       5.293   5.268  15.767  0.00  0.00    +0.000 A 
ATOM      2  C   UNL     1       5.240   6.627  16.107  0.00  0.00    +0.000 A 
ATOM      3  C   UNL     1       4.493   7.080  17.209  0.00  0.00    +0.000 A 
ATOM      4  C   UNL     1       3.736   6.199  17.994  0.00  0.00    +0.000 A 
ATOM      5  C   UNL     1       3.780   4.838  17.647  0.00  0.00    +0.000 A 
ATOM      6  C   UNL     1       4.546   4.383  16.556  0.00  0.00    +0.000 A 
ENDROOT
BRANCH   1   8
ATOM      7  C   UNL     1       5.512   4.053  13.613  0.00  0.00    +0.000 C 
ATOM      8  C   UNL     1       6.071   4.780  14.600  0.00  0.00    +0.000 C 
BRANCH   7   9
ATOM      9  C   UNL     1       6.276   3.537  12.448  0.00  0.00    +0.000 C 
ATOM     10  O   UNL     1       7.383   3.951  12.119  0.00  0.00    +0.000 OA
BRANCH   9  12
ATOM     11  O   UNL     1       4.491   2.477  11.207  0.00  0.00    +0.000 OA
ATOM     12  C   UNL     1       5.629   2.410  11.632  0.00  0.00    +0.000 C 
BRANCH  12  13
ATOM     13  O   UNL     1       6.458   1.370  11.460  0.00  0.00    +0.000 OA
ATOM     14  H   UNL     1       5.958   0.535  11.318  0.00  0.00    +0.000 HD
ENDBRANCH  12  13
ENDBRANCH   9  12
ENDBRANCH   7   9
BRANCH   8  15
ATOM     15  O   UNL     1       7.402   5.147  14.605  0.00  0.00    +0.000 OA
ATOM     16  H   UNL     1       7.592   5.681  13.805  0.00  0.00    +0.000 HD
ENDBRANCH   8  15
ENDBRANCH   1   8
BRANCH   4  17
ATOM     17  C   UNL     1       2.925   6.678  19.149  0.00  0.00    +0.000 C 
ATOM     18  C   UNL     1       2.193   7.808  19.109  0.00  0.00    +0.000 C 
BRANCH  17  19
ATOM     19  O   UNL     1       2.936   5.896  20.285  0.00  0.00    +0.000 OA
ATOM     20  H   UNL     1       3.546   5.150  20.167  0.00  0.00    +0.000 HD
ENDBRANCH  17  19
BRANCH  18  21
ATOM     21  C   UNL     1       1.397   8.330  20.253  0.00  0.00    +0.000 C 
ATOM     22  O   UNL     1       1.255   7.813  21.356  0.00  0.00    +0.000 OA
BRANCH  21  23
ATOM     23  C   UNL     1       0.695   9.676  20.045  0.00  0.00    +0.000 C 
ATOM     24  O   UNL     1       1.159  10.592  19.395  0.00  0.00    +0.000 OA
BRANCH  23  25
ATOM     25  O   UNL     1      -0.489   9.694  20.693  0.00  0.00    +0.000 OA
ATOM     26  H   UNL     1      -1.206   9.847  20.032  0.00  0.00    +0.000 HD
ENDBRANCH  23  25
ENDBRANCH  21  23
ENDBRANCH  18  21
ENDBRANCH   4  17
TORSDOF 10
ENDMDL
MODEL 6
REMARK VINA RESULT:      -6.8      2.132      9.493
REMARK  Name = 
REMARK  10 active torsions:
REMARK  status: ('A' for Active; 'I' for Inactive)
REMARK    1  A    between atoms: C_2  and  O_3
REMARK    2  A    between atoms: C_2  and  C_4
REMARK    3  A    between atoms: C_4  and  C_6
REMARK    4  A    between atoms: C_7  and  O_8
REMARK    5  A    between atoms: C_7  and  C_9
REMARK    6  A    between atoms: C_12  and  C_13
REMARK    7  A    between atoms: C_13  and  O_14
REMARK    8  A    between atoms: C_15  and  C_16
REMARK    9  A    between atoms: C_16  and  C_18
REMARK   10  A    between atoms: C_18  and  O_20
REMARK                            x       y       z     vdW  Elec       q    Type
REMARK                         _______ _______ _______ _____ _____    ______ ____
ROOT
ATOM      1  C   UNL     1       3.813   6.047  18.006  0.00  0.00    +0.000 A 
ATOM      2  C   UNL     1       4.471   6.981  17.194  0.00  0.00    +0.000 A 
ATOM      3  C   UNL     1       5.214   6.582  16.069  0.00  0.00    +0.000 A 
ATOM      4  C   UNL     1       5.363   5.229  15.730  0.00  0.00    +0.000 A 
ATOM      5  C   UNL     1       4.712   4.293  16.549  0.00  0.00    +0.000 A 
ATOM      6  C   UNL     1       3.950   4.696  17.664  0.00  0.00    +0.000 A 
ENDROOT
BRANCH   1   8
ATOM      7  C   UNL     1       2.261   7.562  19.215  0.00  0.00    +0.000 C 
ATOM      8  C   UNL     1       3.032   6.457  19.201  0.00  0.00    +0.000 C 
BRANCH   7   9
ATOM      9  C   UNL     1       1.488   8.000  20.405  0.00  0.00    +0.000 C 
ATOM     10  O   UNL     1       1.275   7.290  21.382  0.00  0.00    +0.000 OA
BRANCH   9  12
ATOM     11  O   UNL     1       0.755  10.060  19.369  0.00  0.00    +0.000 OA
ATOM     12  C   UNL     1       0.947   9.436  20.397  0.00  0.00    +0.000 C 
BRANCH  12  13
ATOM     13  O   UNL     1       0.726   9.902  21.635  0.00  0.00    +0.000 OA
ATOM     14  H   UNL     1       1.529  10.336  22.001  0.00  0.00    +0.000 HD
ENDBRANCH  12  13
ENDBRANCH   9  12
ENDBRANCH   7   9
BRANCH   8  15
ATOM     15  O   UNL     1       3.148   5.605  20.281  0.00  0.00    +0.000 OA
ATOM     16  H   UNL     1       3.828   4.926  20.084  0.00  0.00    +0.000 HD
ENDBRANCH   8  15
ENDBRANCH   1   8
BRANCH   4  17
ATOM     17  C   UNL     1       6.169   4.801  14.552  0.00  0.00    +0.000 C 
ATOM     18  C   UNL     1       5.650   4.088  13.534  0.00  0.00    +0.000 C 
BRANCH  17  19
ATOM     19  O   UNL     1       7.493   5.185  14.530  0.00  0.00    +0.000 OA
ATOM     20  H   UNL     1       7.861   5.157  15.427  0.00  0.00    +0.000 HD
ENDBRANCH  17  19
BRANCH  18  21
ATOM     21  C   UNL     1       6.433   3.619  12.357  0.00  0.00    +0.000 C 
ATOM     22  O   UNL     1       7.470   4.102  11.916  0.00  0.00    +0.000 OA
BRANCH  21  23
ATOM     23  C   UNL     1       5.903   2.380  11.628  0.00  0.00    +0.000 C 
ATOM     24  O   UNL     1       4.745   2.231  11.291  0.00  0.00    +0.000 OA
BRANCH  23  25
ATOM     25  O   UNL     1       6.898   1.489  11.433  0.00  0.00    +0.000 OA
ATOM     26  H   UNL     1       6.634   0.629  11.842  0.00  0.00    +0.000 HD
ENDBRANCH  23  25
ENDBRANCH  21  23
ENDBRANCH  18  21
ENDBRANCH   4  17
TORSDOF 10
ENDMDL
MODEL 7
REMARK VINA RESULT:      -6.8      1.726      2.677
REMARK  Name = 
REMARK  10 active torsions:
REMARK  status: ('A' for Active; 'I' for Inactive)
REMARK    1  A    between atoms: C_2  and  O_3
REMARK    2  A    between atoms: C_2  and  C_4
REMARK    3  A    between atoms: C_4  and  C_6
REMARK    4  A    between atoms: C_7  and  O_8
REMARK    5  A    between atoms: C_7  and  C_9
REMARK    6  A    between atoms: C_12  and  C_13
REMARK    7  A    between atoms: C_13  and  O_14
REMARK    8  A    between atoms: C_15  and  C_16
REMARK    9  A    between atoms: C_16  and  C_18
REMARK   10  A    between atoms: C_18  and  O_20
REMARK                            x       y       z     vdW  Elec       q    Type
REMARK                         _______ _______ _______ _____ _____    ______ ____
ROOT
ATOM      1  C   UNL     1       5.112   5.992  17.354  0.00  0.00    +0.000 A 
ATOM      2  C   UNL     1       4.195   7.038  17.179  0.00  0.00    +0.000 A 
ATOM      3  C   UNL     1       3.217   7.327  18.148  0.00  0.00    +0.000 A 
ATOM      4  C   UNL     1       3.089   6.558  19.313  0.00  0.00    +0.000 A 
ATOM      5  C   UNL     1       4.002   5.503  19.484  0.00  0.00    +0.000 A 
ATOM      6  C   UNL     1       4.994   5.229  18.522  0.00  0.00    +0.000 A 
ENDROOT
BRANCH   1   8
ATOM      7  C   UNL     1       5.826   5.294  15.081  0.00  0.00    +0.000 C 
ATOM      8  C   UNL     1       6.144   5.673  16.334  0.00  0.00    +0.000 C 
BRANCH   7   9
ATOM      9  C   UNL     1       6.840   4.951  14.052  0.00  0.00    +0.000 C 
ATOM     10  O   UNL     1       7.996   5.364  14.065  0.00  0.00    +0.000 OA
BRANCH   9  12
ATOM     11  O   UNL     1       5.380   3.349  12.978  0.00  0.00    +0.000 OA
ATOM     12  C   UNL     1       6.400   4.010  12.922  0.00  0.00    +0.000 C 
BRANCH  12  13
ATOM     13  O   UNL     1       7.267   4.009  11.898  0.00  0.00    +0.000 OA
ATOM     14  H   UNL     1       6.802   3.906  11.038  0.00  0.00    +0.000 HD
ENDBRANCH  12  13
ENDBRANCH   9  12
ENDBRANCH   7   9
BRANCH   8  15
ATOM     15  O   UNL     1       7.445   5.815  16.772  0.00  0.00    +0.000 OA
ATOM     16  H   UNL     1       7.600   6.750  17.022  0.00  0.00    +0.000 HD
ENDBRANCH   8  15
ENDBRANCH   1   8
BRANCH   4  17
ATOM     17  C   UNL     1       2.040   6.847  20.331  0.00  0.00    +0.000 C 
ATOM     18  C   UNL     1       1.513   8.073  20.508  0.00  0.00    +0.000 C 
BRANCH  17  19
ATOM     19  O   UNL     1       1.602   5.784  21.093  0.00  0.00    +0.000 OA
ATOM     20  H   UNL     1       2.021   5.809  21.968  0.00  0.00    +0.000 HD
ENDBRANCH  17  19
BRANCH  18  21
ATOM     21  C   UNL     1       0.486   8.402  21.535  0.00  0.00    +0.000 C 
ATOM     22  O   UNL     1      -0.670   7.997  21.584  0.00  0.00    +0.000 OA
BRANCH  21  23
ATOM     23  C   UNL     1       0.924   9.329  22.673  0.00  0.00    +0.000 C 
ATOM     24  O   UNL     1       0.154   9.942  23.387  0.00  0.00    +0.000 OA
BRANCH  23  25
ATOM     25  O   UNL     1       2.270   9.371  22.753  0.00  0.00    +0.000 OA
ATOM     26  H   UNL     1       2.552  10.316  22.818  0.00  0.00    +0.000 HD
ENDBRANCH  23  25
ENDBRANCH  21  23
ENDBRANCH  18  21
ENDBRANCH   4  17
TORSDOF 10
ENDMDL
MODEL 8
REMARK VINA RESULT:      -6.7      1.784      2.711
REMARK  Name = 
REMARK  10 active torsions:
REMARK  status: ('A' for Active; 'I' for Inactive)
REMARK    1  A    between atoms: C_2  and  O_3
REMARK    2  A    between atoms: C_2  and  C_4
REMARK    3  A    between atoms: C_4  and  C_6
REMARK    4  A    between atoms: C_7  and  O_8
REMARK    5  A    between atoms: C_7  and  C_9
REMARK    6  A    between atoms: C_12  and  C_13
REMARK    7  A    between atoms: C_13  and  O_14
REMARK    8  A    between atoms: C_15  and  C_16
REMARK    9  A    between atoms: C_16  and  C_18
REMARK   10  A    between atoms: C_18  and  O_20
REMARK                            x       y       z     vdW  Elec       q    Type
REMARK                         _______ _______ _______ _____ _____    ______ ____
ROOT
ATOM      1  C   UNL     1       3.217   6.576  18.439  0.00  0.00    +0.000 A 
ATOM      2  C   UNL     1       2.610   6.580  19.703  0.00  0.00    +0.000 A 
ATOM      3  C   UNL     1       1.766   7.629  20.109  0.00  0.00    +0.000 A 
ATOM      4  C   UNL     1       1.525   8.738  19.285  0.00  0.00    +0.000 A 
ATOM      5  C   UNL     1       2.142   8.739  18.023  0.00  0.00    +0.000 A 
ATOM      6  C   UNL     1       2.970   7.677  17.609  0.00  0.00    +0.000 A 
ENDROOT
BRANCH   1   8
ATOM      7  C   UNL     1       4.869   5.561  16.889  0.00  0.00    +0.000 C 
ATOM      8  C   UNL     1       4.116   5.477  18.003  0.00  0.00    +0.000 C 
BRANCH   7   9
ATOM      9  C   UNL     1       5.759   4.467  16.423  0.00  0.00    +0.000 C 
ATOM     10  O   UNL     1       5.370   3.333  16.162  0.00  0.00    +0.000 OA
BRANCH   9  12
ATOM     11  O   UNL     1       7.653   5.579  15.407  0.00  0.00    +0.000 OA
ATOM     12  C   UNL     1       7.247   4.801  16.251  0.00  0.00    +0.000 C 
BRANCH  12  13
ATOM     13  O   UNL     1       8.019   4.138  17.125  0.00  0.00    +0.000 OA
ATOM     14  H   UNL     1       7.722   3.206  17.226  0.00  0.00    +0.000 HD
ENDBRANCH  12  13
ENDBRANCH   9  12
ENDBRANCH   7   9
BRANCH   8  15
ATOM     15  O   UNL     1       4.127   4.379  18.840  0.00  0.00    +0.000 OA
ATOM     16  H   UNL     1       4.729   3.699  18.471  0.00  0.00    +0.000 HD
ENDBRANCH   8  15
ENDBRANCH   1   8
BRANCH   4  17
ATOM     17  C   UNL     1       0.650   9.862  19.721  0.00  0.00    +0.000 C 
ATOM     18  C   UNL     1      -0.423  10.268  19.016  0.00  0.00    +0.000 C 
BRANCH  17  19
ATOM     19  O   UNL     1       0.974  10.478  20.912  0.00  0.00    +0.000 OA
ATOM     20  H   UNL     1       0.260  11.079  21.179  0.00  0.00    +0.000 HD
ENDBRANCH  17  19
BRANCH  18  21
ATOM     21  C   UNL     1      -1.300  11.406  19.407  0.00  0.00    +0.000 C 
ATOM     22  O   UNL     1      -1.264  12.044  20.453  0.00  0.00    +0.000 OA
BRANCH  21  23
ATOM     23  C   UNL     1      -2.349  11.850  18.382  0.00  0.00    +0.000 C 
ATOM     24  O   UNL     1      -3.548  11.816  18.577  0.00  0.00    +0.000 OA
BRANCH  23  25
ATOM     25  O   UNL     1      -1.749  12.265  17.247  0.00  0.00    +0.000 OA
ATOM     26  H   UNL     1      -1.716  11.507  16.614  0.00  0.00    +0.000 HD
ENDBRANCH  23  25
ENDBRANCH  21  23
ENDBRANCH  18  21
ENDBRANCH   4  17
TORSDOF 10
ENDMDL
MODEL 9
REMARK VINA RESULT:      -6.7      1.554      2.483
REMARK  Name = 
REMARK  10 active torsions:
REMARK  status: ('A' for Active; 'I' for Inactive)
REMARK    1  A    between atoms: C_2  and  O_3
REMARK    2  A    between atoms: C_2  and  C_4
REMARK    3  A    between atoms: C_4  and  C_6
REMARK    4  A    between atoms: C_7  and  O_8
REMARK    5  A    between atoms: C_7  and  C_9
REMARK    6  A    between atoms: C_12  and  C_13
REMARK    7  A    between atoms: C_13  and  O_14
REMARK    8  A    between atoms: C_15  and  C_16
REMARK    9  A    between atoms: C_16  and  C_18
REMARK   10  A    between atoms: C_18  and  O_20
REMARK                            x       y       z     vdW  Elec       q    Type
REMARK                         _______ _______ _______ _____ _____    ______ ____
ROOT
ATOM      1  C   UNL     1       3.712   6.508  18.038  0.00  0.00    +0.000 A 
ATOM      2  C   UNL     1       3.088   6.324  19.280  0.00  0.00    +0.000 A 
ATOM      3  C   UNL     1       2.149   7.246  19.773  0.00  0.00    +0.000 A 
ATOM      4  C   UNL     1       1.823   8.412  19.066  0.00  0.00    +0.000 A 
ATOM      5  C   UNL     1       2.456   8.602  17.826  0.00  0.00    +0.000 A 
ATOM      6  C   UNL     1       3.381   7.666  17.322  0.00  0.00    +0.000 A 
ENDROOT
BRANCH   1   8
ATOM      7  C   UNL     1       6.000   5.880  17.308  0.00  0.00    +0.000 C 
ATOM      8  C   UNL     1       4.711   5.544  17.510  0.00  0.00    +0.000 C 
BRANCH   7   9
ATOM      9  C   UNL     1       7.011   4.939  16.761  0.00  0.00    +0.000 C 
ATOM     10  O   UNL     1       7.905   4.430  17.431  0.00  0.00    +0.000 OA
BRANCH   9  12
ATOM     11  O   UNL     1       6.190   3.688  14.860  0.00  0.00    +0.000 OA
ATOM     12  C   UNL     1       6.903   4.584  15.272  0.00  0.00    +0.000 C 
BRANCH  12  13
ATOM     13  O   UNL     1       7.683   5.364  14.509  0.00  0.00    +0.000 OA
ATOM     14  H   UNL     1       8.634   5.234  14.720  0.00  0.00    +0.000 HD
ENDBRANCH  12  13
ENDBRANCH   9  12
ENDBRANCH   7   9
BRANCH   8  15
ATOM     15  O   UNL     1       4.214   4.280  17.264  0.00  0.00    +0.000 OA
ATOM     16  H   UNL     1       3.665   3.996  18.025  0.00  0.00    +0.000 HD
ENDBRANCH   8  15
ENDBRANCH   1   8
BRANCH   4  17
ATOM     17  C   UNL     1       0.846   9.403  19.597  0.00  0.00    +0.000 C 
ATOM     18  C   UNL     1       0.318  10.386  18.841  0.00  0.00    +0.000 C 
BRANCH  17  19
ATOM     19  O   UNL     1       0.475   9.267  20.918  0.00  0.00    +0.000 OA
ATOM     20  H   UNL     1       1.181   8.825  21.416  0.00  0.00    +0.000 HD
ENDBRANCH  17  19
BRANCH  18  21
ATOM     21  C   UNL     1      -0.637  11.410  19.347  0.00  0.00    +0.000 C 
ATOM     22  O   UNL     1      -0.645  11.933  20.456  0.00  0.00    +0.000 OA
BRANCH  21  23
ATOM     23  C   UNL     1      -1.716  11.886  18.369  0.00  0.00    +0.000 C 
ATOM     24  O   UNL     1      -2.888  11.572  18.443  0.00  0.00    +0.000 OA
BRANCH  23  25
ATOM     25  O   UNL     1      -1.175  12.681  17.423  0.00  0.00    +0.000 OA
ATOM     26  H   UNL     1      -0.439  12.191  16.983  0.00  0.00    +0.000 HD
ENDBRANCH  23  25
ENDBRANCH  21  23
ENDBRANCH  18  21
ENDBRANCH   4  17
TORSDOF 10
ENDMDL
