MODEL 1
REMARK VINA RESULT:      -6.7      0.000      0.000
REMARK  Name = 
REMARK  12 active torsions:
REMARK  status: ('A' for Active; 'I' for Inactive)
REMARK    1  A    between atoms: C_1  and  O_2
REMARK    2  A    between atoms: O_2  and  C_3
REMARK    3  A    between atoms: C_7  and  C_8
REMARK    4  A    between atoms: C_11  and  C_13
REMARK    5  A    between atoms: C_13  and  N_14
REMARK    6  A    between atoms: N_14  and  C_15
REMARK    7  A    between atoms: C_15  and  C_16
REMARK    8  A    between atoms: C_16  and  N_17
REMARK    9  A    between atoms: C_23  and  C_25
REMARK   10  A    between atoms: C_25  and  C_26
REMARK   11  A    between atoms: C_25  and  C_27
REMARK   12  A    between atoms: C_28  and  C_29
REMARK                            x       y       z     vdW  Elec       q    Type
REMARK                         _______ _______ _______ _____ _____    ______ ____
ROOT
ATOM      1  C   UNL     1      -1.246  11.344  18.734  0.00  0.00    +0.000 C 
ATOM      2  N   UNL     1      -0.217  12.100  18.537  0.00  0.00    +0.000 NA
ATOM      3  N   UNL     1       0.701  11.777  19.491  0.00  0.00    +0.000 N 
ATOM      4  C   UNL     1       1.523  12.755  20.028  0.00  0.00    +0.000 C 
ATOM      5  O   UNL     1       2.251  12.544  21.004  0.00  0.00    +0.000 OA
ATOM      6  C   UNL     1       0.387  10.499  20.149  0.00  0.00    +0.000 C 
ATOM      7  C   UNL     1      -1.118  10.388  19.894  0.00  0.00    +0.000 C 
ENDROOT
BRANCH   1  12
ATOM      8  C   UNL     1      -4.921  11.803  18.062  0.00  0.00    +0.000 A 
ATOM      9  C   UNL     1      -4.988  11.366  16.734  0.00  0.00    +0.000 A 
ATOM     10  C   UNL     1      -3.829  11.022  16.035  0.00  0.00    +0.000 A 
ATOM     11  C   UNL     1      -2.586  11.121  16.658  0.00  0.00    +0.000 A 
ATOM     12  C   UNL     1      -2.514  11.534  17.995  0.00  0.00    +0.000 A 
ATOM     13  C   UNL     1      -3.678  11.881  18.696  0.00  0.00    +0.000 A 
BRANCH   8  15
ATOM     14  C   UNL     1      -6.161  12.802  19.833  0.00  0.00    +0.000 C 
ATOM     15  O   UNL     1      -6.142  12.026  18.640  0.00  0.00    +0.000 OA
ENDBRANCH   8  15
ENDBRANCH   1  12
BRANCH   6  16
ATOM     16  C   UNL     1       1.239   9.353  19.612  0.00  0.00    +0.000 A 
ATOM     17  C   UNL     1       1.717   9.422  18.291  0.00  0.00    +0.000 A 
ATOM     18  C   UNL     1       2.444   8.369  17.727  0.00  0.00    +0.000 A 
ATOM     19  C   UNL     1       2.713   7.225  18.476  0.00  0.00    +0.000 A 
ATOM     20  C   UNL     1       2.271   7.146  19.793  0.00  0.00    +0.000 A 
ATOM     21  C   UNL     1       1.539   8.198  20.357  0.00  0.00    +0.000 A 
ENDBRANCH   6  16
BRANCH   4  22
ATOM     22  C   UNL     1       1.480  14.161  19.363  0.00  0.00    +0.000 C 
BRANCH  22  23
ATOM     23  N   UNL     1       0.603  15.213  19.948  0.00  0.00    +0.000 N 
ATOM     24  C   UNL     1       0.399  16.396  19.217  0.00  0.00    +0.000 C 
ATOM     25  O   UNL     1       1.102  16.702  18.250  0.00  0.00    +0.000 OA
BRANCH  24  26
ATOM     26  C   UNL     1      -0.671  17.391  19.715  0.00  0.00    +0.000 C 
ATOM     27  C   UNL     1       0.038  18.614  20.295  0.00  0.00    +0.000 C 
ATOM     28  C   UNL     1      -1.622  17.843  18.633  0.00  0.00    +0.000 C 
ENDBRANCH  24  26
BRANCH  23  29
ATOM     29  C   UNL     1      -0.149  14.940  21.179  0.00  0.00    +0.000 C 
BRANCH  29  30
ATOM     30  C   UNL     1      -1.531  14.273  21.071  0.00  0.00    +0.000 C 
BRANCH  30  31
ATOM     31  N   UNL     1      -1.688  13.180  22.060  0.00  0.00    +0.000 NA
ATOM     32  C   UNL     1      -3.068  12.649  22.194  0.00  0.00    +0.000 C 
ATOM     33  C   UNL     1      -4.039  13.580  22.940  0.00  0.00    +0.000 C 
ATOM     34  O   UNL     1      -3.536  13.909  24.239  0.00  0.00    +0.000 OA
ATOM     35  C   UNL     1      -2.241  14.517  24.139  0.00  0.00    +0.000 C 
ATOM     36  C   UNL     1      -1.242  13.606  23.406  0.00  0.00    +0.000 C 
ENDBRANCH  30  31
ENDBRANCH  29  30
ENDBRANCH  23  29
ENDBRANCH  22  23
ENDBRANCH   4  22
TORSDOF 9
ENDMDL
MODEL 2
REMARK VINA RESULT:      -6.6      3.478      9.293
REMARK  Name = 
REMARK  12 active torsions:
REMARK  status: ('A' for Active; 'I' for Inactive)
REMARK    1  A    between atoms: C_1  and  O_2
REMARK    2  A    between atoms: O_2  and  C_3
REMARK    3  A    between atoms: C_7  and  C_8
REMARK    4  A    between atoms: C_11  and  C_13
REMARK    5  A    between atoms: C_13  and  N_14
REMARK    6  A    between atoms: N_14  and  C_15
REMARK    7  A    between atoms: C_15  and  C_16
REMARK    8  A    between atoms: C_16  and  N_17
REMARK    9  A    between atoms: C_23  and  C_25
REMARK   10  A    between atoms: C_25  and  C_26
REMARK   11  A    between atoms: C_25  and  C_27
REMARK   12  A    between atoms: C_28  and  C_29
REMARK                            x       y       z     vdW  Elec       q    Type
REMARK                         _______ _______ _______ _____ _____    ______ ____
ROOT
ATOM      1  C   UNL     1       1.242  11.997  19.608  0.00  0.00    +0.000 C 
ATOM      2  N   UNL     1       1.506  10.754  19.376  0.00  0.00    +0.000 NA
ATOM      3  N   UNL     1       0.423  10.035  19.786  0.00  0.00    +0.000 N 
ATOM      4  C   UNL     1       0.591   8.777  20.342  0.00  0.00    +0.000 C 
ATOM      5  O   UNL     1      -0.338   8.161  20.874  0.00  0.00    +0.000 OA
ATOM      6  C   UNL     1      -0.759  10.887  19.993  0.00  0.00    +0.000 C 
ATOM      7  C   UNL     1      -0.112  12.254  20.224  0.00  0.00    +0.000 C 
ENDROOT
BRANCH   1  12
ATOM      8  C   UNL     1       3.260  15.100  20.293  0.00  0.00    +0.000 A 
ATOM      9  C   UNL     1       3.746  15.370  19.009  0.00  0.00    +0.000 A 
ATOM     10  C   UNL     1       3.501  14.491  17.952  0.00  0.00    +0.000 A 
ATOM     11  C   UNL     1       2.769  13.324  18.173  0.00  0.00    +0.000 A 
ATOM     12  C   UNL     1       2.259  13.060  19.450  0.00  0.00    +0.000 A 
ATOM     13  C   UNL     1       2.508  13.942  20.513  0.00  0.00    +0.000 A 
BRANCH   8  15
ATOM     14  C   UNL     1       4.467  17.077  20.844  0.00  0.00    +0.000 C 
ATOM     15  O   UNL     1       3.510  16.089  21.207  0.00  0.00    +0.000 OA
ENDBRANCH   8  15
ENDBRANCH   1  12
BRANCH   6  16
ATOM     16  C   UNL     1      -1.737  10.803  18.824  0.00  0.00    +0.000 A 
ATOM     17  C   UNL     1      -1.422   9.976  17.731  0.00  0.00    +0.000 A 
ATOM     18  C   UNL     1      -2.249   9.916  16.606  0.00  0.00    +0.000 A 
ATOM     19  C   UNL     1      -3.414  10.679  16.552  0.00  0.00    +0.000 A 
ATOM     20  C   UNL     1      -3.759  11.485  17.633  0.00  0.00    +0.000 A 
ATOM     21  C   UNL     1      -2.928  11.549  18.758  0.00  0.00    +0.000 A 
ENDBRANCH   6  16
BRANCH   4  22
ATOM     22  C   UNL     1       2.021   8.165  20.294  0.00  0.00    +0.000 C 
BRANCH  22  23
ATOM     23  N   UNL     1       2.248   6.910  19.525  0.00  0.00    +0.000 N 
ATOM     24  C   UNL     1       2.031   5.682  20.171  0.00  0.00    +0.000 C 
ATOM     25  O   UNL     1       1.910   5.594  21.395  0.00  0.00    +0.000 OA
BRANCH  24  26
ATOM     26  C   UNL     1       2.057   4.392  19.323  0.00  0.00    +0.000 C 
ATOM     27  C   UNL     1       3.281   3.571  19.726  0.00  0.00    +0.000 C 
ATOM     28  C   UNL     1       0.821   3.541  19.484  0.00  0.00    +0.000 C 
ENDBRANCH  24  26
BRANCH  23  29
ATOM     29  C   UNL     1       2.532   6.974  18.086  0.00  0.00    +0.000 C 
BRANCH  29  30
ATOM     30  C   UNL     1       3.990   7.149  17.625  0.00  0.00    +0.000 C 
BRANCH  30  31
ATOM     31  N   UNL     1       4.760   5.891  17.761  0.00  0.00    +0.000 NA
ATOM     32  C   UNL     1       6.157   6.059  18.238  0.00  0.00    +0.000 C 
ATOM     33  C   UNL     1       7.122   6.637  17.189  0.00  0.00    +0.000 C 
ATOM     34  O   UNL     1       7.124   5.838  16.001  0.00  0.00    +0.000 OA
ATOM     35  C   UNL     1       5.801   5.736  15.457  0.00  0.00    +0.000 C 
ATOM     36  C   UNL     1       4.812   5.152  16.480  0.00  0.00    +0.000 C 
ENDBRANCH  30  31
ENDBRANCH  29  30
ENDBRANCH  23  29
ENDBRANCH  22  23
ENDBRANCH   4  22
TORSDOF 9
ENDMDL
MODEL 3
REMARK VINA RESULT:      -6.6      3.491      9.387
REMARK  Name = 
REMARK  12 active torsions:
REMARK  status: ('A' for Active; 'I' for Inactive)
REMARK    1  A    between atoms: C_1  and  O_2
REMARK    2  A    between atoms: O_2  and  C_3
REMARK    3  A    between atoms: C_7  and  C_8
REMARK    4  A    between atoms: C_11  and  C_13
REMARK    5  A    between atoms: C_13  and  N_14
REMARK    6  A    between atoms: N_14  and  C_15
REMARK    7  A    between atoms: C_15  and  C_16
REMARK    8  A    between atoms: C_16  and  N_17
REMARK    9  A    between atoms: C_23  and  C_25
REMARK   10  A    between atoms: C_25  and  C_26
REMARK   11  A    between atoms: C_25  and  C_27
REMARK   12  A    between atoms: C_28  and  C_29
REMARK                            x       y       z     vdW  Elec       q    Type
REMARK                         _______ _______ _______ _____ _____    ______ ____
ROOT
ATOM      1  C   UNL     1       0.960  12.216  19.513  0.00  0.00    +0.000 C 
ATOM      2  N   UNL     1       1.312  11.001  19.248  0.00  0.00    +0.000 NA
ATOM      3  N   UNL     1       0.261  10.201  19.583  0.00  0.00    +0.000 N 
ATOM      4  C   UNL     1       0.486   8.935  20.100  0.00  0.00    +0.000 C 
ATOM      5  O   UNL     1      -0.423   8.242  20.568  0.00  0.00    +0.000 OA
ATOM      6  C   UNL     1      -0.980  10.969  19.768  0.00  0.00    +0.000 C 
ATOM      7  C   UNL     1      -0.432  12.364  20.078  0.00  0.00    +0.000 C 
ENDROOT
BRANCH   1  12
ATOM      8  C   UNL     1       3.936  14.279  18.487  0.00  0.00    +0.000 A 
ATOM      9  C   UNL     1       4.034  15.139  19.586  0.00  0.00    +0.000 A 
ATOM     10  C   UNL     1       3.077  15.113  20.602  0.00  0.00    +0.000 A 
ATOM     11  C   UNL     1       2.004  14.226  20.524  0.00  0.00    +0.000 A 
ATOM     12  C   UNL     1       1.913  13.345  19.439  0.00  0.00    +0.000 A 
ATOM     13  C   UNL     1       2.873  13.374  18.416  0.00  0.00    +0.000 A 
BRANCH   8  15
ATOM     14  C   UNL     1       6.203  14.906  18.115  0.00  0.00    +0.000 C 
ATOM     15  O   UNL     1       4.987  14.363  17.613  0.00  0.00    +0.000 OA
ENDBRANCH   8  15
ENDBRANCH   1  12
BRANCH   6  16
ATOM     16  C   UNL     1      -1.901  10.870  18.555  0.00  0.00    +0.000 A 
ATOM     17  C   UNL     1      -3.103  11.602  18.551  0.00  0.00    +0.000 A 
ATOM     18  C   UNL     1      -4.014  11.493  17.497  0.00  0.00    +0.000 A 
ATOM     19  C   UNL     1      -3.740  10.652  16.419  0.00  0.00    +0.000 A 
ATOM     20  C   UNL     1      -2.546   9.938  16.391  0.00  0.00    +0.000 A 
ATOM     21  C   UNL     1      -1.635  10.042  17.449  0.00  0.00    +0.000 A 
ENDBRANCH   6  16
BRANCH   4  22
ATOM     22  C   UNL     1       1.953   8.416  20.093  0.00  0.00    +0.000 C 
BRANCH  22  23
ATOM     23  N   UNL     1       2.260   7.119  19.430  0.00  0.00    +0.000 N 
ATOM     24  C   UNL     1       2.023   5.931  20.142  0.00  0.00    +0.000 C 
ATOM     25  O   UNL     1       1.817   5.922  21.359  0.00  0.00    +0.000 OA
BRANCH  24  26
ATOM     26  C   UNL     1       2.138   4.589  19.389  0.00  0.00    +0.000 C 
ATOM     27  C   UNL     1       3.377   3.852  19.895  0.00  0.00    +0.000 C 
ATOM     28  C   UNL     1       0.932   3.697  19.563  0.00  0.00    +0.000 C 
ENDBRANCH  24  26
BRANCH  23  29
ATOM     29  C   UNL     1       2.646   7.093  18.014  0.00  0.00    +0.000 C 
BRANCH  29  30
ATOM     30  C   UNL     1       4.134   7.231  17.648  0.00  0.00    +0.000 C 
BRANCH  30  31
ATOM     31  N   UNL     1       4.848   5.938  17.768  0.00  0.00    +0.000 NA
ATOM     32  C   UNL     1       6.263   6.041  18.205  0.00  0.00    +0.000 C 
ATOM     33  C   UNL     1       7.225   6.570  17.128  0.00  0.00    +0.000 C 
ATOM     34  O   UNL     1       7.158   5.769  15.944  0.00  0.00    +0.000 OA
ATOM     35  C   UNL     1       5.817   5.729  15.437  0.00  0.00    +0.000 C 
ATOM     36  C   UNL     1       4.830   5.194  16.488  0.00  0.00    +0.000 C 
ENDBRANCH  30  31
ENDBRANCH  29  30
ENDBRANCH  23  29
ENDBRANCH  22  23
ENDBRANCH   4  22
TORSDOF 9
ENDMDL
MODEL 4
REMARK VINA RESULT:      -6.5      2.891      4.518
REMARK  Name = 
REMARK  12 active torsions:
REMARK  status: ('A' for Active; 'I' for Inactive)
REMARK    1  A    between atoms: C_1  and  O_2
REMARK    2  A    between atoms: O_2  and  C_3
REMARK    3  A    between atoms: C_7  and  C_8
REMARK    4  A    between atoms: C_11  and  C_13
REMARK    5  A    between atoms: C_13  and  N_14
REMARK    6  A    between atoms: N_14  and  C_15
REMARK    7  A    between atoms: C_15  and  C_16
REMARK    8  A    between atoms: C_16  and  N_17
REMARK    9  A    between atoms: C_23  and  C_25
REMARK   10  A    between atoms: C_25  and  C_26
REMARK   11  A    between atoms: C_25  and  C_27
REMARK   12  A    between atoms: C_28  and  C_29
REMARK                            x       y       z     vdW  Elec       q    Type
REMARK                         _______ _______ _______ _____ _____    ______ ____
ROOT
ATOM      1  C   UNL     1      -1.585  11.155  18.995  0.00  0.00    +0.000 C 
ATOM      2  N   UNL     1      -1.884  11.845  20.046  0.00  0.00    +0.000 NA
ATOM      3  N   UNL     1      -0.833  11.731  20.907  0.00  0.00    +0.000 N 
ATOM      4  C   UNL     1      -1.054  11.696  22.275  0.00  0.00    +0.000 C 
ATOM      5  O   UNL     1      -0.156  11.431  23.082  0.00  0.00    +0.000 OA
ATOM      6  C   UNL     1       0.371  11.206  20.243  0.00  0.00    +0.000 C 
ATOM      7  C   UNL     1      -0.237  10.477  19.043  0.00  0.00    +0.000 C 
ENDROOT
BRANCH   1  12
ATOM      8  C   UNL     1      -2.979  10.449  15.570  0.00  0.00    +0.000 A 
ATOM      9  C   UNL     1      -4.279  10.942  15.724  0.00  0.00    +0.000 A 
ATOM     10  C   UNL     1      -4.726  11.406  16.963  0.00  0.00    +0.000 A 
ATOM     11  C   UNL     1      -3.875  11.374  18.066  0.00  0.00    +0.000 A 
ATOM     12  C   UNL     1      -2.564  10.905  17.914  0.00  0.00    +0.000 A 
ATOM     13  C   UNL     1      -2.116  10.436  16.670  0.00  0.00    +0.000 A 
BRANCH   8  15
ATOM     14  C   UNL     1      -3.737   9.912  13.378  0.00  0.00    +0.000 C 
ATOM     15  O   UNL     1      -2.658  10.106  14.284  0.00  0.00    +0.000 OA
ENDBRANCH   8  15
ENDBRANCH   1  12
BRANCH   6  16
ATOM     16  C   UNL     1       1.370  12.311  19.914  0.00  0.00    +0.000 A 
ATOM     17  C   UNL     1       1.872  12.408  18.603  0.00  0.00    +0.000 A 
ATOM     18  C   UNL     1       2.840  13.357  18.266  0.00  0.00    +0.000 A 
ATOM     19  C   UNL     1       3.326  14.236  19.233  0.00  0.00    +0.000 A 
ATOM     20  C   UNL     1       2.826  14.175  20.530  0.00  0.00    +0.000 A 
ATOM     21  C   UNL     1       1.859  13.221  20.870  0.00  0.00    +0.000 A 
ENDBRANCH   6  16
BRANCH   4  22
ATOM     22  C   UNL     1      -2.501  11.984  22.768  0.00  0.00    +0.000 C 
BRANCH  22  23
ATOM     23  N   UNL     1      -3.116  13.309  22.479  0.00  0.00    +0.000 N 
ATOM     24  C   UNL     1      -4.467  13.349  22.096  0.00  0.00    +0.000 C 
ATOM     25  O   UNL     1      -5.083  12.339  21.748  0.00  0.00    +0.000 OA
BRANCH  24  26
ATOM     26  C   UNL     1      -5.162  14.725  22.004  0.00  0.00    +0.000 C 
ATOM     27  C   UNL     1      -5.710  14.897  20.589  0.00  0.00    +0.000 C 
ATOM     28  C   UNL     1      -6.292  14.894  22.991  0.00  0.00    +0.000 C 
ENDBRANCH  24  26
BRANCH  23  29
ATOM     29  C   UNL     1      -2.364  14.540  22.749  0.00  0.00    +0.000 C 
BRANCH  29  30
ATOM     30  C   UNL     1      -1.505  14.621  24.023  0.00  0.00    +0.000 C 
BRANCH  30  31
ATOM     31  N   UNL     1      -2.299  15.077  25.188  0.00  0.00    +0.000 NA
ATOM     32  C   UNL     1      -3.287  16.147  24.894  0.00  0.00    +0.000 C 
ATOM     33  C   UNL     1      -2.670  17.536  24.661  0.00  0.00    +0.000 C 
ATOM     34  O   UNL     1      -1.868  17.934  25.778  0.00  0.00    +0.000 OA
ATOM     35  C   UNL     1      -0.838  16.968  26.029  0.00  0.00    +0.000 C 
ATOM     36  C   UNL     1      -1.423  15.568  26.276  0.00  0.00    +0.000 C 
ENDBRANCH  30  31
ENDBRANCH  29  30
ENDBRANCH  23  29
ENDBRANCH  22  23
ENDBRANCH   4  22
TORSDOF 9
ENDMDL
MODEL 5
REMARK VINA RESULT:      -6.5      4.040      9.448
REMARK  Name = 
REMARK  12 active torsions:
REMARK  status: ('A' for Active; 'I' for Inactive)
REMARK    1  A    between atoms: C_1  and  O_2
REMARK    2  A    between atoms: O_2  and  C_3
REMARK    3  A    between atoms: C_7  and  C_8
REMARK    4  A    between atoms: C_11  and  C_13
REMARK    5  A    between atoms: C_13  and  N_14
REMARK    6  A    between atoms: N_14  and  C_15
REMARK    7  A    between atoms: C_15  and  C_16
REMARK    8  A    between atoms: C_16  and  N_17
REMARK    9  A    between atoms: C_23  and  C_25
REMARK   10  A    between atoms: C_25  and  C_26
REMARK   11  A    between atoms: C_25  and  C_27
REMARK   12  A    between atoms: C_28  and  C_29
REMARK                            x       y       z     vdW  Elec       q    Type
REMARK                         _______ _______ _______ _____ _____    ______ ____
ROOT
ATOM      1  C   UNL     1       1.657  11.811  18.948  0.00  0.00    +0.000 C 
ATOM      2  N   UNL     1       2.031  10.924  18.085  0.00  0.00    +0.000 NA
ATOM      3  N   UNL     1       1.208   9.849  18.241  0.00  0.00    +0.000 N 
ATOM      4  C   UNL     1       1.697   8.565  18.057  0.00  0.00    +0.000 C 
ATOM      5  O   UNL     1       1.038   7.560  18.344  0.00  0.00    +0.000 OA
ATOM      6  C   UNL     1       0.009  10.180  19.026  0.00  0.00    +0.000 C 
ATOM      7  C   UNL     1       0.487  11.405  19.810  0.00  0.00    +0.000 C 
ENDROOT
BRANCH   1  12
ATOM      8  C   UNL     1       4.172  14.569  18.460  0.00  0.00    +0.000 A 
ATOM      9  C   UNL     1       4.294  15.030  19.775  0.00  0.00    +0.000 A 
ATOM     10  C   UNL     1       3.489  14.514  20.792  0.00  0.00    +0.000 A 
ATOM     11  C   UNL     1       2.543  13.532  20.499  0.00  0.00    +0.000 A 
ATOM     12  C   UNL     1       2.432  13.048  19.190  0.00  0.00    +0.000 A 
ATOM     13  C   UNL     1       3.240  13.570  18.168  0.00  0.00    +0.000 A 
BRANCH   8  15
ATOM     14  C   UNL     1       6.452  14.802  17.814  0.00  0.00    +0.000 C 
ATOM     15  O   UNL     1       5.081  15.109  17.590  0.00  0.00    +0.000 OA
ENDBRANCH   8  15
ENDBRANCH   1  12
BRANCH   6  16
ATOM     16  C   UNL     1      -1.215  10.393  18.141  0.00  0.00    +0.000 A 
ATOM     17  C   UNL     1      -2.190  11.326  18.539  0.00  0.00    +0.000 A 
ATOM     18  C   UNL     1      -3.363  11.509  17.801  0.00  0.00    +0.000 A 
ATOM     19  C   UNL     1      -3.583  10.765  16.642  0.00  0.00    +0.000 A 
ATOM     20  C   UNL     1      -2.622   9.855  16.216  0.00  0.00    +0.000 A 
ATOM     21  C   UNL     1      -1.449   9.667  16.958  0.00  0.00    +0.000 A 
ENDBRANCH   6  16
BRANCH   4  22
ATOM     22  C   UNL     1       3.139   8.429  17.489  0.00  0.00    +0.000 C 
BRANCH  22  23
ATOM     23  N   UNL     1       3.861   7.136  17.644  0.00  0.00    +0.000 N 
ATOM     24  C   UNL     1       4.750   6.741  16.630  0.00  0.00    +0.000 C 
ATOM     25  O   UNL     1       4.767   7.282  15.521  0.00  0.00    +0.000 OA
BRANCH  24  26
ATOM     26  C   UNL     1       5.654   5.516  16.883  0.00  0.00    +0.000 C 
ATOM     27  C   UNL     1       5.398   4.488  15.783  0.00  0.00    +0.000 C 
ATOM     28  C   UNL     1       7.126   5.850  16.909  0.00  0.00    +0.000 C 
ENDBRANCH  24  26
BRANCH  23  29
ATOM     29  C   UNL     1       3.758   6.385  18.901  0.00  0.00    +0.000 C 
BRANCH  29  30
ATOM     30  C   UNL     1       2.804   5.180  18.970  0.00  0.00    +0.000 C 
BRANCH  30  31
ATOM     31  N   UNL     1       3.334   4.115  19.855  0.00  0.00    +0.000 NA
ATOM     32  C   UNL     1       4.290   3.180  19.208  0.00  0.00    +0.000 C 
ATOM     33  C   UNL     1       3.641   2.174  18.242  0.00  0.00    +0.000 C 
ATOM     34  O   UNL     1       2.619   1.419  18.900  0.00  0.00    +0.000 OA
ATOM     35  C   UNL     1       1.623   2.290  19.453  0.00  0.00    +0.000 C 
ATOM     36  C   UNL     1       2.239   3.304  20.432  0.00  0.00    +0.000 C 
ENDBRANCH  30  31
ENDBRANCH  29  30
ENDBRANCH  23  29
ENDBRANCH  22  23
ENDBRANCH   4  22
TORSDOF 9
ENDMDL
MODEL 6
REMARK VINA RESULT:      -6.5      2.566      6.057
REMARK  Name = 
REMARK  12 active torsions:
REMARK  status: ('A' for Active; 'I' for Inactive)
REMARK    1  A    between atoms: C_1  and  O_2
REMARK    2  A    between atoms: O_2  and  C_3
REMARK    3  A    between atoms: C_7  and  C_8
REMARK    4  A    between atoms: C_11  and  C_13
REMARK    5  A    between atoms: C_13  and  N_14
REMARK    6  A    between atoms: N_14  and  C_15
REMARK    7  A    between atoms: C_15  and  C_16
REMARK    8  A    between atoms: C_16  and  N_17
REMARK    9  A    between atoms: C_23  and  C_25
REMARK   10  A    between atoms: C_25  and  C_26
REMARK   11  A    between atoms: C_25  and  C_27
REMARK   12  A    between atoms: C_28  and  C_29
REMARK                            x       y       z     vdW  Elec       q    Type
REMARK                         _______ _______ _______ _____ _____    ______ ____
ROOT
ATOM      1  C   UNL     1       0.344   9.828  19.510  0.00  0.00    +0.000 C 
ATOM      2  N   UNL     1      -0.463  10.244  20.429  0.00  0.00    +0.000 NA
ATOM      3  N   UNL     1      -1.016  11.405  19.976  0.00  0.00    +0.000 N 
ATOM      4  C   UNL     1      -1.312  12.428  20.863  0.00  0.00    +0.000 C 
ATOM      5  O   UNL     1      -1.659  13.552  20.482  0.00  0.00    +0.000 OA
ATOM      6  C   UNL     1      -0.810  11.587  18.531  0.00  0.00    +0.000 C 
ATOM      7  C   UNL     1       0.418  10.707  18.285  0.00  0.00    +0.000 C 
ENDROOT
BRANCH   1  12
ATOM      8  C   UNL     1       2.731   7.014  18.768  0.00  0.00    +0.000 A 
ATOM      9  C   UNL     1       2.559   6.232  19.916  0.00  0.00    +0.000 A 
ATOM     10  C   UNL     1       1.750   6.671  20.966  0.00  0.00    +0.000 A 
ATOM     11  C   UNL     1       1.108   7.906  20.879  0.00  0.00    +0.000 A 
ATOM     12  C   UNL     1       1.256   8.683  19.723  0.00  0.00    +0.000 A 
ATOM     13  C   UNL     1       2.071   8.242  18.670  0.00  0.00    +0.000 A 
BRANCH   8  15
ATOM     14  C   UNL     1       4.194   5.238  18.153  0.00  0.00    +0.000 C 
ATOM     15  O   UNL     1       3.486   6.419  17.793  0.00  0.00    +0.000 OA
ENDBRANCH   8  15
ENDBRANCH   1  12
BRANCH   6  16
ATOM     16  C   UNL     1      -2.056  11.231  17.725  0.00  0.00    +0.000 A 
ATOM     17  C   UNL     1      -1.954  10.271  16.703  0.00  0.00    +0.000 A 
ATOM     18  C   UNL     1      -3.048   9.959  15.890  0.00  0.00    +0.000 A 
ATOM     19  C   UNL     1      -4.271  10.598  16.087  0.00  0.00    +0.000 A 
ATOM     20  C   UNL     1      -4.401  11.533  17.109  0.00  0.00    +0.000 A 
ATOM     21  C   UNL     1      -3.304  11.850  17.920  0.00  0.00    +0.000 A 
ENDBRANCH   6  16
BRANCH   4  22
ATOM     22  C   UNL     1      -1.168  12.117  22.380  0.00  0.00    +0.000 C 
BRANCH  22  23
ATOM     23  N   UNL     1      -1.973  12.897  23.361  0.00  0.00    +0.000 N 
ATOM     24  C   UNL     1      -1.514  14.170  23.739  0.00  0.00    +0.000 C 
ATOM     25  O   UNL     1      -0.368  14.556  23.497  0.00  0.00    +0.000 OA
BRANCH  24  26
ATOM     26  C   UNL     1      -2.447  15.064  24.584  0.00  0.00    +0.000 C 
ATOM     27  C   UNL     1      -1.753  15.372  25.911  0.00  0.00    +0.000 C 
ATOM     28  C   UNL     1      -2.808  16.364  23.908  0.00  0.00    +0.000 C 
ENDBRANCH  24  26
BRANCH  23  29
ATOM     29  C   UNL     1      -3.289  12.404  23.786  0.00  0.00    +0.000 C 
BRANCH  29  30
ATOM     30  C   UNL     1      -4.545  13.183  23.361  0.00  0.00    +0.000 C 
BRANCH  30  31
ATOM     31  N   UNL     1      -4.522  13.510  21.916  0.00  0.00    +0.000 NA
ATOM     32  C   UNL     1      -5.211  14.774  21.548  0.00  0.00    +0.000 C 
ATOM     33  C   UNL     1      -6.746  14.699  21.594  0.00  0.00    +0.000 C 
ATOM     34  O   UNL     1      -7.232  13.641  20.761  0.00  0.00    +0.000 OA
ATOM     35  C   UNL     1      -6.660  12.385  21.154  0.00  0.00    +0.000 C 
ATOM     36  C   UNL     1      -5.123  12.425  21.110  0.00  0.00    +0.000 C 
ENDBRANCH  30  31
ENDBRANCH  29  30
ENDBRANCH  23  29
ENDBRANCH  22  23
ENDBRANCH   4  22
TORSDOF 9
ENDMDL
MODEL 7
REMARK VINA RESULT:      -6.5      1.161      1.834
REMARK  Name = 
REMARK  12 active torsions:
REMARK  status: ('A' for Active; 'I' for Inactive)
REMARK    1  A    between atoms: C_1  and  O_2
REMARK    2  A    between atoms: O_2  and  C_3
REMARK    3  A    between atoms: C_7  and  C_8
REMARK    4  A    between atoms: C_11  and  C_13
REMARK    5  A    between atoms: C_13  and  N_14
REMARK    6  A    between atoms: N_14  and  C_15
REMARK    7  A    between atoms: C_15  and  C_16
REMARK    8  A    between atoms: C_16  and  N_17
REMARK    9  A    between atoms: C_23  and  C_25
REMARK   10  A    between atoms: C_25  and  C_26
REMARK   11  A    between atoms: C_25  and  C_27
REMARK   12  A    between atoms: C_28  and  C_29
REMARK                            x       y       z     vdW  Elec       q    Type
REMARK                         _______ _______ _______ _____ _____    ______ ____
ROOT
ATOM      1  C   UNL     1      -1.266  10.899  18.715  0.00  0.00    +0.000 C 
ATOM      2  N   UNL     1      -0.226  11.592  18.385  0.00  0.00    +0.000 NA
ATOM      3  N   UNL     1       0.686  11.437  19.386  0.00  0.00    +0.000 N 
ATOM      4  C   UNL     1       1.521  12.487  19.736  0.00  0.00    +0.000 C 
ATOM      5  O   UNL     1       2.245  12.449  20.737  0.00  0.00    +0.000 OA
ATOM      6  C   UNL     1       0.355  10.306  20.266  0.00  0.00    +0.000 C 
ATOM      7  C   UNL     1      -1.151  10.169  20.031  0.00  0.00    +0.000 C 
ENDROOT
BRANCH   1  12
ATOM      8  C   UNL     1      -3.637  11.022  15.794  0.00  0.00    +0.000 A 
ATOM      9  C   UNL     1      -4.754  11.604  16.404  0.00  0.00    +0.000 A 
ATOM     10  C   UNL     1      -4.767  11.860  17.777  0.00  0.00    +0.000 A 
ATOM     11  C   UNL     1      -3.661  11.526  18.557  0.00  0.00    +0.000 A 
ATOM     12  C   UNL     1      -2.530  10.965  17.949  0.00  0.00    +0.000 A 
ATOM     13  C   UNL     1      -2.518  10.706  16.570  0.00  0.00    +0.000 A 
BRANCH   8  15
ATOM     14  C   UNL     1      -3.066   9.810  13.825  0.00  0.00    +0.000 C 
ATOM     15  O   UNL     1      -3.738  10.906  14.433  0.00  0.00    +0.000 OA
ENDBRANCH   8  15
ENDBRANCH   1  12
BRANCH   6  16
ATOM     16  C   UNL     1       1.193   9.070  19.950  0.00  0.00    +0.000 A 
ATOM     17  C   UNL     1       1.789   8.958  18.681  0.00  0.00    +0.000 A 
ATOM     18  C   UNL     1       2.508   7.817  18.316  0.00  0.00    +0.000 A 
ATOM     19  C   UNL     1       2.652   6.763  19.217  0.00  0.00    +0.000 A 
ATOM     20  C   UNL     1       2.092   6.863  20.487  0.00  0.00    +0.000 A 
ATOM     21  C   UNL     1       1.367   8.004  20.851  0.00  0.00    +0.000 A 
ENDBRANCH   6  16
BRANCH   4  22
ATOM     22  C   UNL     1       1.497  13.748  18.826  0.00  0.00    +0.000 C 
BRANCH  22  23
ATOM     23  N   UNL     1       0.644  14.906  19.212  0.00  0.00    +0.000 N 
ATOM     24  C   UNL     1       1.001  16.184  18.748  0.00  0.00    +0.000 C 
ATOM     25  O   UNL     1       2.108  16.421  18.257  0.00  0.00    +0.000 OA
BRANCH  24  26
ATOM     26  C   UNL     1       0.010  17.347  18.967  0.00  0.00    +0.000 C 
ATOM     27  C   UNL     1       0.784  18.549  19.504  0.00  0.00    +0.000 C 
ATOM     28  C   UNL     1      -0.722  17.757  17.712  0.00  0.00    +0.000 C 
ENDBRANCH  24  26
BRANCH  23  29
ATOM     29  C   UNL     1      -0.619  14.681  19.924  0.00  0.00    +0.000 C 
BRANCH  29  30
ATOM     30  C   UNL     1      -0.648  14.838  21.454  0.00  0.00    +0.000 C 
BRANCH  30  31
ATOM     31  N   UNL     1      -1.163  13.617  22.119  0.00  0.00    +0.000 NA
ATOM     32  C   UNL     1      -2.470  13.130  21.609  0.00  0.00    +0.000 C 
ATOM     33  C   UNL     1      -3.678  13.979  22.040  0.00  0.00    +0.000 C 
ATOM     34  O   UNL     1      -3.743  14.089  23.465  0.00  0.00    +0.000 OA
ATOM     35  C   UNL     1      -2.530  14.651  23.984  0.00  0.00    +0.000 C 
ATOM     36  C   UNL     1      -1.302  13.818  23.578  0.00  0.00    +0.000 C 
ENDBRANCH  30  31
ENDBRANCH  29  30
ENDBRANCH  23  29
ENDBRANCH  22  23
ENDBRANCH   4  22
TORSDOF 9
ENDMDL
MODEL 8
REMARK VINA RESULT:      -6.5      1.142      1.251
REMARK  Name = 
REMARK  12 active torsions:
REMARK  status: ('A' for Active; 'I' for Inactive)
REMARK    1  A    between atoms: C_1  and  O_2
REMARK    2  A    between atoms: O_2  and  C_3
REMARK    3  A    between atoms: C_7  and  C_8
REMARK    4  A    between atoms: C_11  and  C_13
REMARK    5  A    between atoms: C_13  and  N_14
REMARK    6  A    between atoms: N_14  and  C_15
REMARK    7  A    between atoms: C_15  and  C_16
REMARK    8  A    between atoms: C_16  and  N_17
REMARK    9  A    between atoms: C_23  and  C_25
REMARK   10  A    between atoms: C_25  and  C_26
REMARK   11  A    between atoms: C_25  and  C_27
REMARK   12  A    between atoms: C_28  and  C_29
REMARK                            x       y       z     vdW  Elec       q    Type
REMARK                         _______ _______ _______ _____ _____    ______ ____
ROOT
ATOM      1  C   UNL     1      -1.218  11.003  18.379  0.00  0.00    +0.000 C 
ATOM      2  N   UNL     1      -0.223  11.826  18.417  0.00  0.00    +0.000 NA
ATOM      3  N   UNL     1       0.548  11.469  19.483  0.00  0.00    +0.000 N 
ATOM      4  C   UNL     1       1.204  12.439  20.224  0.00  0.00    +0.000 C 
ATOM      5  O   UNL     1       1.777  12.181  21.289  0.00  0.00    +0.000 OA
ATOM      6  C   UNL     1       0.217  10.123  19.977  0.00  0.00    +0.000 C 
ATOM      7  C   UNL     1      -1.216   9.955  19.466  0.00  0.00    +0.000 C 
ENDROOT
BRANCH   1  12
ATOM      8  C   UNL     1      -4.740  11.523  17.158  0.00  0.00    +0.000 A 
ATOM      9  C   UNL     1      -4.629  11.024  15.856  0.00  0.00    +0.000 A 
ATOM     10  C   UNL     1      -3.393  10.617  15.349  0.00  0.00    +0.000 A 
ATOM     11  C   UNL     1      -2.250  10.713  16.142  0.00  0.00    +0.000 A 
ATOM     12  C   UNL     1      -2.358  11.188  17.455  0.00  0.00    +0.000 A 
ATOM     13  C   UNL     1      -3.600  11.600  17.963  0.00  0.00    +0.000 A 
BRANCH   8  15
ATOM     14  C   UNL     1      -6.550  13.071  17.159  0.00  0.00    +0.000 C 
ATOM     15  O   UNL     1      -6.024  11.805  17.542  0.00  0.00    +0.000 OA
ENDBRANCH   8  15
ENDBRANCH   1  12
BRANCH   6  16
ATOM     16  C   UNL     1       1.220   9.076  19.502  0.00  0.00    +0.000 A 
ATOM     17  C   UNL     1       1.799   9.217  18.228  0.00  0.00    +0.000 A 
ATOM     18  C   UNL     1       2.670   8.251  17.717  0.00  0.00    +0.000 A 
ATOM     19  C   UNL     1       2.986   7.124  18.473  0.00  0.00    +0.000 A 
ATOM     20  C   UNL     1       2.444   6.976  19.746  0.00  0.00    +0.000 A 
ATOM     21  C   UNL     1       1.567   7.941  20.257  0.00  0.00    +0.000 A 
ENDBRANCH   6  16
BRANCH   4  22
ATOM     22  C   UNL     1       1.176  13.894  19.674  0.00  0.00    +0.000 C 
BRANCH  22  23
ATOM     23  N   UNL     1       0.327  14.910  20.355  0.00  0.00    +0.000 N 
ATOM     24  C   UNL     1       0.857  16.195  20.560  0.00  0.00    +0.000 C 
ATOM     25  O   UNL     1       2.060  16.439  20.433  0.00  0.00    +0.000 OA
BRANCH  24  26
ATOM     26  C   UNL     1      -0.086  17.306  21.068  0.00  0.00    +0.000 C 
ATOM     27  C   UNL     1       0.354  17.711  22.474  0.00  0.00    +0.000 C 
ATOM     28  C   UNL     1      -0.101  18.532  20.188  0.00  0.00    +0.000 C 
ENDBRANCH  24  26
BRANCH  23  29
ATOM     29  C   UNL     1      -1.079  14.611  20.651  0.00  0.00    +0.000 C 
BRANCH  29  30
ATOM     30  C   UNL     1      -1.428  13.936  21.989  0.00  0.00    +0.000 C 
BRANCH  30  31
ATOM     31  N   UNL     1      -2.076  12.619  21.783  0.00  0.00    +0.000 NA
ATOM     32  C   UNL     1      -3.402  12.670  21.115  0.00  0.00    +0.000 C 
ATOM     33  C   UNL     1      -4.543  13.189  22.006  0.00  0.00    +0.000 C 
ATOM     34  O   UNL     1      -4.651  12.412  23.204  0.00  0.00    +0.000 OA
ATOM     35  C   UNL     1      -3.412  12.423  23.926  0.00  0.00    +0.000 C 
ATOM     36  C   UNL     1      -2.250  11.900  23.065  0.00  0.00    +0.000 C 
ENDBRANCH  30  31
ENDBRANCH  29  30
ENDBRANCH  23  29
ENDBRANCH  22  23
ENDBRANCH   4  22
TORSDOF 9
ENDMDL
MODEL 9
REMARK VINA RESULT:      -6.3      1.462      2.370
REMARK  Name = 
REMARK  12 active torsions:
REMARK  status: ('A' for Active; 'I' for Inactive)
REMARK    1  A    between atoms: C_1  and  O_2
REMARK    2  A    between atoms: O_2  and  C_3
REMARK    3  A    between atoms: C_7  and  C_8
REMARK    4  A    between atoms: C_11  and  C_13
REMARK    5  A    between atoms: C_13  and  N_14
REMARK    6  A    between atoms: N_14  and  C_15
REMARK    7  A    between atoms: C_15  and  C_16
REMARK    8  A    between atoms: C_16  and  N_17
REMARK    9  A    between atoms: C_23  and  C_25
REMARK   10  A    between atoms: C_25  and  C_26
REMARK   11  A    between atoms: C_25  and  C_27
REMARK   12  A    between atoms: C_28  and  C_29
REMARK                            x       y       z     vdW  Elec       q    Type
REMARK                         _______ _______ _______ _____ _____    ______ ____
ROOT
ATOM      1  C   UNL     1      -1.267  10.695  18.711  0.00  0.00    +0.000 C 
ATOM      2  N   UNL     1      -0.322  11.554  18.512  0.00  0.00    +0.000 NA
ATOM      3  N   UNL     1       0.662  11.276  19.413  0.00  0.00    +0.000 N 
ATOM      4  C   UNL     1       1.411  12.303  19.967  0.00  0.00    +0.000 C 
ATOM      5  O   UNL     1       2.197  12.117  20.902  0.00  0.00    +0.000 OA
ATOM      6  C   UNL     1       0.497   9.945  20.018  0.00  0.00    +0.000 C 
ATOM      7  C   UNL     1      -1.001   9.703  19.816  0.00  0.00    +0.000 C 
ENDROOT
BRANCH   1  12
ATOM      8  C   UNL     1      -3.865  10.573  15.990  0.00  0.00    +0.000 A 
ATOM      9  C   UNL     1      -4.827  11.437  16.525  0.00  0.00    +0.000 A 
ATOM     10  C   UNL     1      -4.675  11.972  17.805  0.00  0.00    +0.000 A 
ATOM     11  C   UNL     1      -3.556  11.641  18.569  0.00  0.00    +0.000 A 
ATOM     12  C   UNL     1      -2.577  10.797  18.031  0.00  0.00    +0.000 A 
ATOM     13  C   UNL     1      -2.732  10.256  16.745  0.00  0.00    +0.000 A 
BRANCH   8  15
ATOM     14  C   UNL     1      -2.979   9.967  13.864  0.00  0.00    +0.000 C 
ATOM     15  O   UNL     1      -4.110  10.193  14.698  0.00  0.00    +0.000 OA
ENDBRANCH   8  15
ENDBRANCH   1  12
BRANCH   6  16
ATOM     16  C   UNL     1       1.429   8.912  19.392  0.00  0.00    +0.000 A 
ATOM     17  C   UNL     1       1.751   7.754  20.123  0.00  0.00    +0.000 A 
ATOM     18  C   UNL     1       2.653   6.810  19.625  0.00  0.00    +0.000 A 
ATOM     19  C   UNL     1       3.251   7.002  18.381  0.00  0.00    +0.000 A 
ATOM     20  C   UNL     1       2.929   8.128  17.630  0.00  0.00    +0.000 A 
ATOM     21  C   UNL     1       2.028   9.076  18.130  0.00  0.00    +0.000 A 
ENDBRANCH   6  16
BRANCH   4  22
ATOM     22  C   UNL     1       1.209  13.728  19.375  0.00  0.00    +0.000 C 
BRANCH  22  23
ATOM     23  N   UNL     1       0.405  14.722  20.139  0.00  0.00    +0.000 N 
ATOM     24  C   UNL     1       1.059  15.851  20.661  0.00  0.00    +0.000 C 
ATOM     25  O   UNL     1       2.289  15.924  20.734  0.00  0.00    +0.000 OA
BRANCH  24  26
ATOM     26  C   UNL     1       0.201  16.983  21.264  0.00  0.00    +0.000 C 
ATOM     27  C   UNL     1       0.298  16.907  22.787  0.00  0.00    +0.000 C 
ATOM     28  C   UNL     1       0.622  18.361  20.815  0.00  0.00    +0.000 C 
ENDBRANCH  24  26
BRANCH  23  29
ATOM     29  C   UNL     1      -1.056  14.595  20.195  0.00  0.00    +0.000 C 
BRANCH  29  30
ATOM     30  C   UNL     1      -1.676  13.592  21.183  0.00  0.00    +0.000 C 
BRANCH  30  31
ATOM     31  N   UNL     1      -2.593  14.260  22.136  0.00  0.00    +0.000 NA
ATOM     32  C   UNL     1      -2.580  13.704  23.513  0.00  0.00    +0.000 C 
ATOM     33  C   UNL     1      -3.282  12.343  23.658  0.00  0.00    +0.000 C 
ATOM     34  O   UNL     1      -4.634  12.414  23.194  0.00  0.00    +0.000 OA
ATOM     35  C   UNL     1      -4.678  12.854  21.830  0.00  0.00    +0.000 C 
ATOM     36  C   UNL     1      -3.992  14.219  21.653  0.00  0.00    +0.000 C 
ENDBRANCH  30  31
ENDBRANCH  29  30
ENDBRANCH  23  29
ENDBRANCH  22  23
ENDBRANCH   4  22
TORSDOF 9
ENDMDL
