MODEL 1
REMARK VINA RESULT:      -8.8      0.000      0.000
REMARK  Name = 
REMARK  12 active torsions:
REMARK  status: ('A' for Active; 'I' for Inactive)
REMARK    1  A    between atoms: C_1  and  C_2
REMARK    2  A    between atoms: C_2  and  C_3
REMARK    3  A    between atoms: C_5  and  C_6
REMARK    4  A    between atoms: C_6  and  C_7
REMARK    5  A    between atoms: C_9  and  O_10
REMARK    6  A    between atoms: C_12  and  O_13
REMARK    7  A    between atoms: O_13  and  C_14
REMARK    8  A    between atoms: C_14  and  C_15
REMARK    9  A    between atoms: C_19  and  C_20
REMARK   10  A    between atoms: C_27  and  C_28
REMARK   11  A    between atoms: C_28  and  C_29
REMARK   12  A    between atoms: C_29  and  O_31
REMARK                            x       y       z     vdW  Elec       q    Type
REMARK                         _______ _______ _______ _____ _____    ______ ____
ROOT
ATOM      1  C   UNL     1       2.378   6.813  19.329  0.00  0.00    +0.000 A 
ATOM      2  C   UNL     1       2.635   7.295  18.037  0.00  0.00    +0.000 A 
ATOM      3  C   UNL     1       2.257   8.593  17.701  0.00  0.00    +0.000 A 
ATOM      4  C   UNL     1       1.611   9.378  18.643  0.00  0.00    +0.000 A 
ATOM      5  C   UNL     1       1.357   8.818  19.891  0.00  0.00    +0.000 A 
ATOM      6  N   UNL     1       1.729   7.560  20.264  0.00  0.00    +0.000 NA
ENDROOT
BRANCH   5   7
ATOM      7  C   UNL     1       0.699   9.654  20.940  0.00  0.00    +0.000 C 
ATOM      8  O   UNL     1       0.895   9.495  22.131  0.00  0.00    +0.000 OA
ATOM      9  N   UNL     1      -0.236  10.619  20.457  0.00  0.00    +0.000 N 
ATOM     10  C   UNL     1      -0.996  11.457  21.233  0.00  0.00    +0.000 A 
ATOM     11  C   UNL     1      -0.762  11.744  22.585  0.00  0.00    +0.000 A 
ATOM     12  C   UNL     1      -1.624  12.574  23.300  0.00  0.00    +0.000 A 
ATOM     13  C   UNL     1      -2.707  13.170  22.669  0.00  0.00    +0.000 A 
ATOM     14  C   UNL     1      -2.929  12.947  21.307  0.00  0.00    +0.000 A 
ATOM     15  N   UNL     1      -2.105  12.067  20.602  0.00  0.00    +0.000 N 
ATOM     16  O   UNL     1      -2.397  11.755  19.381  0.00  0.00    +0.000 OA
ATOM     17  H   UNL     1      -0.455  10.628  19.458  0.00  0.00    +0.000 HD
BRANCH  14  18
ATOM     18  C   UNL     1      -4.070  13.580  20.563  0.00  0.00    +0.000 C 
BRANCH  18  19
ATOM     19  C   UNL     1      -5.336  12.756  20.639  0.00  0.00    +0.000 C 
ATOM     20  O   UNL     1      -6.157  12.867  21.532  0.00  0.00    +0.000 OA
BRANCH  19  21
ATOM     21  O   UNL     1      -5.463  11.869  19.628  0.00  0.00    +0.000 OA
ATOM     22  H   UNL     1      -5.412  12.285  18.725  0.00  0.00    +0.000 HD
ENDBRANCH  19  21
ENDBRANCH  18  19
ENDBRANCH  14  18
ENDBRANCH   5   7
BRANCH   1  23
ATOM     23  C   UNL     1       3.052   5.521  19.782  0.00  0.00    +0.000 C 
BRANCH  23  24
ATOM     24  O   UNL     1       4.471   5.488  19.616  0.00  0.00    +0.000 OA
BRANCH  24  30
ATOM     25  C   UNL     1       4.510   4.169  17.485  0.00  0.00    +0.000 A 
ATOM     26  C   UNL     1       5.104   4.052  16.200  0.00  0.00    +0.000 A 
ATOM     27  C   UNL     1       6.142   4.886  15.777  0.00  0.00    +0.000 A 
ATOM     28  C   UNL     1       6.598   5.857  16.673  0.00  0.00    +0.000 A 
ATOM     29  C   UNL     1       5.999   6.018  17.932  0.00  0.00    +0.000 A 
ATOM     30  C   UNL     1       4.929   5.205  18.344  0.00  0.00    +0.000 A 
BRANCH  27  31
ATOM     31  C   UNL     1       6.782   4.750  14.424  0.00  0.00    +0.000 C 
ATOM     32  C   UNL     1       6.245   3.810  13.372  0.00  0.00    +0.000 C 
ATOM     33  O   UNL     1       7.771   5.446  14.177  0.00  0.00    +0.000 OA
ENDBRANCH  27  31
BRANCH  25  35
ATOM     34  C   UNL     1       3.974   2.125  18.892  0.00  0.00    +0.000 C 
ATOM     35  C   UNL     1       3.491   3.102  17.825  0.00  0.00    +0.000 C 
ENDBRANCH  25  35
BRANCH  28  36
ATOM     36  O   UNL     1       7.646   6.697  16.395  0.00  0.00    +0.000 OA
ATOM     37  H   UNL     1       8.472   6.273  16.720  0.00  0.00    +0.000 HD
ENDBRANCH  28  36
ENDBRANCH  24  30
ENDBRANCH  23  24
ENDBRANCH   1  23
TORSDOF 10
ENDMDL
MODEL 2
REMARK VINA RESULT:      -8.7      2.158     10.702
REMARK  Name = 
REMARK  12 active torsions:
REMARK  status: ('A' for Active; 'I' for Inactive)
REMARK    1  A    between atoms: C_1  and  C_2
REMARK    2  A    between atoms: C_2  and  C_3
REMARK    3  A    between atoms: C_5  and  C_6
REMARK    4  A    between atoms: C_6  and  C_7
REMARK    5  A    between atoms: C_9  and  O_10
REMARK    6  A    between atoms: C_12  and  O_13
REMARK    7  A    between atoms: O_13  and  C_14
REMARK    8  A    between atoms: C_14  and  C_15
REMARK    9  A    between atoms: C_19  and  C_20
REMARK   10  A    between atoms: C_27  and  C_28
REMARK   11  A    between atoms: C_28  and  C_29
REMARK   12  A    between atoms: C_29  and  O_31
REMARK                            x       y       z     vdW  Elec       q    Type
REMARK                         _______ _______ _______ _____ _____    ______ ____
ROOT
ATOM      1  C   UNL     1       0.660  10.346  19.969  0.00  0.00    +0.000 A 
ATOM      2  C   UNL     1       0.532  10.698  21.320  0.00  0.00    +0.000 A 
ATOM      3  C   UNL     1       0.849   9.768  22.306  0.00  0.00    +0.000 A 
ATOM      4  C   UNL     1       1.263   8.498  21.934  0.00  0.00    +0.000 A 
ATOM      5  C   UNL     1       1.330   8.210  20.574  0.00  0.00    +0.000 A 
ATOM      6  N   UNL     1       1.047   9.099  19.580  0.00  0.00    +0.000 NA
ENDROOT
BRANCH   5   7
ATOM      7  C   UNL     1       1.812   6.863  20.143  0.00  0.00    +0.000 C 
ATOM      8  O   UNL     1       1.651   5.858  20.811  0.00  0.00    +0.000 OA
ATOM      9  N   UNL     1       2.537   6.837  18.913  0.00  0.00    +0.000 N 
ATOM     10  C   UNL     1       3.118   5.730  18.349  0.00  0.00    +0.000 A 
ATOM     11  C   UNL     1       2.833   4.401  18.692  0.00  0.00    +0.000 A 
ATOM     12  C   UNL     1       3.515   3.344  18.091  0.00  0.00    +0.000 A 
ATOM     13  C   UNL     1       4.459   3.590  17.103  0.00  0.00    +0.000 A 
ATOM     14  C   UNL     1       4.719   4.903  16.701  0.00  0.00    +0.000 A 
ATOM     15  N   UNL     1       4.084   5.968  17.344  0.00  0.00    +0.000 N 
ATOM     16  O   UNL     1       4.431   7.183  17.066  0.00  0.00    +0.000 OA
ATOM     17  H   UNL     1       2.750   7.725  18.454  0.00  0.00    +0.000 HD
BRANCH  14  18
ATOM     18  C   UNL     1       5.712   5.232  15.624  0.00  0.00    +0.000 C 
BRANCH  18  19
ATOM     19  C   UNL     1       7.119   5.374  16.159  0.00  0.00    +0.000 C 
ATOM     20  O   UNL     1       7.865   4.429  16.348  0.00  0.00    +0.000 OA
BRANCH  19  21
ATOM     21  O   UNL     1       7.468   6.652  16.427  0.00  0.00    +0.000 OA
ATOM     22  H   UNL     1       7.715   7.175  15.617  0.00  0.00    +0.000 HD
ENDBRANCH  19  21
ENDBRANCH  18  19
ENDBRANCH  14  18
ENDBRANCH   5   7
BRANCH   1  23
ATOM     23  C   UNL     1       0.603  11.444  18.910  0.00  0.00    +0.000 C 
BRANCH  23  24
ATOM     24  O   UNL     1      -0.238  12.552  19.233  0.00  0.00    +0.000 OA
BRANCH  24  30
ATOM     25  C   UNL     1      -2.619  12.558  20.017  0.00  0.00    +0.000 A 
ATOM     26  C   UNL     1      -3.967  12.305  19.646  0.00  0.00    +0.000 A 
ATOM     27  C   UNL     1      -4.314  11.795  18.393  0.00  0.00    +0.000 A 
ATOM     28  C   UNL     1      -3.279  11.526  17.494  0.00  0.00    +0.000 A 
ATOM     29  C   UNL     1      -1.943  11.806  17.823  0.00  0.00    +0.000 A 
ATOM     30  C   UNL     1      -1.595  12.355  19.069  0.00  0.00    +0.000 A 
BRANCH  27  31
ATOM     31  C   UNL     1      -5.738  11.512  18.007  0.00  0.00    +0.000 C 
ATOM     32  C   UNL     1      -6.592  10.517  18.757  0.00  0.00    +0.000 C 
ATOM     33  O   UNL     1      -6.215  12.129  17.050  0.00  0.00    +0.000 OA
ENDBRANCH  27  31
BRANCH  25  35
ATOM     34  C   UNL     1      -3.092  14.309  21.794  0.00  0.00    +0.000 C 
ATOM     35  C   UNL     1      -2.414  12.985  21.455  0.00  0.00    +0.000 C 
ENDBRANCH  25  35
BRANCH  28  36
ATOM     36  O   UNL     1      -3.488  10.973  16.255  0.00  0.00    +0.000 OA
ATOM     37  H   UNL     1      -2.610  10.807  15.844  0.00  0.00    +0.000 HD
ENDBRANCH  28  36
ENDBRANCH  24  30
ENDBRANCH  23  24
ENDBRANCH   1  23
TORSDOF 10
ENDMDL
MODEL 3
REMARK VINA RESULT:      -8.7      0.977      1.189
REMARK  Name = 
REMARK  12 active torsions:
REMARK  status: ('A' for Active; 'I' for Inactive)
REMARK    1  A    between atoms: C_1  and  C_2
REMARK    2  A    between atoms: C_2  and  C_3
REMARK    3  A    between atoms: C_5  and  C_6
REMARK    4  A    between atoms: C_6  and  C_7
REMARK    5  A    between atoms: C_9  and  O_10
REMARK    6  A    between atoms: C_12  and  O_13
REMARK    7  A    between atoms: O_13  and  C_14
REMARK    8  A    between atoms: C_14  and  C_15
REMARK    9  A    between atoms: C_19  and  C_20
REMARK   10  A    between atoms: C_27  and  C_28
REMARK   11  A    between atoms: C_28  and  C_29
REMARK   12  A    between atoms: C_29  and  O_31
REMARK                            x       y       z     vdW  Elec       q    Type
REMARK                         _______ _______ _______ _____ _____    ______ ____
ROOT
ATOM      1  C   UNL     1       2.589   6.489  19.356  0.00  0.00    +0.000 A 
ATOM      2  C   UNL     1       2.834   7.002  18.074  0.00  0.00    +0.000 A 
ATOM      3  C   UNL     1       2.398   8.285  17.752  0.00  0.00    +0.000 A 
ATOM      4  C   UNL     1       1.705   9.024  18.698  0.00  0.00    +0.000 A 
ATOM      5  C   UNL     1       1.467   8.435  19.935  0.00  0.00    +0.000 A 
ATOM      6  N   UNL     1       1.895   7.191  20.295  0.00  0.00    +0.000 NA
ENDROOT
BRANCH   5   7
ATOM      7  C   UNL     1       0.759   9.222  20.989  0.00  0.00    +0.000 C 
ATOM      8  O   UNL     1       0.833   8.956  22.175  0.00  0.00    +0.000 OA
ATOM      9  N   UNL     1      -0.071  10.281  20.509  0.00  0.00    +0.000 N 
ATOM     10  C   UNL     1      -0.854  11.099  21.283  0.00  0.00    +0.000 A 
ATOM     11  C   UNL     1      -0.734  11.260  22.670  0.00  0.00    +0.000 A 
ATOM     12  C   UNL     1      -1.614  12.082  23.374  0.00  0.00    +0.000 A 
ATOM     13  C   UNL     1      -2.598  12.794  22.702  0.00  0.00    +0.000 A 
ATOM     14  C   UNL     1      -2.701  12.695  21.311  0.00  0.00    +0.000 A 
ATOM     15  N   UNL     1      -1.863  11.826  20.610  0.00  0.00    +0.000 N 
ATOM     16  O   UNL     1      -2.055  11.632  19.345  0.00  0.00    +0.000 OA
ATOM     17  H   UNL     1      -0.194  10.384  19.500  0.00  0.00    +0.000 HD
BRANCH  14  18
ATOM     18  C   UNL     1      -3.730  13.457  20.525  0.00  0.00    +0.000 C 
BRANCH  18  19
ATOM     19  C   UNL     1      -3.748  14.928  20.872  0.00  0.00    +0.000 C 
ATOM     20  O   UNL     1      -4.557  15.431  21.630  0.00  0.00    +0.000 OA
BRANCH  19  21
ATOM     21  O   UNL     1      -2.786  15.642  20.244  0.00  0.00    +0.000 OA
ATOM     22  H   UNL     1      -2.442  16.405  20.781  0.00  0.00    +0.000 HD
ENDBRANCH  19  21
ENDBRANCH  18  19
ENDBRANCH  14  18
ENDBRANCH   5   7
BRANCH   1  23
ATOM     23  C   UNL     1       3.320   5.224  19.798  0.00  0.00    +0.000 C 
BRANCH  23  24
ATOM     24  O   UNL     1       4.734   5.241  19.593  0.00  0.00    +0.000 OA
BRANCH  24  30
ATOM     25  C   UNL     1       4.774   3.976  17.430  0.00  0.00    +0.000 A 
ATOM     26  C   UNL     1       5.332   3.921  16.124  0.00  0.00    +0.000 A 
ATOM     27  C   UNL     1       6.310   4.819  15.690  0.00  0.00    +0.000 A 
ATOM     28  C   UNL     1       6.742   5.792  16.596  0.00  0.00    +0.000 A 
ATOM     29  C   UNL     1       6.177   5.891  17.877  0.00  0.00    +0.000 A 
ATOM     30  C   UNL     1       5.165   5.012  18.301  0.00  0.00    +0.000 A 
BRANCH  27  31
ATOM     31  C   UNL     1       6.912   4.750  14.316  0.00  0.00    +0.000 C 
ATOM     32  C   UNL     1       6.369   3.833  13.245  0.00  0.00    +0.000 C 
ATOM     33  O   UNL     1       7.874   5.482  14.065  0.00  0.00    +0.000 OA
ENDBRANCH  27  31
BRANCH  25  35
ATOM     34  C   UNL     1       2.421   3.048  17.211  0.00  0.00    +0.000 C 
ATOM     35  C   UNL     1       3.824   2.848  17.774  0.00  0.00    +0.000 C 
ENDBRANCH  25  35
BRANCH  28  36
ATOM     36  O   UNL     1       7.735   6.694  16.307  0.00  0.00    +0.000 OA
ATOM     37  H   UNL     1       8.120   7.006  17.157  0.00  0.00    +0.000 HD
ENDBRANCH  28  36
ENDBRANCH  24  30
ENDBRANCH  23  24
ENDBRANCH   1  23
TORSDOF 10
ENDMDL
MODEL 4
REMARK VINA RESULT:      -8.6      2.824     10.840
REMARK  Name = 
REMARK  12 active torsions:
REMARK  status: ('A' for Active; 'I' for Inactive)
REMARK    1  A    between atoms: C_1  and  C_2
REMARK    2  A    between atoms: C_2  and  C_3
REMARK    3  A    between atoms: C_5  and  C_6
REMARK    4  A    between atoms: C_6  and  C_7
REMARK    5  A    between atoms: C_9  and  O_10
REMARK    6  A    between atoms: C_12  and  O_13
REMARK    7  A    between atoms: O_13  and  C_14
REMARK    8  A    between atoms: C_14  and  C_15
REMARK    9  A    between atoms: C_19  and  C_20
REMARK   10  A    between atoms: C_27  and  C_28
REMARK   11  A    between atoms: C_28  and  C_29
REMARK   12  A    between atoms: C_29  and  O_31
REMARK                            x       y       z     vdW  Elec       q    Type
REMARK                         _______ _______ _______ _____ _____    ______ ____
ROOT
ATOM      1  C   UNL     1       0.049  10.252  20.040  0.00  0.00    +0.000 A 
ATOM      2  C   UNL     1       0.170  10.760  21.340  0.00  0.00    +0.000 A 
ATOM      3  C   UNL     1       0.845  10.021  22.308  0.00  0.00    +0.000 A 
ATOM      4  C   UNL     1       1.366   8.780  21.973  0.00  0.00    +0.000 A 
ATOM      5  C   UNL     1       1.174   8.325  20.672  0.00  0.00    +0.000 A 
ATOM      6  N   UNL     1       0.536   9.028  19.693  0.00  0.00    +0.000 NA
ENDROOT
BRANCH   5   7
ATOM      7  C   UNL     1       1.759   7.010  20.271  0.00  0.00    +0.000 C 
ATOM      8  O   UNL     1       1.717   6.024  20.984  0.00  0.00    +0.000 OA
ATOM      9  N   UNL     1       2.434   6.997  19.013  0.00  0.00    +0.000 N 
ATOM     10  C   UNL     1       3.090   5.924  18.466  0.00  0.00    +0.000 A 
ATOM     11  C   UNL     1       2.941   4.591  18.872  0.00  0.00    +0.000 A 
ATOM     12  C   UNL     1       3.692   3.575  18.282  0.00  0.00    +0.000 A 
ATOM     13  C   UNL     1       4.570   3.863  17.246  0.00  0.00    +0.000 A 
ATOM     14  C   UNL     1       4.693   5.176  16.783  0.00  0.00    +0.000 A 
ATOM     15  N   UNL     1       3.989   6.206  17.412  0.00  0.00    +0.000 N 
ATOM     16  O   UNL     1       4.212   7.434  17.074  0.00  0.00    +0.000 OA
ATOM     17  H   UNL     1       2.546   7.881  18.511  0.00  0.00    +0.000 HD
BRANCH  14  18
ATOM     18  C   UNL     1       5.608   5.548  15.652  0.00  0.00    +0.000 C 
BRANCH  18  19
ATOM     19  C   UNL     1       6.737   4.558  15.474  0.00  0.00    +0.000 C 
ATOM     20  O   UNL     1       7.775   4.600  16.110  0.00  0.00    +0.000 OA
BRANCH  19  21
ATOM     21  O   UNL     1       6.493   3.627  14.525  0.00  0.00    +0.000 OA
ATOM     22  H   UNL     1       7.012   3.767  13.687  0.00  0.00    +0.000 HD
ENDBRANCH  19  21
ENDBRANCH  18  19
ENDBRANCH  14  18
ENDBRANCH   5   7
BRANCH   1  23
ATOM     23  C   UNL     1      -0.420  11.181  18.923  0.00  0.00    +0.000 C 
BRANCH  23  24
ATOM     24  O   UNL     1      -1.177  10.550  17.889  0.00  0.00    +0.000 OA
BRANCH  24  30
ATOM     25  C   UNL     1      -3.247  11.002  16.550  0.00  0.00    +0.000 A 
ATOM     26  C   UNL     1      -4.581  11.490  16.598  0.00  0.00    +0.000 A 
ATOM     27  C   UNL     1      -5.140  12.024  17.762  0.00  0.00    +0.000 A 
ATOM     28  C   UNL     1      -4.334  12.076  18.902  0.00  0.00    +0.000 A 
ATOM     29  C   UNL     1      -3.027  11.563  18.890  0.00  0.00    +0.000 A 
ATOM     30  C   UNL     1      -2.477  10.989  17.731  0.00  0.00    +0.000 A 
BRANCH  27  31
ATOM     31  C   UNL     1      -6.544  12.556  17.808  0.00  0.00    +0.000 C 
ATOM     32  C   UNL     1      -7.016  13.660  16.892  0.00  0.00    +0.000 C 
ATOM     33  O   UNL     1      -7.329  12.055  18.618  0.00  0.00    +0.000 OA
ENDBRANCH  27  31
BRANCH  25  35
ATOM     34  C   UNL     1      -3.872  10.018  14.295  0.00  0.00    +0.000 C 
ATOM     35  C   UNL     1      -2.763  10.580  15.179  0.00  0.00    +0.000 C 
ENDBRANCH  25  35
BRANCH  28  36
ATOM     36  O   UNL     1      -4.750  12.628  20.088  0.00  0.00    +0.000 OA
ATOM     37  H   UNL     1      -4.765  13.605  19.981  0.00  0.00    +0.000 HD
ENDBRANCH  28  36
ENDBRANCH  24  30
ENDBRANCH  23  24
ENDBRANCH   1  23
TORSDOF 10
ENDMDL
MODEL 5
REMARK VINA RESULT:      -8.6      1.309      1.588
REMARK  Name = 
REMARK  12 active torsions:
REMARK  status: ('A' for Active; 'I' for Inactive)
REMARK    1  A    between atoms: C_1  and  C_2
REMARK    2  A    between atoms: C_2  and  C_3
REMARK    3  A    between atoms: C_5  and  C_6
REMARK    4  A    between atoms: C_6  and  C_7
REMARK    5  A    between atoms: C_9  and  O_10
REMARK    6  A    between atoms: C_12  and  O_13
REMARK    7  A    between atoms: O_13  and  C_14
REMARK    8  A    between atoms: C_14  and  C_15
REMARK    9  A    between atoms: C_19  and  C_20
REMARK   10  A    between atoms: C_27  and  C_28
REMARK   11  A    between atoms: C_28  and  C_29
REMARK   12  A    between atoms: C_29  and  O_31
REMARK                            x       y       z     vdW  Elec       q    Type
REMARK                         _______ _______ _______ _____ _____    ______ ____
ROOT
ATOM      1  C   UNL     1       1.740   8.331  19.242  0.00  0.00    +0.000 A 
ATOM      2  C   UNL     1       1.850   8.918  17.973  0.00  0.00    +0.000 A 
ATOM      3  C   UNL     1       1.312  10.183  17.752  0.00  0.00    +0.000 A 
ATOM      4  C   UNL     1       0.653  10.830  18.785  0.00  0.00    +0.000 A 
ATOM      5  C   UNL     1       0.550  10.169  20.005  0.00  0.00    +0.000 A 
ATOM      6  N   UNL     1       1.081   8.941  20.266  0.00  0.00    +0.000 NA
ENDROOT
BRANCH   5   7
ATOM      7  C   UNL     1      -0.119  10.859  21.149  0.00  0.00    +0.000 C 
ATOM      8  O   UNL     1       0.248  10.733  22.303  0.00  0.00    +0.000 OA
ATOM      9  N   UNL     1      -1.270  11.634  20.809  0.00  0.00    +0.000 N 
ATOM     10  C   UNL     1      -2.072  12.308  21.694  0.00  0.00    +0.000 A 
ATOM     11  C   UNL     1      -1.732  12.626  23.017  0.00  0.00    +0.000 A 
ATOM     12  C   UNL     1      -2.640  13.274  23.853  0.00  0.00    +0.000 A 
ATOM     13  C   UNL     1      -3.884  13.658  23.374  0.00  0.00    +0.000 A 
ATOM     14  C   UNL     1      -4.225  13.405  22.042  0.00  0.00    +0.000 A 
ATOM     15  N   UNL     1      -3.344  12.702  21.218  0.00  0.00    +0.000 N 
ATOM     16  O   UNL     1      -3.720  12.348  20.032  0.00  0.00    +0.000 OA
ATOM     17  H   UNL     1      -1.608  11.607  19.845  0.00  0.00    +0.000 HD
BRANCH  14  18
ATOM     18  C   UNL     1      -5.546  13.816  21.458  0.00  0.00    +0.000 C 
BRANCH  18  19
ATOM     19  C   UNL     1      -6.557  12.692  21.470  0.00  0.00    +0.000 C 
ATOM     20  O   UNL     1      -7.215  12.369  20.497  0.00  0.00    +0.000 OA
BRANCH  19  21
ATOM     21  O   UNL     1      -6.675  12.086  22.672  0.00  0.00    +0.000 OA
ATOM     22  H   UNL     1      -6.020  12.410  23.347  0.00  0.00    +0.000 HD
ENDBRANCH  19  21
ENDBRANCH  18  19
ENDBRANCH  14  18
ENDBRANCH   5   7
BRANCH   1  23
ATOM     23  C   UNL     1       2.579   7.096  19.561  0.00  0.00    +0.000 C 
BRANCH  23  24
ATOM     24  O   UNL     1       2.239   5.925  18.817  0.00  0.00    +0.000 OA
BRANCH  24  30
ATOM     25  C   UNL     1       3.329   4.154  17.418  0.00  0.00    +0.000 A 
ATOM     26  C   UNL     1       4.394   3.871  16.521  0.00  0.00    +0.000 A 
ATOM     27  C   UNL     1       5.366   4.819  16.191  0.00  0.00    +0.000 A 
ATOM     28  C   UNL     1       5.268   6.080  16.786  0.00  0.00    +0.000 A 
ATOM     29  C   UNL     1       4.202   6.395  17.644  0.00  0.00    +0.000 A 
ATOM     30  C   UNL     1       3.202   5.455  17.946  0.00  0.00    +0.000 A 
BRANCH  27  31
ATOM     31  C   UNL     1       6.501   4.515  15.256  0.00  0.00    +0.000 C 
ATOM     32  C   UNL     1       6.274   3.966  13.868  0.00  0.00    +0.000 C 
ATOM     33  O   UNL     1       7.651   4.738  15.646  0.00  0.00    +0.000 OA
ENDBRANCH  27  31
BRANCH  25  35
ATOM     34  C   UNL     1       3.228   1.705  18.080  0.00  0.00    +0.000 C 
ATOM     35  C   UNL     1       2.444   2.975  17.762  0.00  0.00    +0.000 C 
ENDBRANCH  25  35
BRANCH  28  36
ATOM     36  O   UNL     1       6.190   7.076  16.586  0.00  0.00    +0.000 OA
ATOM     37  H   UNL     1       5.744   7.815  16.115  0.00  0.00    +0.000 HD
ENDBRANCH  28  36
ENDBRANCH  24  30
ENDBRANCH  23  24
ENDBRANCH   1  23
TORSDOF 10
ENDMDL
MODEL 6
REMARK VINA RESULT:      -8.4      3.883     10.695
REMARK  Name = 
REMARK  12 active torsions:
REMARK  status: ('A' for Active; 'I' for Inactive)
REMARK    1  A    between atoms: C_1  and  C_2
REMARK    2  A    between atoms: C_2  and  C_3
REMARK    3  A    between atoms: C_5  and  C_6
REMARK    4  A    between atoms: C_6  and  C_7
REMARK    5  A    between atoms: C_9  and  O_10
REMARK    6  A    between atoms: C_12  and  O_13
REMARK    7  A    between atoms: O_13  and  C_14
REMARK    8  A    between atoms: C_14  and  C_15
REMARK    9  A    between atoms: C_19  and  C_20
REMARK   10  A    between atoms: C_27  and  C_28
REMARK   11  A    between atoms: C_28  and  C_29
REMARK   12  A    between atoms: C_29  and  O_31
REMARK                            x       y       z     vdW  Elec       q    Type
REMARK                         _______ _______ _______ _____ _____    ______ ____
ROOT
ATOM      1  C   UNL     1       0.791  10.452  19.807  0.00  0.00    +0.000 A 
ATOM      2  C   UNL     1       0.528  10.815  21.135  0.00  0.00    +0.000 A 
ATOM      3  C   UNL     1       0.715   9.882  22.153  0.00  0.00    +0.000 A 
ATOM      4  C   UNL     1       1.134   8.601  21.830  0.00  0.00    +0.000 A 
ATOM      5  C   UNL     1       1.339   8.303  20.487  0.00  0.00    +0.000 A 
ATOM      6  N   UNL     1       1.186   9.194  19.466  0.00  0.00    +0.000 NA
ENDROOT
BRANCH   5   7
ATOM      7  C   UNL     1       1.830   6.942  20.113  0.00  0.00    +0.000 C 
ATOM      8  O   UNL     1       1.685   5.968  20.828  0.00  0.00    +0.000 OA
ATOM      9  N   UNL     1       2.545   6.867  18.879  0.00  0.00    +0.000 N 
ATOM     10  C   UNL     1       3.131   5.740  18.361  0.00  0.00    +0.000 A 
ATOM     11  C   UNL     1       2.862   4.426  18.768  0.00  0.00    +0.000 A 
ATOM     12  C   UNL     1       3.550   3.349  18.209  0.00  0.00    +0.000 A 
ATOM     13  C   UNL     1       4.482   3.558  17.203  0.00  0.00    +0.000 A 
ATOM     14  C   UNL     1       4.726   4.854  16.739  0.00  0.00    +0.000 A 
ATOM     15  N   UNL     1       4.086   5.941  17.337  0.00  0.00    +0.000 N 
ATOM     16  O   UNL     1       4.419   7.145  17.001  0.00  0.00    +0.000 OA
ATOM     17  H   UNL     1       2.745   7.735  18.378  0.00  0.00    +0.000 HD
BRANCH  14  18
ATOM     18  C   UNL     1       5.706   5.143  15.638  0.00  0.00    +0.000 C 
BRANCH  18  19
ATOM     19  C   UNL     1       7.118   5.316  16.153  0.00  0.00    +0.000 C 
ATOM     20  O   UNL     1       7.875   4.386  16.364  0.00  0.00    +0.000 OA
BRANCH  19  21
ATOM     21  O   UNL     1       7.456   6.605  16.375  0.00  0.00    +0.000 OA
ATOM     22  H   UNL     1       7.247   7.208  15.612  0.00  0.00    +0.000 HD
ENDBRANCH  19  21
ENDBRANCH  18  19
ENDBRANCH  14  18
ENDBRANCH   5   7
BRANCH   1  23
ATOM     23  C   UNL     1       0.876  11.545  18.745  0.00  0.00    +0.000 C 
BRANCH  23  24
ATOM     24  O   UNL     1       2.042  12.368  18.817  0.00  0.00    +0.000 OA
BRANCH  24  30
ATOM     25  C   UNL     1       2.800  14.715  18.375  0.00  0.00    +0.000 A 
ATOM     26  C   UNL     1       2.385  16.069  18.251  0.00  0.00    +0.000 A 
ATOM     27  C   UNL     1       1.065  16.469  18.476  0.00  0.00    +0.000 A 
ATOM     28  C   UNL     1       0.144  15.485  18.842  0.00  0.00    +0.000 A 
ATOM     29  C   UNL     1       0.522  14.136  18.932  0.00  0.00    +0.000 A 
ATOM     30  C   UNL     1       1.840  13.726  18.667  0.00  0.00    +0.000 A 
BRANCH  27  31
ATOM     31  C   UNL     1       0.630  17.902  18.362  0.00  0.00    +0.000 C 
ATOM     32  C   UNL     1       0.031  18.462  17.094  0.00  0.00    +0.000 C 
ATOM     33  O   UNL     1       0.762  18.631  19.351  0.00  0.00    +0.000 OA
ENDBRANCH  27  31
BRANCH  25  35
ATOM     34  C   UNL     1       5.110  15.765  18.276  0.00  0.00    +0.000 C 
ATOM     35  C   UNL     1       4.288  14.480  18.224  0.00  0.00    +0.000 C 
ENDBRANCH  25  35
BRANCH  28  36
ATOM     36  O   UNL     1      -1.166  15.761  19.144  0.00  0.00    +0.000 OA
ATOM     37  H   UNL     1      -1.441  16.546  18.618  0.00  0.00    +0.000 HD
ENDBRANCH  28  36
ENDBRANCH  24  30
ENDBRANCH  23  24
ENDBRANCH   1  23
TORSDOF 10
ENDMDL
MODEL 7
REMARK VINA RESULT:      -8.4      2.395     11.636
REMARK  Name = 
REMARK  12 active torsions:
REMARK  status: ('A' for Active; 'I' for Inactive)
REMARK    1  A    between atoms: C_1  and  C_2
REMARK    2  A    between atoms: C_2  and  C_3
REMARK    3  A    between atoms: C_5  and  C_6
REMARK    4  A    between atoms: C_6  and  C_7
REMARK    5  A    between atoms: C_9  and  O_10
REMARK    6  A    between atoms: C_12  and  O_13
REMARK    7  A    between atoms: O_13  and  C_14
REMARK    8  A    between atoms: C_14  and  C_15
REMARK    9  A    between atoms: C_19  and  C_20
REMARK   10  A    between atoms: C_27  and  C_28
REMARK   11  A    between atoms: C_28  and  C_29
REMARK   12  A    between atoms: C_29  and  O_31
REMARK                            x       y       z     vdW  Elec       q    Type
REMARK                         _______ _______ _______ _____ _____    ______ ____
ROOT
ATOM      1  C   UNL     1      -0.739  10.918  19.940  0.00  0.00    +0.000 A 
ATOM      2  C   UNL     1      -0.652  10.780  21.333  0.00  0.00    +0.000 A 
ATOM      3  C   UNL     1       0.298   9.922  21.881  0.00  0.00    +0.000 A 
ATOM      4  C   UNL     1       1.127   9.199  21.037  0.00  0.00    +0.000 A 
ATOM      5  C   UNL     1       0.957   9.360  19.666  0.00  0.00    +0.000 A 
ATOM      6  N   UNL     1       0.053  10.204  19.092  0.00  0.00    +0.000 NA
ENDROOT
BRANCH   5   7
ATOM      7  C   UNL     1       1.864   8.625  18.732  0.00  0.00    +0.000 C 
ATOM      8  O   UNL     1       2.101   9.010  17.602  0.00  0.00    +0.000 OA
ATOM      9  N   UNL     1       2.389   7.395  19.231  0.00  0.00    +0.000 N 
ATOM     10  C   UNL     1       3.195   6.528  18.537  0.00  0.00    +0.000 A 
ATOM     11  C   UNL     1       3.900   6.838  17.366  0.00  0.00    +0.000 A 
ATOM     12  C   UNL     1       4.656   5.869  16.708  0.00  0.00    +0.000 A 
ATOM     13  C   UNL     1       4.761   4.587  17.230  0.00  0.00    +0.000 A 
ATOM     14  C   UNL     1       4.115   4.269  18.427  0.00  0.00    +0.000 A 
ATOM     15  N   UNL     1       3.307   5.218  19.057  0.00  0.00    +0.000 N 
ATOM     16  O   UNL     1       2.601   4.877  20.086  0.00  0.00    +0.000 OA
ATOM     17  H   UNL     1       2.062   7.056  20.138  0.00  0.00    +0.000 HD
BRANCH  14  18
ATOM     18  C   UNL     1       4.208   2.907  19.054  0.00  0.00    +0.000 C 
BRANCH  18  19
ATOM     19  C   UNL     1       3.458   1.857  18.267  0.00  0.00    +0.000 C 
ATOM     20  O   UNL     1       2.422   2.080  17.665  0.00  0.00    +0.000 OA
BRANCH  19  21
ATOM     21  O   UNL     1       4.038   0.637  18.306  0.00  0.00    +0.000 OA
ATOM     22  H   UNL     1       3.657  -0.006  17.650  0.00  0.00    +0.000 HD
ENDBRANCH  19  21
ENDBRANCH  18  19
ENDBRANCH  14  18
ENDBRANCH   5   7
BRANCH   1  23
ATOM     23  C   UNL     1      -1.562  12.066  19.361  0.00  0.00    +0.000 C 
BRANCH  23  24
ATOM     24  O   UNL     1      -1.761  13.172  20.243  0.00  0.00    +0.000 OA
BRANCH  24  30
ATOM     25  C   UNL     1      -2.945  13.278  22.450  0.00  0.00    +0.000 A 
ATOM     26  C   UNL     1      -4.206  13.191  23.099  0.00  0.00    +0.000 A 
ATOM     27  C   UNL     1      -5.381  12.877  22.412  0.00  0.00    +0.000 A 
ATOM     28  C   UNL     1      -5.283  12.638  21.038  0.00  0.00    +0.000 A 
ATOM     29  C   UNL     1      -4.055  12.759  20.368  0.00  0.00    +0.000 A 
ATOM     30  C   UNL     1      -2.879  13.113  21.051  0.00  0.00    +0.000 A 
BRANCH  27  31
ATOM     31  C   UNL     1      -6.711  12.766  23.101  0.00  0.00    +0.000 C 
ATOM     32  C   UNL     1      -7.281  13.891  23.932  0.00  0.00    +0.000 C 
ATOM     33  O   UNL     1      -7.352  11.720  22.965  0.00  0.00    +0.000 OA
ENDBRANCH  27  31
BRANCH  25  35
ATOM     34  C   UNL     1      -1.081  14.850  23.160  0.00  0.00    +0.000 C 
ATOM     35  C   UNL     1      -1.761  13.499  23.366  0.00  0.00    +0.000 C 
ENDBRANCH  25  35
BRANCH  28  36
ATOM     36  O   UNL     1      -6.354  12.268  20.265  0.00  0.00    +0.000 OA
ATOM     37  H   UNL     1      -6.062  11.546  19.664  0.00  0.00    +0.000 HD
ENDBRANCH  28  36
ENDBRANCH  24  30
ENDBRANCH  23  24
ENDBRANCH   1  23
TORSDOF 10
ENDMDL
MODEL 8
REMARK VINA RESULT:      -8.4      2.635     11.364
REMARK  Name = 
REMARK  12 active torsions:
REMARK  status: ('A' for Active; 'I' for Inactive)
REMARK    1  A    between atoms: C_1  and  C_2
REMARK    2  A    between atoms: C_2  and  C_3
REMARK    3  A    between atoms: C_5  and  C_6
REMARK    4  A    between atoms: C_6  and  C_7
REMARK    5  A    between atoms: C_9  and  O_10
REMARK    6  A    between atoms: C_12  and  O_13
REMARK    7  A    between atoms: O_13  and  C_14
REMARK    8  A    between atoms: C_14  and  C_15
REMARK    9  A    between atoms: C_19  and  C_20
REMARK   10  A    between atoms: C_27  and  C_28
REMARK   11  A    between atoms: C_28  and  C_29
REMARK   12  A    between atoms: C_29  and  O_31
REMARK                            x       y       z     vdW  Elec       q    Type
REMARK                         _______ _______ _______ _____ _____    ______ ____
ROOT
ATOM      1  C   UNL     1      -0.271  10.457  20.703  0.00  0.00    +0.000 A 
ATOM      2  C   UNL     1      -1.273  11.040  19.914  0.00  0.00    +0.000 A 
ATOM      3  C   UNL     1      -1.255  10.857  18.534  0.00  0.00    +0.000 A 
ATOM      4  C   UNL     1      -0.230  10.121  17.960  0.00  0.00    +0.000 A 
ATOM      5  C   UNL     1       0.749   9.605  18.802  0.00  0.00    +0.000 A 
ATOM      6  N   UNL     1       0.755   9.746  20.158  0.00  0.00    +0.000 NA
ENDROOT
BRANCH   5   7
ATOM      7  C   UNL     1       1.844   8.774  18.216  0.00  0.00    +0.000 C 
ATOM      8  O   UNL     1       2.369   9.030  17.149  0.00  0.00    +0.000 OA
ATOM      9  N   UNL     1       2.195   7.609  18.963  0.00  0.00    +0.000 N 
ATOM     10  C   UNL     1       3.128   6.673  18.597  0.00  0.00    +0.000 A 
ATOM     11  C   UNL     1       4.115   6.852  17.617  0.00  0.00    +0.000 A 
ATOM     12  C   UNL     1       4.989   5.818  17.283  0.00  0.00    +0.000 A 
ATOM     13  C   UNL     1       4.926   4.604  17.952  0.00  0.00    +0.000 A 
ATOM     14  C   UNL     1       3.990   4.419  18.973  0.00  0.00    +0.000 A 
ATOM     15  N   UNL     1       3.072   5.429  19.268  0.00  0.00    +0.000 N 
ATOM     16  O   UNL     1       2.120   5.203  20.115  0.00  0.00    +0.000 OA
ATOM     17  H   UNL     1       1.640   7.373  19.789  0.00  0.00    +0.000 HD
BRANCH  14  18
ATOM     18  C   UNL     1       3.887   3.137  19.748  0.00  0.00    +0.000 C 
BRANCH  18  19
ATOM     19  C   UNL     1       3.097   2.079  19.011  0.00  0.00    +0.000 C 
ATOM     20  O   UNL     1       3.602   1.262  18.262  0.00  0.00    +0.000 OA
BRANCH  19  21
ATOM     21  O   UNL     1       1.767   2.136  19.249  0.00  0.00    +0.000 OA
ATOM     22  H   UNL     1       1.228   2.358  18.442  0.00  0.00    +0.000 HD
ENDBRANCH  19  21
ENDBRANCH  18  19
ENDBRANCH  14  18
ENDBRANCH   5   7
BRANCH   1  23
ATOM     23  C   UNL     1      -0.457  10.406  22.217  0.00  0.00    +0.000 C 
BRANCH  23  24
ATOM     24  O   UNL     1      -0.339  11.664  22.883  0.00  0.00    +0.000 OA
BRANCH  24  30
ATOM     25  C   UNL     1      -1.687  13.736  22.468  0.00  0.00    +0.000 A 
ATOM     26  C   UNL     1      -2.958  14.350  22.630  0.00  0.00    +0.000 A 
ATOM     27  C   UNL     1      -4.006  13.729  23.315  0.00  0.00    +0.000 A 
ATOM     28  C   UNL     1      -3.765  12.464  23.857  0.00  0.00    +0.000 A 
ATOM     29  C   UNL     1      -2.530  11.821  23.675  0.00  0.00    +0.000 A 
ATOM     30  C   UNL     1      -1.488  12.428  22.952  0.00  0.00    +0.000 A 
BRANCH  27  31
ATOM     31  C   UNL     1      -5.344  14.385  23.501  0.00  0.00    +0.000 C 
ATOM     32  C   UNL     1      -5.482  15.800  24.009  0.00  0.00    +0.000 C 
ATOM     33  O   UNL     1      -6.355  13.736  23.214  0.00  0.00    +0.000 OA
ENDBRANCH  27  31
BRANCH  25  35
ATOM     34  C   UNL     1      -0.900  14.869  20.335  0.00  0.00    +0.000 C 
ATOM     35  C   UNL     1      -0.631  14.602  21.813  0.00  0.00    +0.000 C 
ENDBRANCH  25  35
BRANCH  28  36
ATOM     36  O   UNL     1      -4.694  11.778  24.598  0.00  0.00    +0.000 OA
ATOM     37  H   UNL     1      -4.417  10.834  24.636  0.00  0.00    +0.000 HD
ENDBRANCH  28  36
ENDBRANCH  24  30
ENDBRANCH  23  24
ENDBRANCH   1  23
TORSDOF 10
ENDMDL
MODEL 9
REMARK VINA RESULT:      -8.4      2.883      4.781
REMARK  Name = 
REMARK  12 active torsions:
REMARK  status: ('A' for Active; 'I' for Inactive)
REMARK    1  A    between atoms: C_1  and  C_2
REMARK    2  A    between atoms: C_2  and  C_3
REMARK    3  A    between atoms: C_5  and  C_6
REMARK    4  A    between atoms: C_6  and  C_7
REMARK    5  A    between atoms: C_9  and  O_10
REMARK    6  A    between atoms: C_12  and  O_13
REMARK    7  A    between atoms: O_13  and  C_14
REMARK    8  A    between atoms: C_14  and  C_15
REMARK    9  A    between atoms: C_19  and  C_20
REMARK   10  A    between atoms: C_27  and  C_28
REMARK   11  A    between atoms: C_28  and  C_29
REMARK   12  A    between atoms: C_29  and  O_31
REMARK                            x       y       z     vdW  Elec       q    Type
REMARK                         _______ _______ _______ _____ _____    ______ ____
ROOT
ATOM      1  C   UNL     1       0.869  10.275  18.664  0.00  0.00    +0.000 A 
ATOM      2  C   UNL     1       1.625  11.448  18.797  0.00  0.00    +0.000 A 
ATOM      3  C   UNL     1       0.999  12.686  18.672  0.00  0.00    +0.000 A 
ATOM      4  C   UNL     1      -0.358  12.736  18.394  0.00  0.00    +0.000 A 
ATOM      5  C   UNL     1      -1.034  11.530  18.239  0.00  0.00    +0.000 A 
ATOM      6  N   UNL     1      -0.461  10.300  18.373  0.00  0.00    +0.000 NA
ENDROOT
BRANCH   5   7
ATOM      7  C   UNL     1      -2.505  11.552  17.979  0.00  0.00    +0.000 C 
ATOM      8  O   UNL     1      -2.980  11.470  16.861  0.00  0.00    +0.000 OA
ATOM      9  N   UNL     1      -3.328  11.742  19.130  0.00  0.00    +0.000 N 
ATOM     10  C   UNL     1      -4.696  11.849  19.129  0.00  0.00    +0.000 A 
ATOM     11  C   UNL     1      -5.537  11.471  18.073  0.00  0.00    +0.000 A 
ATOM     12  C   UNL     1      -6.916  11.665  18.152  0.00  0.00    +0.000 A 
ATOM     13  C   UNL     1      -7.484  12.196  19.301  0.00  0.00    +0.000 A 
ATOM     14  C   UNL     1      -6.673  12.527  20.390  0.00  0.00    +0.000 A 
ATOM     15  N   UNL     1      -5.287  12.392  20.293  0.00  0.00    +0.000 N 
ATOM     16  O   UNL     1      -4.532  12.830  21.248  0.00  0.00    +0.000 OA
ATOM     17  H   UNL     1      -2.876  11.929  20.028  0.00  0.00    +0.000 HD
BRANCH  14  18
ATOM     18  C   UNL     1      -7.231  13.084  21.669  0.00  0.00    +0.000 C 
BRANCH  18  19
ATOM     19  C   UNL     1      -7.669  12.000  22.628  0.00  0.00    +0.000 C 
ATOM     20  O   UNL     1      -7.803  10.833  22.307  0.00  0.00    +0.000 OA
BRANCH  19  21
ATOM     21  O   UNL     1      -7.916  12.453  23.877  0.00  0.00    +0.000 OA
ATOM     22  H   UNL     1      -7.850  11.748  24.576  0.00  0.00    +0.000 HD
ENDBRANCH  19  21
ENDBRANCH  18  19
ENDBRANCH  14  18
ENDBRANCH   5   7
BRANCH   1  23
ATOM     23  C   UNL     1       1.486   8.946  19.094  0.00  0.00    +0.000 C 
BRANCH  23  24
ATOM     24  O   UNL     1       2.503   8.444  18.226  0.00  0.00    +0.000 OA
BRANCH  24  30
ATOM     25  C   UNL     1       3.831   6.384  17.699  0.00  0.00    +0.000 A 
ATOM     26  C   UNL     1       4.037   5.017  18.027  0.00  0.00    +0.000 A 
ATOM     27  C   UNL     1       3.248   4.346  18.964  0.00  0.00    +0.000 A 
ATOM     28  C   UNL     1       2.222   5.067  19.582  0.00  0.00    +0.000 A 
ATOM     29  C   UNL     1       2.027   6.429  19.304  0.00  0.00    +0.000 A 
ATOM     30  C   UNL     1       2.844   7.116  18.390  0.00  0.00    +0.000 A 
BRANCH  27  31
ATOM     31  C   UNL     1       3.454   2.895  19.297  0.00  0.00    +0.000 C 
ATOM     32  C   UNL     1       3.478   1.822  18.235  0.00  0.00    +0.000 C 
ATOM     33  O   UNL     1       3.620   2.589  20.482  0.00  0.00    +0.000 OA
ENDBRANCH  27  31
BRANCH  25  35
ATOM     34  C   UNL     1       5.303   5.812  15.711  0.00  0.00    +0.000 C 
ATOM     35  C   UNL     1       4.690   6.914  16.571  0.00  0.00    +0.000 C 
ENDBRANCH  25  35
BRANCH  28  36
ATOM     36  O   UNL     1       1.347   4.505  20.477  0.00  0.00    +0.000 OA
ATOM     37  H   UNL     1       0.696   5.194  20.741  0.00  0.00    +0.000 HD
ENDBRANCH  28  36
ENDBRANCH  24  30
ENDBRANCH  23  24
ENDBRANCH   1  23
TORSDOF 10
ENDMDL
