MODEL 1
REMARK VINA RESULT:      -9.0      0.000      0.000
REMARK  Name = 
REMARK  7 active torsions:
REMARK  status: ('A' for Active; 'I' for Inactive)
REMARK    1  A    between atoms: C_2  and  C_3
REMARK    2  A    between atoms: C_3  and  C_4
REMARK    3  A    between atoms: C_4  and  C_5
REMARK    4  A    between atoms: C_15  and  C_16
REMARK    5  A    between atoms: C_16  and  C_17
REMARK    6  A    between atoms: C_17  and  C_18
REMARK    7  A    between atoms: C_17  and  C_24
REMARK                            x       y       z     vdW  Elec       q    Type
REMARK                         _______ _______ _______ _____ _____    ______ ____
ROOT
ATOM      1  O   UNL     1       1.885   4.469  21.545  0.00  0.00    +0.000 OA
ATOM      2  C   UNL     1       2.132   4.886  20.415  0.00  0.00    +0.000 C 
ATOM      3  N   UNL     1       2.382   4.038  19.348  0.00  0.00    +0.000 N 
ATOM      4  C   UNL     1       2.294   2.588  19.523  0.00  0.00    +0.000 C 
ATOM      5  C   UNL     1       3.573   1.903  19.035  0.00  0.00    +0.000 C 
ATOM      6  O   UNL     1       3.902   2.302  17.695  0.00  0.00    +0.000 OA
ATOM      7  C   UNL     1       4.094   3.736  17.606  0.00  0.00    +0.000 C 
ATOM      8  C   UNL     1       2.787   4.449  17.996  0.00  0.00    +0.000 C 
ENDROOT
BRANCH   2   9
ATOM      9  C   UNL     1       2.167   6.369  20.111  0.00  0.00    +0.000 C 
BRANCH   9  10
ATOM     10  C   UNL     1       1.357   7.195  21.106  0.00  0.00    +0.000 C 
BRANCH  10  11
ATOM     11  C   UNL     1       1.234   8.641  20.696  0.00  0.00    +0.000 A 
ATOM     12  C   UNL     1       1.053   9.624  21.665  0.00  0.00    +0.000 A 
ATOM     13  N   UNL     1       0.931  10.939  21.369  0.00  0.00    +0.000 NA
ATOM     14  C   UNL     1       0.993  11.243  20.053  0.00  0.00    +0.000 A 
ATOM     15  C   UNL     1       1.173  10.278  19.081  0.00  0.00    +0.000 A 
ATOM     16  N   UNL     1       1.299   8.964  19.376  0.00  0.00    +0.000 NA
ENDBRANCH  10  11
ENDBRANCH   9  10
ENDBRANCH   2   9
BRANCH   7  17
ATOM     17  C   UNL     1       4.542   4.013  16.169  0.00  0.00    +0.000 C 
BRANCH  17  18
ATOM     18  C   UNL     1       6.067   4.094  15.921  0.00  0.00    +0.000 C 
BRANCH  18  19
ATOM     19  C   UNL     1       6.444   4.287  14.456  0.00  0.00    +0.000 A 
ATOM     20  C   UNL     1       7.505   5.123  14.077  0.00  0.00    +0.000 A 
ATOM     21  C   UNL     1       7.889   5.226  12.737  0.00  0.00    +0.000 A 
ATOM     22  C   UNL     1       7.218   4.497  11.759  0.00  0.00    +0.000 A 
ATOM     23  C   UNL     1       6.149   3.678  12.116  0.00  0.00    +0.000 A 
ATOM     24  C   UNL     1       5.763   3.575  13.454  0.00  0.00    +0.000 A 
ENDBRANCH  18  19
BRANCH  18  25
ATOM     25  C   UNL     1       6.755   5.126  16.825  0.00  0.00    +0.000 A 
ATOM     26  C   UNL     1       7.537   4.677  17.903  0.00  0.00    +0.000 A 
ATOM     27  C   UNL     1       8.117   5.585  18.792  0.00  0.00    +0.000 A 
ATOM     28  C   UNL     1       7.936   6.956  18.608  0.00  0.00    +0.000 A 
ATOM     29  C   UNL     1       7.204   7.416  17.522  0.00  0.00    +0.000 A 
ATOM     30  C   UNL     1       6.628   6.511  16.631  0.00  0.00    +0.000 A 
ENDBRANCH  18  25
ENDBRANCH  17  18
ENDBRANCH   7  17
TORSDOF 7
ENDMDL
MODEL 2
REMARK VINA RESULT:      -8.9      0.979      3.623
REMARK  Name = 
REMARK  7 active torsions:
REMARK  status: ('A' for Active; 'I' for Inactive)
REMARK    1  A    between atoms: C_2  and  C_3
REMARK    2  A    between atoms: C_3  and  C_4
REMARK    3  A    between atoms: C_4  and  C_5
REMARK    4  A    between atoms: C_15  and  C_16
REMARK    5  A    between atoms: C_16  and  C_17
REMARK    6  A    between atoms: C_17  and  C_18
REMARK    7  A    between atoms: C_17  and  C_24
REMARK                            x       y       z     vdW  Elec       q    Type
REMARK                         _______ _______ _______ _____ _____    ______ ____
ROOT
ATOM      1  O   UNL     1       1.384   5.800  20.747  0.00  0.00    +0.000 OA
ATOM      2  C   UNL     1       2.041   5.883  19.710  0.00  0.00    +0.000 C 
ATOM      3  N   UNL     1       2.154   4.830  18.817  0.00  0.00    +0.000 N 
ATOM      4  C   UNL     1       1.426   3.582  19.052  0.00  0.00    +0.000 C 
ATOM      5  C   UNL     1       2.375   2.382  18.996  0.00  0.00    +0.000 C 
ATOM      6  O   UNL     1       3.145   2.379  17.784  0.00  0.00    +0.000 OA
ATOM      7  C   UNL     1       3.937   3.587  17.662  0.00  0.00    +0.000 C 
ATOM      8  C   UNL     1       2.998   4.807  17.614  0.00  0.00    +0.000 C 
ENDROOT
BRANCH   2   9
ATOM      9  C   UNL     1       2.765   7.158  19.334  0.00  0.00    +0.000 C 
BRANCH   9  10
ATOM     10  C   UNL     1       1.959   8.037  18.383  0.00  0.00    +0.000 C 
BRANCH  10  11
ATOM     11  C   UNL     1       1.444   9.291  19.045  0.00  0.00    +0.000 A 
ATOM     12  C   UNL     1       1.522  10.510  18.377  0.00  0.00    +0.000 A 
ATOM     13  N   UNL     1       1.084  11.674  18.911  0.00  0.00    +0.000 NA
ATOM     14  C   UNL     1       0.563  11.578  20.155  0.00  0.00    +0.000 A 
ATOM     15  C   UNL     1       0.480  10.375  20.829  0.00  0.00    +0.000 A 
ATOM     16  N   UNL     1       0.913   9.210  20.294  0.00  0.00    +0.000 NA
ENDBRANCH  10  11
ENDBRANCH   9  10
ENDBRANCH   2   9
BRANCH   7  17
ATOM     17  C   UNL     1       4.782   3.411  16.398  0.00  0.00    +0.000 C 
BRANCH  17  18
ATOM     18  C   UNL     1       5.412   4.692  15.800  0.00  0.00    +0.000 C 
BRANCH  18  19
ATOM     19  C   UNL     1       6.366   5.409  16.748  0.00  0.00    +0.000 A 
ATOM     20  C   UNL     1       6.413   6.810  16.819  0.00  0.00    +0.000 A 
ATOM     21  C   UNL     1       7.235   7.450  17.750  0.00  0.00    +0.000 A 
ATOM     22  C   UNL     1       8.022   6.701  18.622  0.00  0.00    +0.000 A 
ATOM     23  C   UNL     1       8.002   5.310  18.551  0.00  0.00    +0.000 A 
ATOM     24  C   UNL     1       7.183   4.668  17.620  0.00  0.00    +0.000 A 
ENDBRANCH  18  19
BRANCH  18  25
ATOM     25  C   UNL     1       6.053   4.446  14.428  0.00  0.00    +0.000 A 
ATOM     26  C   UNL     1       7.208   5.164  14.073  0.00  0.00    +0.000 A 
ATOM     27  C   UNL     1       7.777   5.022  12.806  0.00  0.00    +0.000 A 
ATOM     28  C   UNL     1       7.208   4.151  11.878  0.00  0.00    +0.000 A 
ATOM     29  C   UNL     1       6.094   3.400  12.228  0.00  0.00    +0.000 A 
ATOM     30  C   UNL     1       5.527   3.536  13.495  0.00  0.00    +0.000 A 
ENDBRANCH  18  25
ENDBRANCH  17  18
ENDBRANCH   7  17
TORSDOF 7
ENDMDL
MODEL 3
REMARK VINA RESULT:      -8.8      1.038      1.936
REMARK  Name = 
REMARK  7 active torsions:
REMARK  status: ('A' for Active; 'I' for Inactive)
REMARK    1  A    between atoms: C_2  and  C_3
REMARK    2  A    between atoms: C_3  and  C_4
REMARK    3  A    between atoms: C_4  and  C_5
REMARK    4  A    between atoms: C_15  and  C_16
REMARK    5  A    between atoms: C_16  and  C_17
REMARK    6  A    between atoms: C_17  and  C_18
REMARK    7  A    between atoms: C_17  and  C_24
REMARK                            x       y       z     vdW  Elec       q    Type
REMARK                         _______ _______ _______ _____ _____    ______ ____
ROOT
ATOM      1  O   UNL     1       1.284   3.197  21.488  0.00  0.00    +0.000 OA
ATOM      2  C   UNL     1       1.569   3.873  20.500  0.00  0.00    +0.000 C 
ATOM      3  N   UNL     1       1.986   3.307  19.307  0.00  0.00    +0.000 N 
ATOM      4  C   UNL     1       2.039   1.852  19.161  0.00  0.00    +0.000 C 
ATOM      5  C   UNL     1       3.417   1.406  18.663  0.00  0.00    +0.000 C 
ATOM      6  O   UNL     1       3.800   2.117  17.477  0.00  0.00    +0.000 OA
ATOM      7  C   UNL     1       3.847   3.547  17.713  0.00  0.00    +0.000 C 
ATOM      8  C   UNL     1       2.445   4.040  18.119  0.00  0.00    +0.000 C 
ENDROOT
BRANCH   2   9
ATOM      9  C   UNL     1       1.469   5.384  20.523  0.00  0.00    +0.000 C 
BRANCH   9  10
ATOM     10  C   UNL     1       2.634   6.064  19.811  0.00  0.00    +0.000 C 
BRANCH  10  11
ATOM     11  C   UNL     1       2.270   7.425  19.271  0.00  0.00    +0.000 A 
ATOM     12  C   UNL     1       2.724   7.817  18.015  0.00  0.00    +0.000 A 
ATOM     13  N   UNL     1       2.440   9.023  17.470  0.00  0.00    +0.000 NA
ATOM     14  C   UNL     1       1.680   9.838  18.236  0.00  0.00    +0.000 A 
ATOM     15  C   UNL     1       1.222   9.461  19.485  0.00  0.00    +0.000 A 
ATOM     16  N   UNL     1       1.502   8.254  20.027  0.00  0.00    +0.000 NA
ENDBRANCH  10  11
ENDBRANCH   9  10
ENDBRANCH   2   9
BRANCH   7  17
ATOM     17  C   UNL     1       4.368   4.172  16.417  0.00  0.00    +0.000 C 
BRANCH  17  18
ATOM     18  C   UNL     1       5.903   4.170  16.215  0.00  0.00    +0.000 C 
BRANCH  18  19
ATOM     19  C   UNL     1       6.331   4.204  14.752  0.00  0.00    +0.000 A 
ATOM     20  C   UNL     1       5.592   3.545  13.757  0.00  0.00    +0.000 A 
ATOM     21  C   UNL     1       5.953   3.653  12.412  0.00  0.00    +0.000 A 
ATOM     22  C   UNL     1       7.056   4.418  12.042  0.00  0.00    +0.000 A 
ATOM     23  C   UNL     1       7.812   5.062  13.018  0.00  0.00    +0.000 A 
ATOM     24  C   UNL     1       7.455   4.954  14.364  0.00  0.00    +0.000 A 
ENDBRANCH  18  19
BRANCH  18  25
ATOM     25  C   UNL     1       6.604   5.259  17.037  0.00  0.00    +0.000 A 
ATOM     26  C   UNL     1       6.399   6.609  16.702  0.00  0.00    +0.000 A 
ATOM     27  C   UNL     1       7.077   7.625  17.379  0.00  0.00    +0.000 A 
ATOM     28  C   UNL     1       7.961   7.308  18.411  0.00  0.00    +0.000 A 
ATOM     29  C   UNL     1       8.140   5.983  18.784  0.00  0.00    +0.000 A 
ATOM     30  C   UNL     1       7.460   4.967  18.112  0.00  0.00    +0.000 A 
ENDBRANCH  18  25
ENDBRANCH  17  18
ENDBRANCH   7  17
TORSDOF 7
ENDMDL
MODEL 4
REMARK VINA RESULT:      -8.7      0.697      1.620
REMARK  Name = 
REMARK  7 active torsions:
REMARK  status: ('A' for Active; 'I' for Inactive)
REMARK    1  A    between atoms: C_2  and  C_3
REMARK    2  A    between atoms: C_3  and  C_4
REMARK    3  A    between atoms: C_4  and  C_5
REMARK    4  A    between atoms: C_15  and  C_16
REMARK    5  A    between atoms: C_16  and  C_17
REMARK    6  A    between atoms: C_17  and  C_18
REMARK    7  A    between atoms: C_17  and  C_24
REMARK                            x       y       z     vdW  Elec       q    Type
REMARK                         _______ _______ _______ _____ _____    ______ ____
ROOT
ATOM      1  O   UNL     1       1.594   5.081  21.286  0.00  0.00    +0.000 OA
ATOM      2  C   UNL     1       1.959   5.415  20.160  0.00  0.00    +0.000 C 
ATOM      3  N   UNL     1       2.151   4.499  19.139  0.00  0.00    +0.000 N 
ATOM      4  C   UNL     1       1.859   3.081  19.356  0.00  0.00    +0.000 C 
ATOM      5  C   UNL     1       3.060   2.214  18.970  0.00  0.00    +0.000 C 
ATOM      6  O   UNL     1       3.514   2.510  17.640  0.00  0.00    +0.000 OA
ATOM      7  C   UNL     1       3.903   3.901  17.516  0.00  0.00    +0.000 C 
ATOM      8  C   UNL     1       2.683   4.797  17.802  0.00  0.00    +0.000 C 
ENDROOT
BRANCH   2   9
ATOM      9  C   UNL     1       2.210   6.867  19.810  0.00  0.00    +0.000 C 
BRANCH   9  10
ATOM     10  C   UNL     1       1.618   7.832  20.832  0.00  0.00    +0.000 C 
BRANCH  10  11
ATOM     11  C   UNL     1       1.048   9.076  20.195  0.00  0.00    +0.000 A 
ATOM     12  C   UNL     1       1.351   9.377  18.870  0.00  0.00    +0.000 A 
ATOM     13  N   UNL     1       0.879  10.476  18.237  0.00  0.00    +0.000 NA
ATOM     14  C   UNL     1       0.088  11.278  18.984  0.00  0.00    +0.000 A 
ATOM     15  C   UNL     1      -0.220  10.991  20.301  0.00  0.00    +0.000 A 
ATOM     16  N   UNL     1       0.247   9.890  20.933  0.00  0.00    +0.000 NA
ENDBRANCH  10  11
ENDBRANCH   9  10
ENDBRANCH   2   9
BRANCH   7  17
ATOM     17  C   UNL     1       4.463   4.057  16.100  0.00  0.00    +0.000 C 
BRANCH  17  18
ATOM     18  C   UNL     1       6.005   4.065  15.961  0.00  0.00    +0.000 C 
BRANCH  18  19
ATOM     19  C   UNL     1       6.493   4.199  14.524  0.00  0.00    +0.000 A 
ATOM     20  C   UNL     1       5.855   3.529  13.468  0.00  0.00    +0.000 A 
ATOM     21  C   UNL     1       6.265   3.727  12.147  0.00  0.00    +0.000 A 
ATOM     22  C   UNL     1       7.317   4.593  11.862  0.00  0.00    +0.000 A 
ATOM     23  C   UNL     1       7.974   5.250  12.900  0.00  0.00    +0.000 A 
ATOM     24  C   UNL     1       7.568   5.054  14.221  0.00  0.00    +0.000 A 
ENDBRANCH  18  19
BRANCH  18  25
ATOM     25  C   UNL     1       6.672   5.093  16.886  0.00  0.00    +0.000 A 
ATOM     26  C   UNL     1       6.447   6.462  16.662  0.00  0.00    +0.000 A 
ATOM     27  C   UNL     1       7.094   7.428  17.435  0.00  0.00    +0.000 A 
ATOM     28  C   UNL     1       7.966   7.041  18.452  0.00  0.00    +0.000 A 
ATOM     29  C   UNL     1       8.163   5.692  18.716  0.00  0.00    +0.000 A 
ATOM     30  C   UNL     1       7.514   4.725  17.948  0.00  0.00    +0.000 A 
ENDBRANCH  18  25
ENDBRANCH  17  18
ENDBRANCH   7  17
TORSDOF 7
ENDMDL
MODEL 5
REMARK VINA RESULT:      -8.6      0.893      3.571
REMARK  Name = 
REMARK  7 active torsions:
REMARK  status: ('A' for Active; 'I' for Inactive)
REMARK    1  A    between atoms: C_2  and  C_3
REMARK    2  A    between atoms: C_3  and  C_4
REMARK    3  A    between atoms: C_4  and  C_5
REMARK    4  A    between atoms: C_15  and  C_16
REMARK    5  A    between atoms: C_16  and  C_17
REMARK    6  A    between atoms: C_17  and  C_18
REMARK    7  A    between atoms: C_17  and  C_24
REMARK                            x       y       z     vdW  Elec       q    Type
REMARK                         _______ _______ _______ _____ _____    ______ ____
ROOT
ATOM      1  O   UNL     1       1.385   5.132  20.933  0.00  0.00    +0.000 OA
ATOM      2  C   UNL     1       1.919   5.291  19.837  0.00  0.00    +0.000 C 
ATOM      3  N   UNL     1       2.161   4.239  18.968  0.00  0.00    +0.000 N 
ATOM      4  C   UNL     1       1.720   2.885  19.309  0.00  0.00    +0.000 C 
ATOM      5  C   UNL     1       2.880   1.892  19.200  0.00  0.00    +0.000 C 
ATOM      6  O   UNL     1       3.526   1.982  17.920  0.00  0.00    +0.000 OA
ATOM      7  C   UNL     1       4.048   3.314  17.687  0.00  0.00    +0.000 C 
ATOM      8  C   UNL     1       2.885   4.323  17.693  0.00  0.00    +0.000 C 
ENDROOT
BRANCH   2   9
ATOM      9  C   UNL     1       2.339   6.663  19.356  0.00  0.00    +0.000 C 
BRANCH   9  10
ATOM     10  C   UNL     1       2.115   7.751  20.402  0.00  0.00    +0.000 C 
BRANCH  10  11
ATOM     11  C   UNL     1       1.209   8.852  19.910  0.00  0.00    +0.000 A 
ATOM     12  C   UNL     1       1.405   9.399  18.646  0.00  0.00    +0.000 A 
ATOM     13  N   UNL     1       0.634  10.391  18.142  0.00  0.00    +0.000 NA
ATOM     14  C   UNL     1      -0.351  10.827  18.958  0.00  0.00    +0.000 A 
ATOM     15  C   UNL     1      -0.557  10.293  20.216  0.00  0.00    +0.000 A 
ATOM     16  N   UNL     1       0.210   9.298  20.718  0.00  0.00    +0.000 NA
ENDBRANCH  10  11
ENDBRANCH   9  10
ENDBRANCH   2   9
BRANCH   7  17
ATOM     17  C   UNL     1       4.799   3.245  16.355  0.00  0.00    +0.000 C 
BRANCH  17  18
ATOM     18  C   UNL     1       5.336   4.583  15.792  0.00  0.00    +0.000 C 
BRANCH  18  19
ATOM     19  C   UNL     1       6.209   5.357  16.772  0.00  0.00    +0.000 A 
ATOM     20  C   UNL     1       7.085   4.700  17.650  0.00  0.00    +0.000 A 
ATOM     21  C   UNL     1       7.937   5.428  18.484  0.00  0.00    +0.000 A 
ATOM     22  C   UNL     1       7.926   6.820  18.454  0.00  0.00    +0.000 A 
ATOM     23  C   UNL     1       7.049   7.488  17.603  0.00  0.00    +0.000 A 
ATOM     24  C   UNL     1       6.195   6.763  16.769  0.00  0.00    +0.000 A 
ENDBRANCH  18  19
BRANCH  18  25
ATOM     25  C   UNL     1       6.022   4.413  14.430  0.00  0.00    +0.000 A 
ATOM     26  C   UNL     1       7.193   5.142  14.159  0.00  0.00    +0.000 A 
ATOM     27  C   UNL     1       7.806   5.070  12.905  0.00  0.00    +0.000 A 
ATOM     28  C   UNL     1       7.264   4.259  11.908  0.00  0.00    +0.000 A 
ATOM     29  C   UNL     1       6.134   3.499  12.175  0.00  0.00    +0.000 A 
ATOM     30  C   UNL     1       5.524   3.564  13.428  0.00  0.00    +0.000 A 
ENDBRANCH  18  25
ENDBRANCH  17  18
ENDBRANCH   7  17
TORSDOF 7
ENDMDL
MODEL 6
REMARK VINA RESULT:      -8.5      3.406      6.671
REMARK  Name = 
REMARK  7 active torsions:
REMARK  status: ('A' for Active; 'I' for Inactive)
REMARK    1  A    between atoms: C_2  and  C_3
REMARK    2  A    between atoms: C_3  and  C_4
REMARK    3  A    between atoms: C_4  and  C_5
REMARK    4  A    between atoms: C_15  and  C_16
REMARK    5  A    between atoms: C_16  and  C_17
REMARK    6  A    between atoms: C_17  and  C_18
REMARK    7  A    between atoms: C_17  and  C_24
REMARK                            x       y       z     vdW  Elec       q    Type
REMARK                         _______ _______ _______ _____ _____    ______ ____
ROOT
ATOM      1  O   UNL     1       0.971  12.801  21.128  0.00  0.00    +0.000 OA
ATOM      2  C   UNL     1       1.169  12.071  20.159  0.00  0.00    +0.000 C 
ATOM      3  N   UNL     1       0.860  10.720  20.170  0.00  0.00    +0.000 N 
ATOM      4  C   UNL     1       0.213  10.122  21.339  0.00  0.00    +0.000 C 
ATOM      5  C   UNL     1       0.992   8.896  21.822  0.00  0.00    +0.000 C 
ATOM      6  O   UNL     1       1.220   7.966  20.753  0.00  0.00    +0.000 OA
ATOM      7  C   UNL     1       1.968   8.579  19.674  0.00  0.00    +0.000 C 
ATOM      8  C   UNL     1       1.160   9.758  19.100  0.00  0.00    +0.000 C 
ENDROOT
BRANCH   2   9
ATOM      9  C   UNL     1       1.760  12.609  18.873  0.00  0.00    +0.000 C 
BRANCH   9  10
ATOM     10  C   UNL     1       2.811  13.689  19.112  0.00  0.00    +0.000 C 
BRANCH  10  11
ATOM     11  C   UNL     1       2.365  15.050  18.637  0.00  0.00    +0.000 A 
ATOM     12  C   UNL     1       3.229  15.839  17.883  0.00  0.00    +0.000 A 
ATOM     13  N   UNL     1       2.897  17.070  17.428  0.00  0.00    +0.000 NA
ATOM     14  C   UNL     1       1.657  17.493  17.760  0.00  0.00    +0.000 A 
ATOM     15  C   UNL     1       0.789  16.719  18.508  0.00  0.00    +0.000 A 
ATOM     16  N   UNL     1       1.118  15.487  18.959  0.00  0.00    +0.000 NA
ENDBRANCH  10  11
ENDBRANCH   9  10
ENDBRANCH   2   9
BRANCH   7  17
ATOM     17  C   UNL     1       2.236   7.465  18.659  0.00  0.00    +0.000 C 
BRANCH  17  18
ATOM     18  C   UNL     1       3.104   6.279  19.144  0.00  0.00    +0.000 C 
BRANCH  18  19
ATOM     19  C   UNL     1       2.326   4.982  19.331  0.00  0.00    +0.000 A 
ATOM     20  C   UNL     1       2.015   4.492  20.609  0.00  0.00    +0.000 A 
ATOM     21  C   UNL     1       1.231   3.345  20.762  0.00  0.00    +0.000 A 
ATOM     22  C   UNL     1       0.749   2.672  19.642  0.00  0.00    +0.000 A 
ATOM     23  C   UNL     1       1.066   3.133  18.367  0.00  0.00    +0.000 A 
ATOM     24  C   UNL     1       1.850   4.278  18.211  0.00  0.00    +0.000 A 
ENDBRANCH  18  19
BRANCH  18  25
ATOM     25  C   UNL     1       4.353   6.072  18.276  0.00  0.00    +0.000 A 
ATOM     26  C   UNL     1       4.404   6.661  17.001  0.00  0.00    +0.000 A 
ATOM     27  C   UNL     1       5.491   6.435  16.153  0.00  0.00    +0.000 A 
ATOM     28  C   UNL     1       6.548   5.628  16.571  0.00  0.00    +0.000 A 
ATOM     29  C   UNL     1       6.533   5.076  17.846  0.00  0.00    +0.000 A 
ATOM     30  C   UNL     1       5.452   5.305  18.696  0.00  0.00    +0.000 A 
ENDBRANCH  18  25
ENDBRANCH  17  18
ENDBRANCH   7  17
TORSDOF 7
ENDMDL
MODEL 7
REMARK VINA RESULT:      -8.5      0.547      3.429
REMARK  Name = 
REMARK  7 active torsions:
REMARK  status: ('A' for Active; 'I' for Inactive)
REMARK    1  A    between atoms: C_2  and  C_3
REMARK    2  A    between atoms: C_3  and  C_4
REMARK    3  A    between atoms: C_4  and  C_5
REMARK    4  A    between atoms: C_15  and  C_16
REMARK    5  A    between atoms: C_16  and  C_17
REMARK    6  A    between atoms: C_17  and  C_18
REMARK    7  A    between atoms: C_17  and  C_24
REMARK                            x       y       z     vdW  Elec       q    Type
REMARK                         _______ _______ _______ _____ _____    ______ ____
ROOT
ATOM      1  O   UNL     1       2.208   4.796  21.568  0.00  0.00    +0.000 OA
ATOM      2  C   UNL     1       2.355   5.079  20.380  0.00  0.00    +0.000 C 
ATOM      3  N   UNL     1       2.510   4.114  19.399  0.00  0.00    +0.000 N 
ATOM      4  C   UNL     1       2.438   2.693  19.746  0.00  0.00    +0.000 C 
ATOM      5  C   UNL     1       3.670   1.945  19.229  0.00  0.00    +0.000 C 
ATOM      6  O   UNL     1       3.879   2.186  17.829  0.00  0.00    +0.000 OA
ATOM      7  C   UNL     1       4.063   3.598  17.560  0.00  0.00    +0.000 C 
ATOM      8  C   UNL     1       2.794   4.364  17.979  0.00  0.00    +0.000 C 
ENDROOT
BRANCH   2   9
ATOM      9  C   UNL     1       2.362   6.518  19.907  0.00  0.00    +0.000 C 
BRANCH   9  10
ATOM     10  C   UNL     1       1.478   7.424  20.758  0.00  0.00    +0.000 C 
BRANCH  10  11
ATOM     11  C   UNL     1       1.317   8.802  20.165  0.00  0.00    +0.000 A 
ATOM     12  C   UNL     1       0.905   9.860  20.970  0.00  0.00    +0.000 A 
ATOM     13  N   UNL     1       0.735  11.120  20.506  0.00  0.00    +0.000 NA
ATOM     14  C   UNL     1       0.992  11.288  19.189  0.00  0.00    +0.000 A 
ATOM     15  C   UNL     1       1.403  10.247  18.378  0.00  0.00    +0.000 A 
ATOM     16  N   UNL     1       1.576   8.989  18.843  0.00  0.00    +0.000 NA
ENDBRANCH  10  11
ENDBRANCH   9  10
ENDBRANCH   2   9
BRANCH   7  17
ATOM     17  C   UNL     1       4.382   3.705  16.067  0.00  0.00    +0.000 C 
BRANCH  17  18
ATOM     18  C   UNL     1       5.232   4.920  15.625  0.00  0.00    +0.000 C 
BRANCH  18  19
ATOM     19  C   UNL     1       6.165   5.447  16.710  0.00  0.00    +0.000 A 
ATOM     20  C   UNL     1       6.994   4.586  17.444  0.00  0.00    +0.000 A 
ATOM     21  C   UNL     1       7.901   5.093  18.378  0.00  0.00    +0.000 A 
ATOM     22  C   UNL     1       7.991   6.466  18.592  0.00  0.00    +0.000 A 
ATOM     23  C   UNL     1       7.161   7.334  17.886  0.00  0.00    +0.000 A 
ATOM     24  C   UNL     1       6.253   6.829  16.953  0.00  0.00    +0.000 A 
ENDBRANCH  18  19
BRANCH  18  25
ATOM     25  C   UNL     1       5.979   4.666  14.308  0.00  0.00    +0.000 A 
ATOM     26  C   UNL     1       5.472   3.713  13.408  0.00  0.00    +0.000 A 
ATOM     27  C   UNL     1       6.163   3.401  12.234  0.00  0.00    +0.000 A 
ATOM     28  C   UNL     1       7.363   4.046  11.936  0.00  0.00    +0.000 A 
ATOM     29  C   UNL     1       7.852   5.022  12.793  0.00  0.00    +0.000 A 
ATOM     30  C   UNL     1       7.162   5.339  13.963  0.00  0.00    +0.000 A 
ENDBRANCH  18  25
ENDBRANCH  17  18
ENDBRANCH   7  17
TORSDOF 7
ENDMDL
MODEL 8
REMARK VINA RESULT:      -8.5      3.084      6.173
REMARK  Name = 
REMARK  7 active torsions:
REMARK  status: ('A' for Active; 'I' for Inactive)
REMARK    1  A    between atoms: C_2  and  C_3
REMARK    2  A    between atoms: C_3  and  C_4
REMARK    3  A    between atoms: C_4  and  C_5
REMARK    4  A    between atoms: C_15  and  C_16
REMARK    5  A    between atoms: C_16  and  C_17
REMARK    6  A    between atoms: C_17  and  C_18
REMARK    7  A    between atoms: C_17  and  C_24
REMARK                            x       y       z     vdW  Elec       q    Type
REMARK                         _______ _______ _______ _____ _____    ______ ____
ROOT
ATOM      1  O   UNL     1       0.169  12.536  21.179  0.00  0.00    +0.000 OA
ATOM      2  C   UNL     1       0.347  11.783  20.222  0.00  0.00    +0.000 C 
ATOM      3  N   UNL     1       0.389  10.405  20.359  0.00  0.00    +0.000 N 
ATOM      4  C   UNL     1       0.153   9.786  21.664  0.00  0.00    +0.000 C 
ATOM      5  C   UNL     1       1.290   8.825  22.023  0.00  0.00    +0.000 C 
ATOM      6  O   UNL     1       1.525   7.877  20.971  0.00  0.00    +0.000 OA
ATOM      7  C   UNL     1       1.872   8.543  19.731  0.00  0.00    +0.000 C 
ATOM      8  C   UNL     1       0.700   9.443  19.293  0.00  0.00    +0.000 C 
ENDROOT
BRANCH   2   9
ATOM      9  C   UNL     1       0.521  12.321  18.818  0.00  0.00    +0.000 C 
BRANCH   9  10
ATOM     10  C   UNL     1      -0.759  12.932  18.256  0.00  0.00    +0.000 C 
BRANCH  10  11
ATOM     11  C   UNL     1      -1.827  11.900  17.988  0.00  0.00    +0.000 A 
ATOM     12  C   UNL     1      -3.047  11.977  18.652  0.00  0.00    +0.000 A 
ATOM     13  N   UNL     1      -4.048  11.085  18.464  0.00  0.00    +0.000 NA
ATOM     14  C   UNL     1      -3.782  10.097  17.581  0.00  0.00    +0.000 A 
ATOM     15  C   UNL     1      -2.574  10.009  16.914  0.00  0.00    +0.000 A 
ATOM     16  N   UNL     1      -1.575  10.903  17.098  0.00  0.00    +0.000 NA
ENDBRANCH  10  11
ENDBRANCH   9  10
ENDBRANCH   2   9
BRANCH   7  17
ATOM     17  C   UNL     1       2.201   7.431  18.732  0.00  0.00    +0.000 C 
BRANCH  17  18
ATOM     18  C   UNL     1       3.038   6.244  19.267  0.00  0.00    +0.000 C 
BRANCH  18  19
ATOM     19  C   UNL     1       2.285   4.919  19.288  0.00  0.00    +0.000 A 
ATOM     20  C   UNL     1       1.616   4.476  20.439  0.00  0.00    +0.000 A 
ATOM     21  C   UNL     1       0.863   3.299  20.417  0.00  0.00    +0.000 A 
ATOM     22  C   UNL     1       0.770   2.548  19.247  0.00  0.00    +0.000 A 
ATOM     23  C   UNL     1       1.445   2.964  18.102  0.00  0.00    +0.000 A 
ATOM     24  C   UNL     1       2.199   4.139  18.122  0.00  0.00    +0.000 A 
ENDBRANCH  18  19
BRANCH  18  25
ATOM     25  C   UNL     1       4.394   6.116  18.559  0.00  0.00    +0.000 A 
ATOM     26  C   UNL     1       5.424   5.388  19.179  0.00  0.00    +0.000 A 
ATOM     27  C   UNL     1       6.693   5.311  18.601  0.00  0.00    +0.000 A 
ATOM     28  C   UNL     1       6.949   5.950  17.389  0.00  0.00    +0.000 A 
ATOM     29  C   UNL     1       5.930   6.635  16.741  0.00  0.00    +0.000 A 
ATOM     30  C   UNL     1       4.660   6.709  17.313  0.00  0.00    +0.000 A 
ENDBRANCH  18  25
ENDBRANCH  17  18
ENDBRANCH   7  17
TORSDOF 7
ENDMDL
MODEL 9
REMARK VINA RESULT:      -8.4      1.488      1.943
REMARK  Name = 
REMARK  7 active torsions:
REMARK  status: ('A' for Active; 'I' for Inactive)
REMARK    1  A    between atoms: C_2  and  C_3
REMARK    2  A    between atoms: C_3  and  C_4
REMARK    3  A    between atoms: C_4  and  C_5
REMARK    4  A    between atoms: C_15  and  C_16
REMARK    5  A    between atoms: C_16  and  C_17
REMARK    6  A    between atoms: C_17  and  C_18
REMARK    7  A    between atoms: C_17  and  C_24
REMARK                            x       y       z     vdW  Elec       q    Type
REMARK                         _______ _______ _______ _____ _____    ______ ____
ROOT
ATOM      1  O   UNL     1       1.897   7.871  20.227  0.00  0.00    +0.000 OA
ATOM      2  C   UNL     1       2.149   7.435  19.104  0.00  0.00    +0.000 C 
ATOM      3  N   UNL     1       2.422   6.097  18.871  0.00  0.00    +0.000 N 
ATOM      4  C   UNL     1       2.353   5.129  19.967  0.00  0.00    +0.000 C 
ATOM      5  C   UNL     1       3.648   4.316  20.055  0.00  0.00    +0.000 C 
ATOM      6  O   UNL     1       3.983   3.728  18.788  0.00  0.00    +0.000 OA
ATOM      7  C   UNL     1       4.156   4.743  17.768  0.00  0.00    +0.000 C 
ATOM      8  C   UNL     1       2.834   5.512  17.587  0.00  0.00    +0.000 C 
ENDROOT
BRANCH   2   9
ATOM      9  C   UNL     1       2.165   8.341  17.891  0.00  0.00    +0.000 C 
BRANCH   9  10
ATOM     10  C   UNL     1       2.124   9.821  18.258  0.00  0.00    +0.000 C 
BRANCH  10  11
ATOM     11  C   UNL     1       0.725  10.309  18.545  0.00  0.00    +0.000 A 
ATOM     12  C   UNL     1       0.504  11.210  19.583  0.00  0.00    +0.000 A 
ATOM     13  N   UNL     1      -0.722  11.686  19.899  0.00  0.00    +0.000 NA
ATOM     14  C   UNL     1      -1.736  11.222  19.135  0.00  0.00    +0.000 A 
ATOM     15  C   UNL     1      -1.531  10.327  18.102  0.00  0.00    +0.000 A 
ATOM     16  N   UNL     1      -0.305   9.854  17.783  0.00  0.00    +0.000 NA
ENDBRANCH  10  11
ENDBRANCH   9  10
ENDBRANCH   2   9
BRANCH   7  17
ATOM     17  C   UNL     1       4.614   4.001  16.509  0.00  0.00    +0.000 C 
BRANCH  17  18
ATOM     18  C   UNL     1       6.121   4.078  16.168  0.00  0.00    +0.000 C 
BRANCH  18  19
ATOM     19  C   UNL     1       6.410   4.214  14.678  0.00  0.00    +0.000 A 
ATOM     20  C   UNL     1       7.488   4.979  14.207  0.00  0.00    +0.000 A 
ATOM     21  C   UNL     1       7.786   5.027  12.843  0.00  0.00    +0.000 A 
ATOM     22  C   UNL     1       7.013   4.313  11.931  0.00  0.00    +0.000 A 
ATOM     23  C   UNL     1       5.927   3.565  12.379  0.00  0.00    +0.000 A 
ATOM     24  C   UNL     1       5.625   3.517  13.742  0.00  0.00    +0.000 A 
ENDBRANCH  18  19
BRANCH  18  25
ATOM     25  C   UNL     1       6.855   5.148  16.989  0.00  0.00    +0.000 A 
ATOM     26  C   UNL     1       7.550   4.763  18.148  0.00  0.00    +0.000 A 
ATOM     27  C   UNL     1       8.168   5.716  18.960  0.00  0.00    +0.000 A 
ATOM     28  C   UNL     1       8.110   7.068  18.620  0.00  0.00    +0.000 A 
ATOM     29  C   UNL     1       7.465   7.459  17.454  0.00  0.00    +0.000 A 
ATOM     30  C   UNL     1       6.852   6.508  16.639  0.00  0.00    +0.000 A 
ENDBRANCH  18  25
ENDBRANCH  17  18
ENDBRANCH   7  17
TORSDOF 7
ENDMDL
