MODEL 1
REMARK VINA RESULT:      -8.0      0.000      0.000
REMARK  Name = 
REMARK  4 active torsions:
REMARK  status: ('A' for Active; 'I' for Inactive)
REMARK    1  A    between atoms: C_1  and  S_2
REMARK    2  A    between atoms: S_2  and  C_3
REMARK    3  A    between atoms: C_9  and  C_10
REMARK    4  A    between atoms: C_11  and  C_12
REMARK                            x       y       z     vdW  Elec       q    Type
REMARK                         _______ _______ _______ _____ _____    ______ ____
ROOT
ATOM      1  C   UNL     1       6.892   5.008  15.073  0.00  0.00    +0.000 A 
ATOM      2  N   UNL     1       7.752   4.557  16.027  0.00  0.00    +0.000 NA
ATOM      3  C   UNL     1       7.168   4.893  17.152  0.00  0.00    +0.000 A 
ATOM      4  N   UNL     1       7.582   4.663  18.432  0.00  0.00    +0.000 NA
ATOM      5  C   UNL     1       6.761   5.031  19.365  0.00  0.00    +0.000 A 
ATOM      6  C   UNL     1       5.440   5.684  19.173  0.00  0.00    +0.000 A 
ATOM      7  C   UNL     1       5.086   5.942  17.901  0.00  0.00    +0.000 A 
ATOM      8  N   UNL     1       5.955   5.543  16.868  0.00  0.00    +0.000 N 
ATOM      9  N   UNL     1       5.808   5.640  15.522  0.00  0.00    +0.000 NA
ENDROOT
BRANCH   1  11
ATOM     10  C   UNL     1       5.830   3.577  13.017  0.00  0.00    +0.000 C 
ATOM     11  S   UNL     1       7.154   4.758  13.370  0.00  0.00    +0.000 S 
ENDBRANCH   1  11
BRANCH   7  12
ATOM     12  C   UNL     1       3.848   6.642  17.604  0.00  0.00    +0.000 C 
ATOM     13  C   UNL     1       2.592   6.310  17.950  0.00  0.00    +0.000 C 
BRANCH  13  14
ATOM     14  C   UNL     1       2.099   5.097  18.622  0.00  0.00    +0.000 A 
ATOM     15  C   UNL     1       1.880   5.130  20.008  0.00  0.00    +0.000 A 
ATOM     16  C   UNL     1       1.283   4.048  20.662  0.00  0.00    +0.000 A 
ATOM     17  C   UNL     1       0.897   2.923  19.940  0.00  0.00    +0.000 A 
ATOM     18  C   UNL     1       1.109   2.875  18.564  0.00  0.00    +0.000 A 
ATOM     19  C   UNL     1       1.696   3.962  17.909  0.00  0.00    +0.000 A 
ENDBRANCH  13  14
ENDBRANCH   7  12
TORSDOF 3
ENDMDL
MODEL 2
REMARK VINA RESULT:      -7.8      0.299      1.141
REMARK  Name = 
REMARK  4 active torsions:
REMARK  status: ('A' for Active; 'I' for Inactive)
REMARK    1  A    between atoms: C_1  and  S_2
REMARK    2  A    between atoms: S_2  and  C_3
REMARK    3  A    between atoms: C_9  and  C_10
REMARK    4  A    between atoms: C_11  and  C_12
REMARK                            x       y       z     vdW  Elec       q    Type
REMARK                         _______ _______ _______ _____ _____    ______ ____
ROOT
ATOM      1  C   UNL     1       6.822   4.945  15.168  0.00  0.00    +0.000 A 
ATOM      2  N   UNL     1       7.697   4.560  16.136  0.00  0.00    +0.000 NA
ATOM      3  C   UNL     1       7.106   4.923  17.249  0.00  0.00    +0.000 A 
ATOM      4  N   UNL     1       7.530   4.756  18.535  0.00  0.00    +0.000 NA
ATOM      5  C   UNL     1       6.701   5.137  19.456  0.00  0.00    +0.000 A 
ATOM      6  C   UNL     1       5.360   5.741  19.242  0.00  0.00    +0.000 A 
ATOM      7  C   UNL     1       4.995   5.938  17.962  0.00  0.00    +0.000 A 
ATOM      8  N   UNL     1       5.873   5.524  16.943  0.00  0.00    +0.000 N 
ATOM      9  N   UNL     1       5.720   5.561  15.595  0.00  0.00    +0.000 NA
ENDROOT
BRANCH   1  11
ATOM     10  C   UNL     1       5.605   3.670  13.095  0.00  0.00    +0.000 C 
ATOM     11  S   UNL     1       7.088   4.635  13.475  0.00  0.00    +0.000 S 
ENDBRANCH   1  11
BRANCH   7  12
ATOM     12  C   UNL     1       3.735   6.587  17.643  0.00  0.00    +0.000 C 
ATOM     13  C   UNL     1       2.487   6.194  17.948  0.00  0.00    +0.000 C 
BRANCH  13  14
ATOM     14  C   UNL     1       2.031   4.949  18.586  0.00  0.00    +0.000 A 
ATOM     15  C   UNL     1       1.935   3.784  17.810  0.00  0.00    +0.000 A 
ATOM     16  C   UNL     1       1.642   2.553  18.404  0.00  0.00    +0.000 A 
ATOM     17  C   UNL     1       1.442   2.471  19.779  0.00  0.00    +0.000 A 
ATOM     18  C   UNL     1       1.531   3.619  20.562  0.00  0.00    +0.000 A 
ATOM     19  C   UNL     1       1.835   4.849  19.969  0.00  0.00    +0.000 A 
ENDBRANCH  13  14
ENDBRANCH   7  12
TORSDOF 3
ENDMDL
MODEL 3
REMARK VINA RESULT:      -7.5      1.023      1.023
REMARK  Name = 
REMARK  4 active torsions:
REMARK  status: ('A' for Active; 'I' for Inactive)
REMARK    1  A    between atoms: C_1  and  S_2
REMARK    2  A    between atoms: S_2  and  C_3
REMARK    3  A    between atoms: C_9  and  C_10
REMARK    4  A    between atoms: C_11  and  C_12
REMARK                            x       y       z     vdW  Elec       q    Type
REMARK                         _______ _______ _______ _____ _____    ______ ____
ROOT
ATOM      1  C   UNL     1       5.848   4.361  14.470  0.00  0.00    +0.000 A 
ATOM      2  N   UNL     1       6.952   3.932  15.142  0.00  0.00    +0.000 NA
ATOM      3  C   UNL     1       6.893   4.584  16.278  0.00  0.00    +0.000 A 
ATOM      4  N   UNL     1       7.740   4.518  17.346  0.00  0.00    +0.000 NA
ATOM      5  C   UNL     1       7.395   5.213  18.383  0.00  0.00    +0.000 A 
ATOM      6  C   UNL     1       6.188   6.072  18.510  0.00  0.00    +0.000 A 
ATOM      7  C   UNL     1       5.402   6.154  17.421  0.00  0.00    +0.000 A 
ATOM      8  N   UNL     1       5.750   5.401  16.285  0.00  0.00    +0.000 N 
ATOM      9  N   UNL     1       5.104   5.271  15.097  0.00  0.00    +0.000 NA
ENDROOT
BRANCH   1  11
ATOM     10  C   UNL     1       6.978   3.913  12.036  0.00  0.00    +0.000 C 
ATOM     11  S   UNL     1       5.399   3.748  12.903  0.00  0.00    +0.000 S 
ENDBRANCH   1  11
BRANCH   7  12
ATOM     12  C   UNL     1       4.236   7.022  17.413  0.00  0.00    +0.000 C 
ATOM     13  C   UNL     1       3.022   6.802  17.945  0.00  0.00    +0.000 C 
BRANCH  13  14
ATOM     14  C   UNL     1       2.489   5.587  18.582  0.00  0.00    +0.000 A 
ATOM     15  C   UNL     1       2.408   5.534  19.982  0.00  0.00    +0.000 A 
ATOM     16  C   UNL     1       1.781   4.459  20.621  0.00  0.00    +0.000 A 
ATOM     17  C   UNL     1       1.227   3.428  19.869  0.00  0.00    +0.000 A 
ATOM     18  C   UNL     1       1.300   3.466  18.479  0.00  0.00    +0.000 A 
ATOM     19  C   UNL     1       1.918   4.546  17.840  0.00  0.00    +0.000 A 
ENDBRANCH  13  14
ENDBRANCH   7  12
TORSDOF 3
ENDMDL
MODEL 4
REMARK VINA RESULT:      -7.3      1.419      2.267
REMARK  Name = 
REMARK  4 active torsions:
REMARK  status: ('A' for Active; 'I' for Inactive)
REMARK    1  A    between atoms: C_1  and  S_2
REMARK    2  A    between atoms: S_2  and  C_3
REMARK    3  A    between atoms: C_9  and  C_10
REMARK    4  A    between atoms: C_11  and  C_12
REMARK                            x       y       z     vdW  Elec       q    Type
REMARK                         _______ _______ _______ _____ _____    ______ ____
ROOT
ATOM      1  C   UNL     1       6.568   4.341  14.057  0.00  0.00    +0.000 A 
ATOM      2  N   UNL     1       7.490   5.091  14.720  0.00  0.00    +0.000 NA
ATOM      3  C   UNL     1       7.030   5.133  15.946  0.00  0.00    +0.000 A 
ATOM      4  N   UNL     1       7.574   5.734  17.044  0.00  0.00    +0.000 NA
ATOM      5  C   UNL     1       6.946   5.544  18.161  0.00  0.00    +0.000 A 
ATOM      6  C   UNL     1       5.701   4.755  18.352  0.00  0.00    +0.000 A 
ATOM      7  C   UNL     1       5.163   4.218  17.241  0.00  0.00    +0.000 A 
ATOM      8  N   UNL     1       5.831   4.402  16.016  0.00  0.00    +0.000 N 
ATOM      9  N   UNL     1       5.529   3.926  14.781  0.00  0.00    +0.000 NA
ENDROOT
BRANCH   1  11
ATOM     10  C   UNL     1       5.061   3.298  12.046  0.00  0.00    +0.000 C 
ATOM     11  S   UNL     1       6.730   3.910  12.377  0.00  0.00    +0.000 S 
ENDBRANCH   1  11
BRANCH   7  12
ATOM     12  C   UNL     1       3.908   3.489  17.304  0.00  0.00    +0.000 C 
ATOM     13  C   UNL     1       2.723   3.896  17.791  0.00  0.00    +0.000 C 
BRANCH  13  14
ATOM     14  C   UNL     1       2.384   5.141  18.498  0.00  0.00    +0.000 A 
ATOM     15  C   UNL     1       2.018   5.076  19.851  0.00  0.00    +0.000 A 
ATOM     16  C   UNL     1       1.825   6.243  20.596  0.00  0.00    +0.000 A 
ATOM     17  C   UNL     1       1.996   7.489  19.999  0.00  0.00    +0.000 A 
ATOM     18  C   UNL     1       2.357   7.570  18.656  0.00  0.00    +0.000 A 
ATOM     19  C   UNL     1       2.561   6.402  17.915  0.00  0.00    +0.000 A 
ENDBRANCH  13  14
ENDBRANCH   7  12
TORSDOF 3
ENDMDL
MODEL 5
REMARK VINA RESULT:      -7.3      1.094      1.526
REMARK  Name = 
REMARK  4 active torsions:
REMARK  status: ('A' for Active; 'I' for Inactive)
REMARK    1  A    between atoms: C_1  and  S_2
REMARK    2  A    between atoms: S_2  and  C_3
REMARK    3  A    between atoms: C_9  and  C_10
REMARK    4  A    between atoms: C_11  and  C_12
REMARK                            x       y       z     vdW  Elec       q    Type
REMARK                         _______ _______ _______ _____ _____    ______ ____
ROOT
ATOM      1  C   UNL     1       5.782   4.347  14.435  0.00  0.00    +0.000 A 
ATOM      2  N   UNL     1       6.894   3.912  15.089  0.00  0.00    +0.000 NA
ATOM      3  C   UNL     1       6.858   4.565  16.225  0.00  0.00    +0.000 A 
ATOM      4  N   UNL     1       7.723   4.494  17.279  0.00  0.00    +0.000 NA
ATOM      5  C   UNL     1       7.399   5.192  18.322  0.00  0.00    +0.000 A 
ATOM      6  C   UNL     1       6.200   6.058  18.469  0.00  0.00    +0.000 A 
ATOM      7  C   UNL     1       5.396   6.144  17.393  0.00  0.00    +0.000 A 
ATOM      8  N   UNL     1       5.720   5.388  16.251  0.00  0.00    +0.000 N 
ATOM      9  N   UNL     1       5.054   5.262  15.075  0.00  0.00    +0.000 NA
ENDROOT
BRANCH   1  11
ATOM     10  C   UNL     1       6.913   3.677  12.053  0.00  0.00    +0.000 C 
ATOM     11  S   UNL     1       5.303   3.736  12.876  0.00  0.00    +0.000 S 
ENDBRANCH   1  11
BRANCH   7  12
ATOM     12  C   UNL     1       4.236   7.018  17.405  0.00  0.00    +0.000 C 
ATOM     13  C   UNL     1       3.027   6.804  17.953  0.00  0.00    +0.000 C 
BRANCH  13  14
ATOM     14  C   UNL     1       2.496   5.590  18.593  0.00  0.00    +0.000 A 
ATOM     15  C   UNL     1       1.827   4.642  17.803  0.00  0.00    +0.000 A 
ATOM     16  C   UNL     1       1.431   3.415  18.341  0.00  0.00    +0.000 A 
ATOM     17  C   UNL     1       1.699   3.118  19.675  0.00  0.00    +0.000 A 
ATOM     18  C   UNL     1       2.360   4.049  20.472  0.00  0.00    +0.000 A 
ATOM     19  C   UNL     1       2.766   5.273  19.930  0.00  0.00    +0.000 A 
ENDBRANCH  13  14
ENDBRANCH   7  12
TORSDOF 3
ENDMDL
MODEL 6
REMARK VINA RESULT:      -7.3      1.410      2.346
REMARK  Name = 
REMARK  4 active torsions:
REMARK  status: ('A' for Active; 'I' for Inactive)
REMARK    1  A    between atoms: C_1  and  S_2
REMARK    2  A    between atoms: S_2  and  C_3
REMARK    3  A    between atoms: C_9  and  C_10
REMARK    4  A    between atoms: C_11  and  C_12
REMARK                            x       y       z     vdW  Elec       q    Type
REMARK                         _______ _______ _______ _____ _____    ______ ____
ROOT
ATOM      1  C   UNL     1       6.591   4.378  13.991  0.00  0.00    +0.000 A 
ATOM      2  N   UNL     1       7.580   4.934  14.743  0.00  0.00    +0.000 NA
ATOM      3  C   UNL     1       7.078   4.944  15.954  0.00  0.00    +0.000 A 
ATOM      4  N   UNL     1       7.654   5.373  17.114  0.00  0.00    +0.000 NA
ATOM      5  C   UNL     1       6.958   5.186  18.192  0.00  0.00    +0.000 A 
ATOM      6  C   UNL     1       5.608   4.571  18.277  0.00  0.00    +0.000 A 
ATOM      7  C   UNL     1       5.049   4.206  17.108  0.00  0.00    +0.000 A 
ATOM      8  N   UNL     1       5.788   4.389  15.925  0.00  0.00    +0.000 N 
ATOM      9  N   UNL     1       5.475   4.060  14.645  0.00  0.00    +0.000 NA
ENDROOT
BRANCH   1  11
ATOM     10  C   UNL     1       5.227   3.159  11.977  0.00  0.00    +0.000 C 
ATOM     11  S   UNL     1       6.764   4.063  12.287  0.00  0.00    +0.000 S 
ENDBRANCH   1  11
BRANCH   7  12
ATOM     12  C   UNL     1       3.702   3.661  17.071  0.00  0.00    +0.000 C 
ATOM     13  C   UNL     1       2.586   4.139  17.648  0.00  0.00    +0.000 C 
BRANCH  13  14
ATOM     14  C   UNL     1       2.426   5.275  18.569  0.00  0.00    +0.000 A 
ATOM     15  C   UNL     1       2.534   6.579  18.064  0.00  0.00    +0.000 A 
ATOM     16  C   UNL     1       2.251   7.684  18.873  0.00  0.00    +0.000 A 
ATOM     17  C   UNL     1       1.856   7.498  20.195  0.00  0.00    +0.000 A 
ATOM     18  C   UNL     1       1.746   6.209  20.711  0.00  0.00    +0.000 A 
ATOM     19  C   UNL     1       2.019   5.104  19.898  0.00  0.00    +0.000 A 
ENDBRANCH  13  14
ENDBRANCH   7  12
TORSDOF 3
ENDMDL
MODEL 7
REMARK VINA RESULT:      -7.1      1.635      2.506
REMARK  Name = 
REMARK  4 active torsions:
REMARK  status: ('A' for Active; 'I' for Inactive)
REMARK    1  A    between atoms: C_1  and  S_2
REMARK    2  A    between atoms: S_2  and  C_3
REMARK    3  A    between atoms: C_9  and  C_10
REMARK    4  A    between atoms: C_11  and  C_12
REMARK                            x       y       z     vdW  Elec       q    Type
REMARK                         _______ _______ _______ _____ _____    ______ ____
ROOT
ATOM      1  C   UNL     1       6.187   4.346  14.570  0.00  0.00    +0.000 A 
ATOM      2  N   UNL     1       7.122   5.303  14.822  0.00  0.00    +0.000 NA
ATOM      3  C   UNL     1       6.981   5.542  16.103  0.00  0.00    +0.000 A 
ATOM      4  N   UNL     1       7.685   6.402  16.895  0.00  0.00    +0.000 NA
ATOM      5  C   UNL     1       7.392   6.376  18.157  0.00  0.00    +0.000 A 
ATOM      6  C   UNL     1       6.366   5.520  18.808  0.00  0.00    +0.000 A 
ATOM      7  C   UNL     1       5.656   4.720  17.992  0.00  0.00    +0.000 A 
ATOM      8  N   UNL     1       5.962   4.722  16.618  0.00  0.00    +0.000 N 
ATOM      9  N   UNL     1       5.437   3.981  15.609  0.00  0.00    +0.000 NA
ENDROOT
BRANCH   1  11
ATOM     10  C   UNL     1       7.374   4.365  12.122  0.00  0.00    +0.000 C 
ATOM     11  S   UNL     1       5.989   3.607  13.006  0.00  0.00    +0.000 S 
ENDBRANCH   1  11
BRANCH   7  12
ATOM     12  C   UNL     1       4.581   3.895  18.515  0.00  0.00    +0.000 C 
ATOM     13  C   UNL     1       3.341   4.263  18.880  0.00  0.00    +0.000 C 
BRANCH  13  14
ATOM     14  C   UNL     1       2.755   5.611  18.964  0.00  0.00    +0.000 A 
ATOM     15  C   UNL     1       2.252   6.057  20.195  0.00  0.00    +0.000 A 
ATOM     16  C   UNL     1       1.816   7.376  20.352  0.00  0.00    +0.000 A 
ATOM     17  C   UNL     1       1.878   8.264  19.283  0.00  0.00    +0.000 A 
ATOM     18  C   UNL     1       2.373   7.836  18.053  0.00  0.00    +0.000 A 
ATOM     19  C   UNL     1       2.819   6.519  17.900  0.00  0.00    +0.000 A 
ENDBRANCH  13  14
ENDBRANCH   7  12
TORSDOF 3
ENDMDL
MODEL 8
REMARK VINA RESULT:      -7.0      3.177      5.906
REMARK  Name = 
REMARK  4 active torsions:
REMARK  status: ('A' for Active; 'I' for Inactive)
REMARK    1  A    between atoms: C_1  and  S_2
REMARK    2  A    between atoms: S_2  and  C_3
REMARK    3  A    between atoms: C_9  and  C_10
REMARK    4  A    between atoms: C_11  and  C_12
REMARK                            x       y       z     vdW  Elec       q    Type
REMARK                         _______ _______ _______ _____ _____    ______ ____
ROOT
ATOM      1  C   UNL     1       2.569   6.870  18.545  0.00  0.00    +0.000 A 
ATOM      2  N   UNL     1       2.184   6.240  19.689  0.00  0.00    +0.000 NA
ATOM      3  C   UNL     1       2.684   5.035  19.560  0.00  0.00    +0.000 A 
ATOM      4  N   UNL     1       2.623   3.987  20.433  0.00  0.00    +0.000 NA
ATOM      5  C   UNL     1       3.283   2.927  20.087  0.00  0.00    +0.000 A 
ATOM      6  C   UNL     1       4.075   2.745  18.842  0.00  0.00    +0.000 A 
ATOM      7  C   UNL     1       4.072   3.780  17.981  0.00  0.00    +0.000 A 
ATOM      8  N   UNL     1       3.371   4.947  18.338  0.00  0.00    +0.000 N 
ATOM      9  N   UNL     1       3.259   6.128  17.679  0.00  0.00    +0.000 NA
ENDROOT
BRANCH   1  11
ATOM     10  C   UNL     1       1.341   8.980  19.746  0.00  0.00    +0.000 C 
ATOM     11  S   UNL     1       2.221   8.547  18.227  0.00  0.00    +0.000 S 
ENDBRANCH   1  11
BRANCH   7  12
ATOM     12  C   UNL     1       4.755   3.681  16.703  0.00  0.00    +0.000 C 
ATOM     13  C   UNL     1       5.923   4.231  16.329  0.00  0.00    +0.000 C 
BRANCH  13  14
ATOM     14  C   UNL     1       6.784   5.176  17.058  0.00  0.00    +0.000 A 
ATOM     15  C   UNL     1       6.764   6.531  16.695  0.00  0.00    +0.000 A 
ATOM     16  C   UNL     1       7.458   7.483  17.449  0.00  0.00    +0.000 A 
ATOM     17  C   UNL     1       8.177   7.092  18.574  0.00  0.00    +0.000 A 
ATOM     18  C   UNL     1       8.207   5.750  18.947  0.00  0.00    +0.000 A 
ATOM     19  C   UNL     1       7.504   4.801  18.198  0.00  0.00    +0.000 A 
ENDBRANCH  13  14
ENDBRANCH   7  12
TORSDOF 3
ENDMDL
MODEL 9
REMARK VINA RESULT:      -7.0      1.620      2.716
REMARK  Name = 
REMARK  4 active torsions:
REMARK  status: ('A' for Active; 'I' for Inactive)
REMARK    1  A    between atoms: C_1  and  S_2
REMARK    2  A    between atoms: S_2  and  C_3
REMARK    3  A    between atoms: C_9  and  C_10
REMARK    4  A    between atoms: C_11  and  C_12
REMARK                            x       y       z     vdW  Elec       q    Type
REMARK                         _______ _______ _______ _____ _____    ______ ____
ROOT
ATOM      1  C   UNL     1       6.216   4.337  14.578  0.00  0.00    +0.000 A 
ATOM      2  N   UNL     1       7.250   5.120  14.993  0.00  0.00    +0.000 NA
ATOM      3  C   UNL     1       6.983   5.337  16.258  0.00  0.00    +0.000 A 
ATOM      4  N   UNL     1       7.705   6.045  17.174  0.00  0.00    +0.000 NA
ATOM      5  C   UNL     1       7.248   6.028  18.387  0.00  0.00    +0.000 A 
ATOM      6  C   UNL     1       6.025   5.331  18.861  0.00  0.00    +0.000 A 
ATOM      7  C   UNL     1       5.309   4.684  17.922  0.00  0.00    +0.000 A 
ATOM      8  N   UNL     1       5.789   4.680  16.599  0.00  0.00    +0.000 N 
ATOM      9  N   UNL     1       5.288   4.067  15.495  0.00  0.00    +0.000 NA
ENDROOT
BRANCH   1  11
ATOM     10  C   UNL     1       7.394   4.669  12.147  0.00  0.00    +0.000 C 
ATOM     11  S   UNL     1       6.109   3.691  12.964  0.00  0.00    +0.000 S 
ENDBRANCH   1  11
BRANCH   7  12
ATOM     12  C   UNL     1       4.058   4.030  18.264  0.00  0.00    +0.000 C 
ATOM     13  C   UNL     1       2.894   4.588  18.639  0.00  0.00    +0.000 C 
BRANCH  13  14
ATOM     14  C   UNL     1       2.583   5.998  18.920  0.00  0.00    +0.000 A 
ATOM     15  C   UNL     1       2.618   6.924  17.866  0.00  0.00    +0.000 A 
ATOM     16  C   UNL     1       2.195   8.243  18.059  0.00  0.00    +0.000 A 
ATOM     17  C   UNL     1       1.732   8.651  19.306  0.00  0.00    +0.000 A 
ATOM     18  C   UNL     1       1.693   7.744  20.362  0.00  0.00    +0.000 A 
ATOM     19  C   UNL     1       2.105   6.423  20.166  0.00  0.00    +0.000 A 
ENDBRANCH  13  14
ENDBRANCH   7  12
TORSDOF 3
ENDMDL
