MODEL 1
REMARK VINA RESULT:      -7.4      0.000      0.000
REMARK  Name = 
REMARK  8 active torsions:
REMARK  status: ('A' for Active; 'I' for Inactive)
REMARK    1  A    between atoms: C_2  and  C_14
REMARK    2  A    between atoms: N_3  and  C_4
REMARK    3  A    between atoms: C_4  and  C_5
REMARK    4  A    between atoms: C_5  and  C_6
REMARK    5  A    between atoms: C_6  and  C_7
REMARK    6  A    between atoms: C_7  and  C_8
REMARK    7  A    between atoms: C_17  and  C_18
REMARK    8  A    between atoms: C_22  and  O_23
REMARK                            x       y       z     vdW  Elec       q    Type
REMARK                         _______ _______ _______ _____ _____    ______ ____
ROOT
ATOM      1  O   UNL     1       4.268   5.821  19.389  0.00  0.00    +0.000 OA
ATOM      2  C   UNL     1       3.834   6.491  18.460  0.00  0.00    +0.000 C 
ATOM      3  N   UNL     1       4.289   6.396  17.163  0.00  0.00    +0.000 N 
ATOM      4  H   UNL     1       3.953   7.046  16.466  0.00  0.00    +0.000 HD
ENDROOT
BRANCH   2   5
ATOM      5  C   UNL     1       2.771   7.504  18.695  0.00  0.00    +0.000 A 
ATOM      6  C   UNL     1       2.162   7.556  19.949  0.00  0.00    +0.000 A 
ATOM      7  C   UNL     1       1.157   8.497  20.199  0.00  0.00    +0.000 A 
ATOM      8  C   UNL     1       0.736   9.409  19.213  0.00  0.00    +0.000 A 
ATOM      9  C   UNL     1       1.355   9.326  17.952  0.00  0.00    +0.000 A 
ATOM     10  C   UNL     1       2.355   8.379  17.690  0.00  0.00    +0.000 A 
BRANCH   8  11
ATOM     11  C   UNL     1      -0.331  10.400  19.493  0.00  0.00    +0.000 A 
ATOM     12  C   UNL     1      -1.236  10.802  18.491  0.00  0.00    +0.000 A 
ATOM     13  C   UNL     1      -2.219  11.767  18.734  0.00  0.00    +0.000 A 
ATOM     14  C   UNL     1      -2.334  12.344  19.994  0.00  0.00    +0.000 A 
ATOM     15  C   UNL     1      -1.464  11.945  21.001  0.00  0.00    +0.000 A 
ATOM     16  C   UNL     1      -0.474  10.992  20.761  0.00  0.00    +0.000 A 
BRANCH  15  17
ATOM     17  O   UNL     1      -1.541  12.476  22.255  0.00  0.00    +0.000 OA
ATOM     18  H   UNL     1      -1.295  13.414  22.209  0.00  0.00    +0.000 HD
ENDBRANCH  15  17
ENDBRANCH   8  11
ENDBRANCH   2   5
BRANCH   3  19
ATOM     19  C   UNL     1       5.278   5.418  16.766  0.00  0.00    +0.000 C 
BRANCH  19  20
ATOM     20  C   UNL     1       4.644   4.186  16.120  0.00  0.00    +0.000 C 
BRANCH  20  21
ATOM     21  C   UNL     1       4.300   3.100  17.144  0.00  0.00    +0.000 C 
BRANCH  21  22
ATOM     22  C   UNL     1       2.788   2.976  17.344  0.00  0.00    +0.000 C 
BRANCH  22  23
ATOM     23  C   UNL     1       2.400   3.136  18.789  0.00  0.00    +0.000 A 
ATOM     24  C   UNL     1       1.298   3.904  19.170  0.00  0.00    +0.000 A 
ATOM     25  C   UNL     1       0.978   4.030  20.520  0.00  0.00    +0.000 A 
ATOM     26  C   UNL     1       1.782   3.389  21.448  0.00  0.00    +0.000 A 
ATOM     27  N   UNL     1       2.864   2.650  21.119  0.00  0.00    +0.000 NA
ATOM     28  C   UNL     1       3.146   2.541  19.802  0.00  0.00    +0.000 A 
ENDBRANCH  22  23
ENDBRANCH  21  22
ENDBRANCH  20  21
ENDBRANCH  19  20
ENDBRANCH   3  19
TORSDOF 8
ENDMDL
MODEL 2
REMARK VINA RESULT:      -7.4      1.137      1.911
REMARK  Name = 
REMARK  8 active torsions:
REMARK  status: ('A' for Active; 'I' for Inactive)
REMARK    1  A    between atoms: C_2  and  C_14
REMARK    2  A    between atoms: N_3  and  C_4
REMARK    3  A    between atoms: C_4  and  C_5
REMARK    4  A    between atoms: C_5  and  C_6
REMARK    5  A    between atoms: C_6  and  C_7
REMARK    6  A    between atoms: C_7  and  C_8
REMARK    7  A    between atoms: C_17  and  C_18
REMARK    8  A    between atoms: C_22  and  O_23
REMARK                            x       y       z     vdW  Elec       q    Type
REMARK                         _______ _______ _______ _____ _____    ______ ____
ROOT
ATOM      1  O   UNL     1       4.427   5.833  19.381  0.00  0.00    +0.000 OA
ATOM      2  C   UNL     1       3.924   6.452  18.451  0.00  0.00    +0.000 C 
ATOM      3  N   UNL     1       4.312   6.315  17.135  0.00  0.00    +0.000 N 
ATOM      4  H   UNL     1       3.920   6.926  16.432  0.00  0.00    +0.000 HD
ENDROOT
BRANCH   2   5
ATOM      5  C   UNL     1       2.847   7.445  18.703  0.00  0.00    +0.000 A 
ATOM      6  C   UNL     1       2.506   8.335  17.684  0.00  0.00    +0.000 A 
ATOM      7  C   UNL     1       1.498   9.282  17.893  0.00  0.00    +0.000 A 
ATOM      8  C   UNL     1       0.804   9.368  19.115  0.00  0.00    +0.000 A 
ATOM      9  C   UNL     1       1.178   8.470  20.132  0.00  0.00    +0.000 A 
ATOM     10  C   UNL     1       2.194   7.525  19.935  0.00  0.00    +0.000 A 
BRANCH   8  11
ATOM     11  C   UNL     1      -0.261  10.378  19.321  0.00  0.00    +0.000 A 
ATOM     12  C   UNL     1      -0.475  10.968  20.582  0.00  0.00    +0.000 A 
ATOM     13  C   UNL     1      -1.504  11.890  20.797  0.00  0.00    +0.000 A 
ATOM     14  C   UNL     1      -2.338  12.262  19.747  0.00  0.00    +0.000 A 
ATOM     15  C   UNL     1      -2.129  11.707  18.491  0.00  0.00    +0.000 A 
ATOM     16  C   UNL     1      -1.112  10.778  18.275  0.00  0.00    +0.000 A 
BRANCH  15  17
ATOM     17  O   UNL     1      -2.915  12.045  17.428  0.00  0.00    +0.000 OA
ATOM     18  H   UNL     1      -2.641  12.918  17.106  0.00  0.00    +0.000 HD
ENDBRANCH  15  17
ENDBRANCH   8  11
ENDBRANCH   2   5
BRANCH   3  19
ATOM     19  C   UNL     1       5.305   5.348  16.724  0.00  0.00    +0.000 C 
BRANCH  19  20
ATOM     20  C   UNL     1       4.675   4.102  16.100  0.00  0.00    +0.000 C 
BRANCH  20  21
ATOM     21  C   UNL     1       4.263   3.066  17.152  0.00  0.00    +0.000 C 
BRANCH  21  22
ATOM     22  C   UNL     1       2.748   3.064  17.372  0.00  0.00    +0.000 C 
BRANCH  22  23
ATOM     23  C   UNL     1       2.396   3.161  18.832  0.00  0.00    +0.000 A 
ATOM     24  C   UNL     1       3.163   2.528  19.813  0.00  0.00    +0.000 A 
ATOM     25  C   UNL     1       2.798   2.639  21.152  0.00  0.00    +0.000 A 
ATOM     26  C   UNL     1       1.667   3.374  21.465  0.00  0.00    +0.000 A 
ATOM     27  N   UNL     1       0.893   3.988  20.545  0.00  0.00    +0.000 NA
ATOM     28  C   UNL     1       1.275   3.868  19.254  0.00  0.00    +0.000 A 
ENDBRANCH  22  23
ENDBRANCH  21  22
ENDBRANCH  20  21
ENDBRANCH  19  20
ENDBRANCH   3  19
TORSDOF 8
ENDMDL
MODEL 3
REMARK VINA RESULT:      -7.2      2.552      4.306
REMARK  Name = 
REMARK  8 active torsions:
REMARK  status: ('A' for Active; 'I' for Inactive)
REMARK    1  A    between atoms: C_2  and  C_14
REMARK    2  A    between atoms: N_3  and  C_4
REMARK    3  A    between atoms: C_4  and  C_5
REMARK    4  A    between atoms: C_5  and  C_6
REMARK    5  A    between atoms: C_6  and  C_7
REMARK    6  A    between atoms: C_7  and  C_8
REMARK    7  A    between atoms: C_17  and  C_18
REMARK    8  A    between atoms: C_22  and  O_23
REMARK                            x       y       z     vdW  Elec       q    Type
REMARK                         _______ _______ _______ _____ _____    ______ ____
ROOT
ATOM      1  O   UNL     1       1.843   8.402  19.284  0.00  0.00    +0.000 OA
ATOM      2  C   UNL     1       1.335   8.200  20.379  0.00  0.00    +0.000 C 
ATOM      3  N   UNL     1       1.414   7.002  21.057  0.00  0.00    +0.000 N 
ATOM      4  H   UNL     1       0.892   6.876  21.912  0.00  0.00    +0.000 HD
ENDROOT
BRANCH   2   5
ATOM      5  C   UNL     1       0.549   9.268  21.052  0.00  0.00    +0.000 A 
ATOM      6  C   UNL     1       0.177   9.086  22.384  0.00  0.00    +0.000 A 
ATOM      7  C   UNL     1      -0.565  10.072  23.044  0.00  0.00    +0.000 A 
ATOM      8  C   UNL     1      -0.953  11.261  22.397  0.00  0.00    +0.000 A 
ATOM      9  C   UNL     1      -0.580  11.413  21.049  0.00  0.00    +0.000 A 
ATOM     10  C   UNL     1       0.154  10.426  20.378  0.00  0.00    +0.000 A 
BRANCH   8  11
ATOM     11  C   UNL     1      -1.741  12.296  23.109  0.00  0.00    +0.000 A 
ATOM     12  C   UNL     1      -1.218  13.585  23.336  0.00  0.00    +0.000 A 
ATOM     13  C   UNL     1      -1.936  14.554  24.043  0.00  0.00    +0.000 A 
ATOM     14  C   UNL     1      -3.208  14.266  24.528  0.00  0.00    +0.000 A 
ATOM     15  C   UNL     1      -3.748  13.007  24.296  0.00  0.00    +0.000 A 
ATOM     16  C   UNL     1      -3.032  12.033  23.602  0.00  0.00    +0.000 A 
BRANCH  15  17
ATOM     17  O   UNL     1      -4.994  12.678  24.746  0.00  0.00    +0.000 OA
ATOM     18  H   UNL     1      -5.189  11.767  24.474  0.00  0.00    +0.000 HD
ENDBRANCH  15  17
ENDBRANCH   8  11
ENDBRANCH   2   5
BRANCH   3  19
ATOM     19  C   UNL     1       2.192   5.889  20.559  0.00  0.00    +0.000 C 
BRANCH  19  20
ATOM     20  C   UNL     1       1.336   4.643  20.333  0.00  0.00    +0.000 C 
BRANCH  20  21
ATOM     21  C   UNL     1       1.502   4.068  18.922  0.00  0.00    +0.000 C 
BRANCH  21  22
ATOM     22  C   UNL     1       2.615   3.019  18.872  0.00  0.00    +0.000 C 
BRANCH  22  23
ATOM     23  C   UNL     1       3.885   3.581  18.292  0.00  0.00    +0.000 A 
ATOM     24  C   UNL     1       4.028   3.804  16.921  0.00  0.00    +0.000 A 
ATOM     25  C   UNL     1       5.223   4.321  16.426  0.00  0.00    +0.000 A 
ATOM     26  C   UNL     1       6.244   4.587  17.323  0.00  0.00    +0.000 A 
ATOM     27  N   UNL     1       6.149   4.372  18.653  0.00  0.00    +0.000 NA
ATOM     28  C   UNL     1       4.976   3.876  19.105  0.00  0.00    +0.000 A 
ENDBRANCH  22  23
ENDBRANCH  21  22
ENDBRANCH  20  21
ENDBRANCH  19  20
ENDBRANCH   3  19
TORSDOF 8
ENDMDL
MODEL 4
REMARK VINA RESULT:      -7.2      1.822      3.537
REMARK  Name = 
REMARK  8 active torsions:
REMARK  status: ('A' for Active; 'I' for Inactive)
REMARK    1  A    between atoms: C_2  and  C_14
REMARK    2  A    between atoms: N_3  and  C_4
REMARK    3  A    between atoms: C_4  and  C_5
REMARK    4  A    between atoms: C_5  and  C_6
REMARK    5  A    between atoms: C_6  and  C_7
REMARK    6  A    between atoms: C_7  and  C_8
REMARK    7  A    between atoms: C_17  and  C_18
REMARK    8  A    between atoms: C_22  and  O_23
REMARK                            x       y       z     vdW  Elec       q    Type
REMARK                         _______ _______ _______ _____ _____    ______ ____
ROOT
ATOM      1  O   UNL     1       4.200   5.581  19.837  0.00  0.00    +0.000 OA
ATOM      2  C   UNL     1       3.056   5.668  19.410  0.00  0.00    +0.000 C 
ATOM      3  N   UNL     1       2.286   4.585  19.044  0.00  0.00    +0.000 N 
ATOM      4  H   UNL     1       1.386   4.735  18.610  0.00  0.00    +0.000 HD
ENDROOT
BRANCH   2   5
ATOM      5  C   UNL     1       2.420   6.999  19.227  0.00  0.00    +0.000 A 
ATOM      6  C   UNL     1       1.821   7.611  20.328  0.00  0.00    +0.000 A 
ATOM      7  C   UNL     1       1.213   8.863  20.187  0.00  0.00    +0.000 A 
ATOM      8  C   UNL     1       1.186   9.537  18.951  0.00  0.00    +0.000 A 
ATOM      9  C   UNL     1       1.783   8.891  17.852  0.00  0.00    +0.000 A 
ATOM     10  C   UNL     1       2.385   7.632  17.983  0.00  0.00    +0.000 A 
BRANCH   8  11
ATOM     11  C   UNL     1       0.536  10.862  18.816  0.00  0.00    +0.000 A 
ATOM     12  C   UNL     1       1.222  12.049  19.139  0.00  0.00    +0.000 A 
ATOM     13  C   UNL     1       0.604  13.301  19.056  0.00  0.00    +0.000 A 
ATOM     14  C   UNL     1      -0.715  13.401  18.629  0.00  0.00    +0.000 A 
ATOM     15  C   UNL     1      -1.403  12.243  18.286  0.00  0.00    +0.000 A 
ATOM     16  C   UNL     1      -0.795  10.991  18.379  0.00  0.00    +0.000 A 
BRANCH  15  17
ATOM     17  O   UNL     1      -2.696  12.289  17.855  0.00  0.00    +0.000 OA
ATOM     18  H   UNL     1      -2.753  12.914  17.115  0.00  0.00    +0.000 HD
ENDBRANCH  15  17
ENDBRANCH   8  11
ENDBRANCH   2   5
BRANCH   3  19
ATOM     19  C   UNL     1       2.743   3.224  19.217  0.00  0.00    +0.000 C 
BRANCH  19  20
ATOM     20  C   UNL     1       3.048   2.542  17.883  0.00  0.00    +0.000 C 
BRANCH  20  21
ATOM     21  C   UNL     1       3.489   3.538  16.805  0.00  0.00    +0.000 C 
BRANCH  21  22
ATOM     22  C   UNL     1       4.981   3.401  16.494  0.00  0.00    +0.000 C 
BRANCH  22  23
ATOM     23  C   UNL     1       5.739   4.658  16.827  0.00  0.00    +0.000 A 
ATOM     24  C   UNL     1       5.229   5.922  16.522  0.00  0.00    +0.000 A 
ATOM     25  C   UNL     1       5.966   7.059  16.844  0.00  0.00    +0.000 A 
ATOM     26  C   UNL     1       7.198   6.892  17.454  0.00  0.00    +0.000 A 
ATOM     27  N   UNL     1       7.730   5.687  17.753  0.00  0.00    +0.000 NA
ATOM     28  C   UNL     1       6.990   4.602  17.434  0.00  0.00    +0.000 A 
ENDBRANCH  22  23
ENDBRANCH  21  22
ENDBRANCH  20  21
ENDBRANCH  19  20
ENDBRANCH   3  19
TORSDOF 8
ENDMDL
MODEL 5
REMARK VINA RESULT:      -7.0      5.841      9.327
REMARK  Name = 
REMARK  8 active torsions:
REMARK  status: ('A' for Active; 'I' for Inactive)
REMARK    1  A    between atoms: C_2  and  C_14
REMARK    2  A    between atoms: N_3  and  C_4
REMARK    3  A    between atoms: C_4  and  C_5
REMARK    4  A    between atoms: C_5  and  C_6
REMARK    5  A    between atoms: C_6  and  C_7
REMARK    6  A    between atoms: C_7  and  C_8
REMARK    7  A    between atoms: C_17  and  C_18
REMARK    8  A    between atoms: C_22  and  O_23
REMARK                            x       y       z     vdW  Elec       q    Type
REMARK                         _______ _______ _______ _____ _____    ______ ____
ROOT
ATOM      1  O   UNL     1       8.024   7.005  16.247  0.00  0.00    +0.000 OA
ATOM      2  C   UNL     1       7.419   7.308  17.268  0.00  0.00    +0.000 C 
ATOM      3  N   UNL     1       7.726   8.402  18.049  0.00  0.00    +0.000 N 
ATOM      4  H   UNL     1       7.248   8.538  18.929  0.00  0.00    +0.000 HD
ENDROOT
BRANCH   2   5
ATOM      5  C   UNL     1       6.298   6.464  17.758  0.00  0.00    +0.000 A 
ATOM      6  C   UNL     1       5.049   6.594  17.151  0.00  0.00    +0.000 A 
ATOM      7  C   UNL     1       3.973   5.815  17.591  0.00  0.00    +0.000 A 
ATOM      8  C   UNL     1       4.113   4.887  18.642  0.00  0.00    +0.000 A 
ATOM      9  C   UNL     1       5.380   4.787  19.247  0.00  0.00    +0.000 A 
ATOM     10  C   UNL     1       6.459   5.571  18.819  0.00  0.00    +0.000 A 
BRANCH   8  11
ATOM     11  C   UNL     1       2.964   4.070  19.098  0.00  0.00    +0.000 A 
ATOM     12  C   UNL     1       1.953   3.667  18.204  0.00  0.00    +0.000 A 
ATOM     13  C   UNL     1       0.843   2.932  18.633  0.00  0.00    +0.000 A 
ATOM     14  C   UNL     1       0.725   2.563  19.969  0.00  0.00    +0.000 A 
ATOM     15  C   UNL     1       1.723   2.933  20.862  0.00  0.00    +0.000 A 
ATOM     16  C   UNL     1       2.825   3.676  20.441  0.00  0.00    +0.000 A 
BRANCH  15  17
ATOM     17  O   UNL     1       1.656   2.589  22.181  0.00  0.00    +0.000 OA
ATOM     18  H   UNL     1       0.728   2.629  22.463  0.00  0.00    +0.000 HD
ENDBRANCH  15  17
ENDBRANCH   8  11
ENDBRANCH   2   5
BRANCH   3  19
ATOM     19  C   UNL     1       8.752   9.350  17.674  0.00  0.00    +0.000 C 
BRANCH  19  20
ATOM     20  C   UNL     1       8.572  10.700  18.367  0.00  0.00    +0.000 C 
BRANCH  20  21
ATOM     21  C   UNL     1       9.242  10.745  19.744  0.00  0.00    +0.000 C 
BRANCH  21  22
ATOM     22  C   UNL     1      10.704  11.187  19.642  0.00  0.00    +0.000 C 
BRANCH  22  23
ATOM     23  C   UNL     1      10.865  12.376  18.733  0.00  0.00    +0.000 A 
ATOM     24  C   UNL     1      11.412  12.250  17.454  0.00  0.00    +0.000 A 
ATOM     25  C   UNL     1      11.548  13.378  16.648  0.00  0.00    +0.000 A 
ATOM     26  C   UNL     1      11.139  14.600  17.155  0.00  0.00    +0.000 A 
ATOM     27  N   UNL     1      10.619  14.764  18.390  0.00  0.00    +0.000 NA
ATOM     28  C   UNL     1      10.494  13.652  19.147  0.00  0.00    +0.000 A 
ENDBRANCH  22  23
ENDBRANCH  21  22
ENDBRANCH  20  21
ENDBRANCH  19  20
ENDBRANCH   3  19
TORSDOF 8
ENDMDL
MODEL 6
REMARK VINA RESULT:      -7.0      2.512      4.773
REMARK  Name = 
REMARK  8 active torsions:
REMARK  status: ('A' for Active; 'I' for Inactive)
REMARK    1  A    between atoms: C_2  and  C_14
REMARK    2  A    between atoms: N_3  and  C_4
REMARK    3  A    between atoms: C_4  and  C_5
REMARK    4  A    between atoms: C_5  and  C_6
REMARK    5  A    between atoms: C_6  and  C_7
REMARK    6  A    between atoms: C_7  and  C_8
REMARK    7  A    between atoms: C_17  and  C_18
REMARK    8  A    between atoms: C_22  and  O_23
REMARK                            x       y       z     vdW  Elec       q    Type
REMARK                         _______ _______ _______ _____ _____    ______ ____
ROOT
ATOM      1  O   UNL     1       1.876   8.690  18.898  0.00  0.00    +0.000 OA
ATOM      2  C   UNL     1       1.566   8.437  20.055  0.00  0.00    +0.000 C 
ATOM      3  N   UNL     1       1.909   7.271  20.707  0.00  0.00    +0.000 N 
ATOM      4  H   UNL     1       1.538   7.086  21.629  0.00  0.00    +0.000 HD
ENDROOT
BRANCH   2   5
ATOM      5  C   UNL     1       0.744   9.394  20.841  0.00  0.00    +0.000 A 
ATOM      6  C   UNL     1       0.486  10.654  20.301  0.00  0.00    +0.000 A 
ATOM      7  C   UNL     1      -0.282  11.578  21.019  0.00  0.00    +0.000 A 
ATOM      8  C   UNL     1      -0.813  11.272  22.287  0.00  0.00    +0.000 A 
ATOM      9  C   UNL     1      -0.524  10.000  22.816  0.00  0.00    +0.000 A 
ATOM     10  C   UNL     1       0.253   9.073  22.109  0.00  0.00    +0.000 A 
BRANCH   8  11
ATOM     11  C   UNL     1      -1.624  12.262  23.035  0.00  0.00    +0.000 A 
ATOM     12  C   UNL     1      -2.938  11.968  23.447  0.00  0.00    +0.000 A 
ATOM     13  C   UNL     1      -3.726  12.910  24.117  0.00  0.00    +0.000 A 
ATOM     14  C   UNL     1      -3.211  14.169  24.409  0.00  0.00    +0.000 A 
ATOM     15  C   UNL     1      -1.909  14.470  24.029  0.00  0.00    +0.000 A 
ATOM     16  C   UNL     1      -1.124  13.539  23.350  0.00  0.00    +0.000 A 
BRANCH  15  17
ATOM     17  O   UNL     1      -1.357  15.688  24.298  0.00  0.00    +0.000 OA
ATOM     18  H   UNL     1      -0.908  16.007  23.499  0.00  0.00    +0.000 HD
ENDBRANCH  15  17
ENDBRANCH   8  11
ENDBRANCH   2   5
BRANCH   3  19
ATOM     19  C   UNL     1       2.753   6.269  20.095  0.00  0.00    +0.000 C 
BRANCH  19  20
ATOM     20  C   UNL     1       1.967   5.336  19.174  0.00  0.00    +0.000 C 
BRANCH  20  21
ATOM     21  C   UNL     1       2.692   5.073  17.850  0.00  0.00    +0.000 C 
BRANCH  21  22
ATOM     22  C   UNL     1       3.748   6.146  17.568  0.00  0.00    +0.000 C 
BRANCH  22  23
ATOM     23  C   UNL     1       4.908   5.594  16.784  0.00  0.00    +0.000 A 
ATOM     24  C   UNL     1       4.843   4.344  16.163  0.00  0.00    +0.000 A 
ATOM     25  C   UNL     1       5.942   3.869  15.452  0.00  0.00    +0.000 A 
ATOM     26  C   UNL     1       7.078   4.659  15.394  0.00  0.00    +0.000 A 
ATOM     27  N   UNL     1       7.183   5.866  15.992  0.00  0.00    +0.000 NA
ATOM     28  C   UNL     1       6.100   6.303  16.670  0.00  0.00    +0.000 A 
ENDBRANCH  22  23
ENDBRANCH  21  22
ENDBRANCH  20  21
ENDBRANCH  19  20
ENDBRANCH   3  19
TORSDOF 8
ENDMDL
MODEL 7
REMARK VINA RESULT:      -6.9      2.834      8.550
REMARK  Name = 
REMARK  8 active torsions:
REMARK  status: ('A' for Active; 'I' for Inactive)
REMARK    1  A    between atoms: C_2  and  C_14
REMARK    2  A    between atoms: N_3  and  C_4
REMARK    3  A    between atoms: C_4  and  C_5
REMARK    4  A    between atoms: C_5  and  C_6
REMARK    5  A    between atoms: C_6  and  C_7
REMARK    6  A    between atoms: C_7  and  C_8
REMARK    7  A    between atoms: C_17  and  C_18
REMARK    8  A    between atoms: C_22  and  O_23
REMARK                            x       y       z     vdW  Elec       q    Type
REMARK                         _______ _______ _______ _____ _____    ______ ____
ROOT
ATOM      1  O   UNL     1      -0.150  10.426  21.558  0.00  0.00    +0.000 OA
ATOM      2  C   UNL     1       0.564  10.447  20.563  0.00  0.00    +0.000 C 
ATOM      3  N   UNL     1       0.824  11.583  19.826  0.00  0.00    +0.000 N 
ATOM      4  H   UNL     1       1.344  11.511  18.963  0.00  0.00    +0.000 HD
ENDROOT
BRANCH   2   5
ATOM      5  C   UNL     1       1.190   9.197  20.059  0.00  0.00    +0.000 A 
ATOM      6  C   UNL     1       1.533   9.118  18.709  0.00  0.00    +0.000 A 
ATOM      7  C   UNL     1       2.122   7.954  18.205  0.00  0.00    +0.000 A 
ATOM      8  C   UNL     1       2.385   6.842  19.028  0.00  0.00    +0.000 A 
ATOM      9  C   UNL     1       2.014   6.941  20.382  0.00  0.00    +0.000 A 
ATOM     10  C   UNL     1       1.415   8.099  20.893  0.00  0.00    +0.000 A 
BRANCH   8  11
ATOM     11  C   UNL     1       3.008   5.614  18.478  0.00  0.00    +0.000 A 
ATOM     12  C   UNL     1       2.255   4.678  17.743  0.00  0.00    +0.000 A 
ATOM     13  C   UNL     1       2.824   3.497  17.257  0.00  0.00    +0.000 A 
ATOM     14  C   UNL     1       4.170   3.228  17.478  0.00  0.00    +0.000 A 
ATOM     15  C   UNL     1       4.935   4.149  18.184  0.00  0.00    +0.000 A 
ATOM     16  C   UNL     1       4.370   5.323  18.681  0.00  0.00    +0.000 A 
BRANCH  15  17
ATOM     17  O   UNL     1       6.261   3.934  18.421  0.00  0.00    +0.000 OA
ATOM     18  H   UNL     1       6.755   4.120  17.607  0.00  0.00    +0.000 HD
ENDBRANCH  15  17
ENDBRANCH   8  11
ENDBRANCH   2   5
BRANCH   3  19
ATOM     19  C   UNL     1       0.335  12.885  20.223  0.00  0.00    +0.000 C 
BRANCH  19  20
ATOM     20  C   UNL     1      -0.644  13.469  19.204  0.00  0.00    +0.000 C 
BRANCH  20  21
ATOM     21  C   UNL     1      -2.098  13.400  19.684  0.00  0.00    +0.000 C 
BRANCH  21  22
ATOM     22  C   UNL     1      -2.597  11.954  19.753  0.00  0.00    +0.000 C 
BRANCH  22  23
ATOM     23  C   UNL     1      -2.877  11.394  18.385  0.00  0.00    +0.000 A 
ATOM     24  C   UNL     1      -1.995  10.508  17.762  0.00  0.00    +0.000 A 
ATOM     25  C   UNL     1      -2.291  10.018  16.493  0.00  0.00    +0.000 A 
ATOM     26  C   UNL     1      -3.459  10.442  15.881  0.00  0.00    +0.000 A 
ATOM     27  N   UNL     1      -4.329  11.308  16.445  0.00  0.00    +0.000 NA
ATOM     28  C   UNL     1      -4.018  11.762  17.679  0.00  0.00    +0.000 A 
ENDBRANCH  22  23
ENDBRANCH  21  22
ENDBRANCH  20  21
ENDBRANCH  19  20
ENDBRANCH   3  19
TORSDOF 8
ENDMDL
MODEL 8
REMARK VINA RESULT:      -6.9      0.683      1.387
REMARK  Name = 
REMARK  8 active torsions:
REMARK  status: ('A' for Active; 'I' for Inactive)
REMARK    1  A    between atoms: C_2  and  C_14
REMARK    2  A    between atoms: N_3  and  C_4
REMARK    3  A    between atoms: C_4  and  C_5
REMARK    4  A    between atoms: C_5  and  C_6
REMARK    5  A    between atoms: C_6  and  C_7
REMARK    6  A    between atoms: C_7  and  C_8
REMARK    7  A    between atoms: C_17  and  C_18
REMARK    8  A    between atoms: C_22  and  O_23
REMARK                            x       y       z     vdW  Elec       q    Type
REMARK                         _______ _______ _______ _____ _____    ______ ____
ROOT
ATOM      1  O   UNL     1       4.214   5.597  19.458  0.00  0.00    +0.000 OA
ATOM      2  C   UNL     1       3.725   6.323  18.601  0.00  0.00    +0.000 C 
ATOM      3  N   UNL     1       4.078   6.289  17.269  0.00  0.00    +0.000 N 
ATOM      4  H   UNL     1       3.704   6.981  16.635  0.00  0.00    +0.000 HD
ENDROOT
BRANCH   2   5
ATOM      5  C   UNL     1       2.707   7.342  18.970  0.00  0.00    +0.000 A 
ATOM      6  C   UNL     1       2.372   8.321  18.035  0.00  0.00    +0.000 A 
ATOM      7  C   UNL     1       1.419   9.294  18.354  0.00  0.00    +0.000 A 
ATOM      8  C   UNL     1       0.775   9.317  19.606  0.00  0.00    +0.000 A 
ATOM      9  C   UNL     1       1.143   8.327  20.537  0.00  0.00    +0.000 A 
ATOM     10  C   UNL     1       2.104   7.356  20.230  0.00  0.00    +0.000 A 
BRANCH   8  11
ATOM     11  C   UNL     1      -0.232  10.355  19.929  0.00  0.00    +0.000 A 
ATOM     12  C   UNL     1      -1.153  10.806  18.964  0.00  0.00    +0.000 A 
ATOM     13  C   UNL     1      -2.079  11.815  19.247  0.00  0.00    +0.000 A 
ATOM     14  C   UNL     1      -2.121  12.389  20.513  0.00  0.00    +0.000 A 
ATOM     15  C   UNL     1      -1.234  11.943  21.485  0.00  0.00    +0.000 A 
ATOM     16  C   UNL     1      -0.301  10.945  21.204  0.00  0.00    +0.000 A 
BRANCH  15  17
ATOM     17  O   UNL     1      -1.240  12.469  22.744  0.00  0.00    +0.000 OA
ATOM     18  H   UNL     1      -0.794  13.331  22.720  0.00  0.00    +0.000 HD
ENDBRANCH  15  17
ENDBRANCH   8  11
ENDBRANCH   2   5
BRANCH   3  19
ATOM     19  C   UNL     1       5.011   5.315  16.747  0.00  0.00    +0.000 C 
BRANCH  19  20
ATOM     20  C   UNL     1       4.309   4.053  16.246  0.00  0.00    +0.000 C 
BRANCH  20  21
ATOM     21  C   UNL     1       4.317   2.927  17.286  0.00  0.00    +0.000 C 
BRANCH  21  22
ATOM     22  C   UNL     1       2.904   2.403  17.554  0.00  0.00    +0.000 C 
BRANCH  22  23
ATOM     23  C   UNL     1       2.408   2.807  18.917  0.00  0.00    +0.000 A 
ATOM     24  C   UNL     1       3.031   2.359  20.084  0.00  0.00    +0.000 A 
ATOM     25  C   UNL     1       2.536   2.753  21.325  0.00  0.00    +0.000 A 
ATOM     26  C   UNL     1       1.423   3.577  21.356  0.00  0.00    +0.000 A 
ATOM     27  N   UNL     1       0.786   4.019  20.251  0.00  0.00    +0.000 NA
ATOM     28  C   UNL     1       1.292   3.625  19.061  0.00  0.00    +0.000 A 
ENDBRANCH  22  23
ENDBRANCH  21  22
ENDBRANCH  20  21
ENDBRANCH  19  20
ENDBRANCH   3  19
TORSDOF 8
ENDMDL
MODEL 9
REMARK VINA RESULT:      -6.9      5.996      9.488
REMARK  Name = 
REMARK  8 active torsions:
REMARK  status: ('A' for Active; 'I' for Inactive)
REMARK    1  A    between atoms: C_2  and  C_14
REMARK    2  A    between atoms: N_3  and  C_4
REMARK    3  A    between atoms: C_4  and  C_5
REMARK    4  A    between atoms: C_5  and  C_6
REMARK    5  A    between atoms: C_6  and  C_7
REMARK    6  A    between atoms: C_7  and  C_8
REMARK    7  A    between atoms: C_17  and  C_18
REMARK    8  A    between atoms: C_22  and  O_23
REMARK                            x       y       z     vdW  Elec       q    Type
REMARK                         _______ _______ _______ _____ _____    ______ ____
ROOT
ATOM      1  O   UNL     1       8.006   7.052  16.413  0.00  0.00    +0.000 OA
ATOM      2  C   UNL     1       7.258   7.428  17.307  0.00  0.00    +0.000 C 
ATOM      3  N   UNL     1       7.408   8.618  17.986  0.00  0.00    +0.000 N 
ATOM      4  H   UNL     1       6.811   8.822  18.776  0.00  0.00    +0.000 HD
ENDROOT
BRANCH   2   5
ATOM      5  C   UNL     1       6.121   6.577  17.745  0.00  0.00    +0.000 A 
ATOM      6  C   UNL     1       6.327   5.669  18.783  0.00  0.00    +0.000 A 
ATOM      7  C   UNL     1       5.276   4.853  19.216  0.00  0.00    +0.000 A 
ATOM      8  C   UNL     1       3.997   4.921  18.631  0.00  0.00    +0.000 A 
ATOM      9  C   UNL     1       3.820   5.834  17.574  0.00  0.00    +0.000 A 
ATOM     10  C   UNL     1       4.870   6.647  17.128  0.00  0.00    +0.000 A 
BRANCH   8  11
ATOM     11  C   UNL     1       2.894   4.048  19.100  0.00  0.00    +0.000 A 
ATOM     12  C   UNL     1       1.924   3.553  18.207  0.00  0.00    +0.000 A 
ATOM     13  C   UNL     1       0.856   2.764  18.646  0.00  0.00    +0.000 A 
ATOM     14  C   UNL     1       0.739   2.434  19.992  0.00  0.00    +0.000 A 
ATOM     15  C   UNL     1       1.698   2.897  20.885  0.00  0.00    +0.000 A 
ATOM     16  C   UNL     1       2.758   3.693  20.454  0.00  0.00    +0.000 A 
BRANCH  15  17
ATOM     17  O   UNL     1       1.631   2.595  22.214  0.00  0.00    +0.000 OA
ATOM     18  H   UNL     1       2.518   2.690  22.597  0.00  0.00    +0.000 HD
ENDBRANCH  15  17
ENDBRANCH   8  11
ENDBRANCH   2   5
BRANCH   3  19
ATOM     19  C   UNL     1       8.431   9.579  17.636  0.00  0.00    +0.000 C 
BRANCH  19  20
ATOM     20  C   UNL     1       9.305   9.954  18.833  0.00  0.00    +0.000 C 
BRANCH  20  21
ATOM     21  C   UNL     1       9.976  11.321  18.661  0.00  0.00    +0.000 C 
BRANCH  21  22
ATOM     22  C   UNL     1       8.950  12.413  18.348  0.00  0.00    +0.000 C 
BRANCH  22  23
ATOM     23  C   UNL     1       9.610  13.740  18.086  0.00  0.00    +0.000 A 
ATOM     24  C   UNL     1       8.870  14.922  18.005  0.00  0.00    +0.000 A 
ATOM     25  C   UNL     1       9.521  16.128  17.756  0.00  0.00    +0.000 A 
ATOM     26  C   UNL     1      10.896  16.109  17.584  0.00  0.00    +0.000 A 
ATOM     27  N   UNL     1      11.643  14.986  17.641  0.00  0.00    +0.000 NA
ATOM     28  C   UNL     1      10.985  13.832  17.890  0.00  0.00    +0.000 A 
ENDBRANCH  22  23
ENDBRANCH  21  22
ENDBRANCH  20  21
ENDBRANCH  19  20
ENDBRANCH   3  19
TORSDOF 8
ENDMDL
