MODEL 1
REMARK VINA RESULT:      -6.9      0.000      0.000
REMARK  Name = 
REMARK  10 active torsions:
REMARK  status: ('A' for Active; 'I' for Inactive)
REMARK    1  A    between atoms: C_1  and  O_2
REMARK    2  A    between atoms: O_2  and  C_3
REMARK    3  A    between atoms: C_6  and  C_7
REMARK    4  A    between atoms: C_7  and  C_8
REMARK    5  A    between atoms: C_7  and  C_15
REMARK    6  A    between atoms: C_11  and  O_12
REMARK    7  A    between atoms: C_25  and  O_26
REMARK    8  A    between atoms: O_26  and  C_27
REMARK    9  A    between atoms: C_28  and  O_29
REMARK   10  A    between atoms: O_29  and  C_30
REMARK                            x       y       z     vdW  Elec       q    Type
REMARK                         _______ _______ _______ _____ _____    ______ ____
ROOT
ATOM      1  C   UNL     1      -0.176  10.792  19.483  0.00  0.00    +0.000 C 
ENDROOT
BRANCH   1   2
ATOM      2  C   UNL     1      -1.487  10.847  18.652  0.00  0.00    +0.000 A 
ATOM      3  C   UNL     1      -1.594  10.092  17.464  0.00  0.00    +0.000 A 
ATOM      4  C   UNL     1      -2.753  10.065  16.699  0.00  0.00    +0.000 A 
ATOM      5  C   UNL     1      -3.858  10.794  17.104  0.00  0.00    +0.000 A 
ATOM      6  C   UNL     1      -3.822  11.550  18.280  0.00  0.00    +0.000 A 
ATOM      7  C   UNL     1      -4.973  12.269  18.642  0.00  0.00    +0.000 A 
ATOM      8  C   UNL     1      -5.010  13.020  19.811  0.00  0.00    +0.000 A 
ATOM      9  C   UNL     1      -3.900  13.040  20.639  0.00  0.00    +0.000 A 
ATOM     10  C   UNL     1      -2.746  12.325  20.292  0.00  0.00    +0.000 A 
ATOM     11  C   UNL     1      -2.650  11.577  19.090  0.00  0.00    +0.000 A 
ENDBRANCH   1   2
BRANCH   1  15
ATOM     12  C   UNL     1       2.707   7.615  18.626  0.00  0.00    +0.000 A 
ATOM     13  C   UNL     1       2.410   8.600  17.679  0.00  0.00    +0.000 A 
ATOM     14  C   UNL     1       1.490   9.599  17.965  0.00  0.00    +0.000 A 
ATOM     15  C   UNL     1       0.771   9.601  19.173  0.00  0.00    +0.000 A 
ATOM     16  C   UNL     1       0.982   8.545  20.093  0.00  0.00    +0.000 A 
ATOM     17  C   UNL     1       1.970   7.553  19.832  0.00  0.00    +0.000 A 
BRANCH  12  19
ATOM     18  C   UNL     1       4.348   6.792  17.114  0.00  0.00    +0.000 C 
ATOM     19  O   UNL     1       3.697   6.698  18.381  0.00  0.00    +0.000 OA
ENDBRANCH  12  19
BRANCH  16  20
ATOM     20  O   UNL     1       0.140   8.602  21.179  0.00  0.00    +0.000 OA
ATOM     21  C   UNL     1       0.573   9.183  22.397  0.00  0.00    +0.000 C 
ENDBRANCH  16  20
BRANCH  17  22
ATOM     22  O   UNL     1       2.158   6.624  20.823  0.00  0.00    +0.000 OA
ATOM     23  C   UNL     1       1.678   5.297  20.692  0.00  0.00    +0.000 C 
ENDBRANCH  17  22
ENDBRANCH   1  15
BRANCH   1  24
ATOM     24  C   UNL     1       0.682  12.076  19.493  0.00  0.00    +0.000 A 
ATOM     25  C   UNL     1       0.746  12.952  18.397  0.00  0.00    +0.000 A 
ATOM     26  C   UNL     1       1.644  14.025  18.390  0.00  0.00    +0.000 A 
ATOM     27  C   UNL     1       2.472  14.236  19.488  0.00  0.00    +0.000 A 
ATOM     28  C   UNL     1       2.411  13.400  20.595  0.00  0.00    +0.000 A 
ATOM     29  C   UNL     1       1.527  12.321  20.595  0.00  0.00    +0.000 A 
BRANCH  27  30
ATOM     30  O   UNL     1       3.378  15.256  19.512  0.00  0.00    +0.000 OA
ATOM     31  H   UNL     1       3.800  15.312  18.639  0.00  0.00    +0.000 HD
ENDBRANCH  27  30
ENDBRANCH   1  24
TORSDOF 7
ENDMDL
MODEL 2
REMARK VINA RESULT:      -6.9      2.452      6.667
REMARK  Name = 
REMARK  10 active torsions:
REMARK  status: ('A' for Active; 'I' for Inactive)
REMARK    1  A    between atoms: C_1  and  O_2
REMARK    2  A    between atoms: O_2  and  C_3
REMARK    3  A    between atoms: C_6  and  C_7
REMARK    4  A    between atoms: C_7  and  C_8
REMARK    5  A    between atoms: C_7  and  C_15
REMARK    6  A    between atoms: C_11  and  O_12
REMARK    7  A    between atoms: C_25  and  O_26
REMARK    8  A    between atoms: O_26  and  C_27
REMARK    9  A    between atoms: C_28  and  O_29
REMARK   10  A    between atoms: O_29  and  C_30
REMARK                            x       y       z     vdW  Elec       q    Type
REMARK                         _______ _______ _______ _____ _____    ______ ____
ROOT
ATOM      1  C   UNL     1      -0.670  11.776  19.536  0.00  0.00    +0.000 C 
ENDROOT
BRANCH   1   2
ATOM      2  C   UNL     1      -0.036  10.571  20.284  0.00  0.00    +0.000 A 
ATOM      3  C   UNL     1      -0.344  10.353  21.645  0.00  0.00    +0.000 A 
ATOM      4  C   UNL     1       0.156   9.272  22.359  0.00  0.00    +0.000 A 
ATOM      5  C   UNL     1       0.983   8.359  21.728  0.00  0.00    +0.000 A 
ATOM      6  C   UNL     1       1.313   8.509  20.378  0.00  0.00    +0.000 A 
ATOM      7  C   UNL     1       2.156   7.552  19.790  0.00  0.00    +0.000 A 
ATOM      8  C   UNL     1       2.503   7.630  18.447  0.00  0.00    +0.000 A 
ATOM      9  C   UNL     1       1.990   8.660  17.673  0.00  0.00    +0.000 A 
ATOM     10  C   UNL     1       1.145   9.620  18.246  0.00  0.00    +0.000 A 
ATOM     11  C   UNL     1       0.796   9.601  19.621  0.00  0.00    +0.000 A 
ENDBRANCH   1   2
BRANCH   1  15
ATOM     12  C   UNL     1      -4.801  12.873  20.468  0.00  0.00    +0.000 A 
ATOM     13  C   UNL     1      -3.789  12.973  21.428  0.00  0.00    +0.000 A 
ATOM     14  C   UNL     1      -2.485  12.618  21.117  0.00  0.00    +0.000 A 
ATOM     15  C   UNL     1      -2.159  12.069  19.865  0.00  0.00    +0.000 A 
ATOM     16  C   UNL     1      -3.196  11.858  18.923  0.00  0.00    +0.000 A 
ATOM     17  C   UNL     1      -4.525  12.280  19.214  0.00  0.00    +0.000 A 
BRANCH  12  19
ATOM     18  C   UNL     1      -6.296  13.780  22.080  0.00  0.00    +0.000 C 
ATOM     19  O   UNL     1      -6.064  13.332  20.745  0.00  0.00    +0.000 OA
ENDBRANCH  12  19
BRANCH  16  20
ATOM     20  O   UNL     1      -2.766  11.215  17.786  0.00  0.00    +0.000 OA
ATOM     21  C   UNL     1      -2.915   9.811  17.653  0.00  0.00    +0.000 C 
ENDBRANCH  16  20
BRANCH  17  22
ATOM     22  O   UNL     1      -5.438  12.110  18.205  0.00  0.00    +0.000 OA
ATOM     23  C   UNL     1      -6.371  11.045  18.223  0.00  0.00    +0.000 C 
ENDBRANCH  17  22
ENDBRANCH   1  15
BRANCH   1  24
ATOM     24  C   UNL     1       0.096  13.114  19.622  0.00  0.00    +0.000 A 
ATOM     25  C   UNL     1      -0.236  14.228  18.835  0.00  0.00    +0.000 A 
ATOM     26  C   UNL     1       0.569  15.373  18.836  0.00  0.00    +0.000 A 
ATOM     27  C   UNL     1       1.704  15.412  19.639  0.00  0.00    +0.000 A 
ATOM     28  C   UNL     1       2.043  14.334  20.446  0.00  0.00    +0.000 A 
ATOM     29  C   UNL     1       1.248  13.188  20.432  0.00  0.00    +0.000 A 
BRANCH  27  30
ATOM     30  O   UNL     1       2.530  16.498  19.652  0.00  0.00    +0.000 OA
ATOM     31  H   UNL     1       2.961  16.546  20.521  0.00  0.00    +0.000 HD
ENDBRANCH  27  30
ENDBRANCH   1  24
TORSDOF 7
ENDMDL
MODEL 3
REMARK VINA RESULT:      -6.8      0.665      1.065
REMARK  Name = 
REMARK  10 active torsions:
REMARK  status: ('A' for Active; 'I' for Inactive)
REMARK    1  A    between atoms: C_1  and  O_2
REMARK    2  A    between atoms: O_2  and  C_3
REMARK    3  A    between atoms: C_6  and  C_7
REMARK    4  A    between atoms: C_7  and  C_8
REMARK    5  A    between atoms: C_7  and  C_15
REMARK    6  A    between atoms: C_11  and  O_12
REMARK    7  A    between atoms: C_25  and  O_26
REMARK    8  A    between atoms: O_26  and  C_27
REMARK    9  A    between atoms: C_28  and  O_29
REMARK   10  A    between atoms: O_29  and  C_30
REMARK                            x       y       z     vdW  Elec       q    Type
REMARK                         _______ _______ _______ _____ _____    ______ ____
ROOT
ATOM      1  C   UNL     1       0.341  10.577  19.515  0.00  0.00    +0.000 C 
ENDROOT
BRANCH   1   2
ATOM      2  C   UNL     1      -1.000  10.724  18.746  0.00  0.00    +0.000 A 
ATOM      3  C   UNL     1      -1.188  10.030  17.530  0.00  0.00    +0.000 A 
ATOM      4  C   UNL     1      -2.377  10.085  16.815  0.00  0.00    +0.000 A 
ATOM      5  C   UNL     1      -3.433  10.838  17.301  0.00  0.00    +0.000 A 
ATOM      6  C   UNL     1      -3.317  11.535  18.506  0.00  0.00    +0.000 A 
ATOM      7  C   UNL     1      -4.421  12.281  18.951  0.00  0.00    +0.000 A 
ATOM      8  C   UNL     1      -4.378  12.977  20.152  0.00  0.00    +0.000 A 
ATOM      9  C   UNL     1      -3.235  12.914  20.933  0.00  0.00    +0.000 A 
ATOM     10  C   UNL     1      -2.128  12.171  20.503  0.00  0.00    +0.000 A 
ATOM     11  C   UNL     1      -2.112  11.477  19.266  0.00  0.00    +0.000 A 
ENDBRANCH   1   2
BRANCH   1  15
ATOM     12  C   UNL     1       2.945   7.196  18.551  0.00  0.00    +0.000 A 
ATOM     13  C   UNL     1       2.684   8.201  17.615  0.00  0.00    +0.000 A 
ATOM     14  C   UNL     1       1.853   9.265  17.936  0.00  0.00    +0.000 A 
ATOM     15  C   UNL     1       1.184   9.319  19.171  0.00  0.00    +0.000 A 
ATOM     16  C   UNL     1       1.353   8.250  20.084  0.00  0.00    +0.000 A 
ATOM     17  C   UNL     1       2.254   7.188  19.786  0.00  0.00    +0.000 A 
BRANCH  12  19
ATOM     18  C   UNL     1       3.365   5.087  17.536  0.00  0.00    +0.000 C 
ATOM     19  O   UNL     1       3.855   6.209  18.270  0.00  0.00    +0.000 OA
ENDBRANCH  12  19
BRANCH  16  20
ATOM     20  O   UNL     1       0.561   8.369  21.202  0.00  0.00    +0.000 OA
ATOM     21  C   UNL     1       1.040   9.039  22.356  0.00  0.00    +0.000 C 
ENDBRANCH  16  20
BRANCH  17  22
ATOM     22  O   UNL     1       2.412   6.247  20.771  0.00  0.00    +0.000 OA
ATOM     23  C   UNL     1       1.675   5.037  20.762  0.00  0.00    +0.000 C 
ENDBRANCH  17  22
ENDBRANCH   1  15
BRANCH   1  24
ATOM     24  C   UNL     1       1.288  11.796  19.477  0.00  0.00    +0.000 A 
ATOM     25  C   UNL     1       1.678  12.488  20.635  0.00  0.00    +0.000 A 
ATOM     26  C   UNL     1       2.419  13.672  20.547  0.00  0.00    +0.000 A 
ATOM     27  C   UNL     1       2.787  14.160  19.297  0.00  0.00    +0.000 A 
ATOM     28  C   UNL     1       2.436  13.483  18.137  0.00  0.00    +0.000 A 
ATOM     29  C   UNL     1       1.684  12.311  18.225  0.00  0.00    +0.000 A 
BRANCH  27  30
ATOM     30  O   UNL     1       3.488  15.323  19.165  0.00  0.00    +0.000 OA
ATOM     31  H   UNL     1       3.960  15.493  19.997  0.00  0.00    +0.000 HD
ENDBRANCH  27  30
ENDBRANCH   1  24
TORSDOF 7
ENDMDL
MODEL 4
REMARK VINA RESULT:      -6.5      2.405      6.684
REMARK  Name = 
REMARK  10 active torsions:
REMARK  status: ('A' for Active; 'I' for Inactive)
REMARK    1  A    between atoms: C_1  and  O_2
REMARK    2  A    between atoms: O_2  and  C_3
REMARK    3  A    between atoms: C_6  and  C_7
REMARK    4  A    between atoms: C_7  and  C_8
REMARK    5  A    between atoms: C_7  and  C_15
REMARK    6  A    between atoms: C_11  and  O_12
REMARK    7  A    between atoms: C_25  and  O_26
REMARK    8  A    between atoms: O_26  and  C_27
REMARK    9  A    between atoms: C_28  and  O_29
REMARK   10  A    between atoms: O_29  and  C_30
REMARK                            x       y       z     vdW  Elec       q    Type
REMARK                         _______ _______ _______ _____ _____    ______ ____
ROOT
ATOM      1  C   UNL     1      -0.290  12.048  19.730  0.00  0.00    +0.000 C 
ENDROOT
BRANCH   1   2
ATOM      2  C   UNL     1       0.173  10.724  20.398  0.00  0.00    +0.000 A 
ATOM      3  C   UNL     1      -0.233  10.429  21.718  0.00  0.00    +0.000 A 
ATOM      4  C   UNL     1       0.112   9.245  22.358  0.00  0.00    +0.000 A 
ATOM      5  C   UNL     1       0.877   8.304  21.689  0.00  0.00    +0.000 A 
ATOM      6  C   UNL     1       1.297   8.529  20.375  0.00  0.00    +0.000 A 
ATOM      7  C   UNL     1       2.070   7.539  19.746  0.00  0.00    +0.000 A 
ATOM      8  C   UNL     1       2.499   7.691  18.434  0.00  0.00    +0.000 A 
ATOM      9  C   UNL     1       2.138   8.829  17.730  0.00  0.00    +0.000 A 
ATOM     10  C   UNL     1       1.366   9.823  18.343  0.00  0.00    +0.000 A 
ATOM     11  C   UNL     1       0.938   9.728  19.693  0.00  0.00    +0.000 A 
ENDBRANCH   1   2
BRANCH   1  15
ATOM     12  C   UNL     1      -4.004  13.933  21.068  0.00  0.00    +0.000 A 
ATOM     13  C   UNL     1      -2.785  14.207  21.694  0.00  0.00    +0.000 A 
ATOM     14  C   UNL     1      -1.616  13.598  21.260  0.00  0.00    +0.000 A 
ATOM     15  C   UNL     1      -1.637  12.629  20.242  0.00  0.00    +0.000 A 
ATOM     16  C   UNL     1      -2.882  12.261  19.676  0.00  0.00    +0.000 A 
ATOM     17  C   UNL     1      -4.075  12.929  20.074  0.00  0.00    +0.000 A 
BRANCH  12  19
ATOM     18  C   UNL     1      -5.595  14.431  22.764  0.00  0.00    +0.000 C 
ATOM     19  O   UNL     1      -5.135  14.622  21.427  0.00  0.00    +0.000 OA
ENDBRANCH  12  19
BRANCH  16  20
ATOM     20  O   UNL     1      -2.778  11.228  18.775  0.00  0.00    +0.000 OA
ATOM     21  C   UNL     1      -2.845  11.478  17.381  0.00  0.00    +0.000 C 
ENDBRANCH  16  20
BRANCH  17  22
ATOM     22  O   UNL     1      -5.215  12.561  19.407  0.00  0.00    +0.000 OA
ATOM     23  C   UNL     1      -6.142  11.651  19.972  0.00  0.00    +0.000 C 
ENDBRANCH  17  22
ENDBRANCH   1  15
BRANCH   1  24
ATOM     24  C   UNL     1       0.736  13.201  19.711  0.00  0.00    +0.000 A 
ATOM     25  C   UNL     1       0.656  14.271  18.806  0.00  0.00    +0.000 A 
ATOM     26  C   UNL     1       1.682  15.219  18.724  0.00  0.00    +0.000 A 
ATOM     27  C   UNL     1       2.788  15.108  19.561  0.00  0.00    +0.000 A 
ATOM     28  C   UNL     1       2.881  14.074  20.483  0.00  0.00    +0.000 A 
ATOM     29  C   UNL     1       1.865  13.120  20.553  0.00  0.00    +0.000 A 
BRANCH  27  30
ATOM     30  O   UNL     1       3.821  15.996  19.497  0.00  0.00    +0.000 OA
ATOM     31  H   UNL     1       4.218  16.069  20.381  0.00  0.00    +0.000 HD
ENDBRANCH  27  30
ENDBRANCH   1  24
TORSDOF 7
ENDMDL
MODEL 5
REMARK VINA RESULT:      -6.4      2.511      6.757
REMARK  Name = 
REMARK  10 active torsions:
REMARK  status: ('A' for Active; 'I' for Inactive)
REMARK    1  A    between atoms: C_1  and  O_2
REMARK    2  A    between atoms: O_2  and  C_3
REMARK    3  A    between atoms: C_6  and  C_7
REMARK    4  A    between atoms: C_7  and  C_8
REMARK    5  A    between atoms: C_7  and  C_15
REMARK    6  A    between atoms: C_11  and  O_12
REMARK    7  A    between atoms: C_25  and  O_26
REMARK    8  A    between atoms: O_26  and  C_27
REMARK    9  A    between atoms: C_28  and  O_29
REMARK   10  A    between atoms: O_29  and  C_30
REMARK                            x       y       z     vdW  Elec       q    Type
REMARK                         _______ _______ _______ _____ _____    ______ ____
ROOT
ATOM      1  C   UNL     1      -0.668  12.084  19.669  0.00  0.00    +0.000 C 
ENDROOT
BRANCH   1   2
ATOM      2  C   UNL     1      -0.102  10.848  20.422  0.00  0.00    +0.000 A 
ATOM      3  C   UNL     1      -0.447  10.635  21.775  0.00  0.00    +0.000 A 
ATOM      4  C   UNL     1      -0.008   9.530  22.492  0.00  0.00    +0.000 A 
ATOM      5  C   UNL     1       0.792   8.586  21.871  0.00  0.00    +0.000 A 
ATOM      6  C   UNL     1       1.156   8.729  20.529  0.00  0.00    +0.000 A 
ATOM      7  C   UNL     1       1.969   7.741  19.952  0.00  0.00    +0.000 A 
ATOM      8  C   UNL     1       2.346   7.813  18.616  0.00  0.00    +0.000 A 
ATOM      9  C   UNL     1       1.893   8.867  17.840  0.00  0.00    +0.000 A 
ATOM     10  C   UNL     1       1.079   9.859  18.402  0.00  0.00    +0.000 A 
ATOM     11  C   UNL     1       0.702   9.847  19.769  0.00  0.00    +0.000 A 
ENDBRANCH   1   2
BRANCH   1  15
ATOM     12  C   UNL     1      -4.840  13.240  20.302  0.00  0.00    +0.000 A 
ATOM     13  C   UNL     1      -3.828  13.671  21.165  0.00  0.00    +0.000 A 
ATOM     14  C   UNL     1      -2.511  13.293  20.953  0.00  0.00    +0.000 A 
ATOM     15  C   UNL     1      -2.168  12.401  19.922  0.00  0.00    +0.000 A 
ATOM     16  C   UNL     1      -3.200  11.869  19.111  0.00  0.00    +0.000 A 
ATOM     17  C   UNL     1      -4.544  12.303  19.284  0.00  0.00    +0.000 A 
BRANCH  12  19
ATOM     18  C   UNL     1      -6.366  15.038  19.992  0.00  0.00    +0.000 C 
ATOM     19  O   UNL     1      -6.121  13.708  20.450  0.00  0.00    +0.000 OA
ENDBRANCH  12  19
BRANCH  16  20
ATOM     20  O   UNL     1      -2.747  10.926  18.217  0.00  0.00    +0.000 OA
ATOM     21  C   UNL     1      -2.743  11.197  16.825  0.00  0.00    +0.000 C 
ENDBRANCH  16  20
BRANCH  17  22
ATOM     22  O   UNL     1      -5.454  11.795  18.394  0.00  0.00    +0.000 OA
ATOM     23  C   UNL     1      -6.203  10.628  18.686  0.00  0.00    +0.000 C 
ENDBRANCH  17  22
ENDBRANCH   1  15
BRANCH   1  24
ATOM     24  C   UNL     1       0.118  13.403  19.830  0.00  0.00    +0.000 A 
ATOM     25  C   UNL     1       1.019  13.623  20.885  0.00  0.00    +0.000 A 
ATOM     26  C   UNL     1       1.602  14.880  21.078  0.00  0.00    +0.000 A 
ATOM     27  C   UNL     1       1.298  15.920  20.206  0.00  0.00    +0.000 A 
ATOM     28  C   UNL     1       0.429  15.723  19.140  0.00  0.00    +0.000 A 
ATOM     29  C   UNL     1      -0.164  14.474  18.957  0.00  0.00    +0.000 A 
BRANCH  27  30
ATOM     30  O   UNL     1       1.825  17.166  20.372  0.00  0.00    +0.000 OA
ATOM     31  H   UNL     1       2.288  17.416  19.556  0.00  0.00    +0.000 HD
ENDBRANCH  27  30
ENDBRANCH   1  24
TORSDOF 7
ENDMDL
MODEL 6
REMARK VINA RESULT:      -6.2      2.691      6.897
REMARK  Name = 
REMARK  10 active torsions:
REMARK  status: ('A' for Active; 'I' for Inactive)
REMARK    1  A    between atoms: C_1  and  O_2
REMARK    2  A    between atoms: O_2  and  C_3
REMARK    3  A    between atoms: C_6  and  C_7
REMARK    4  A    between atoms: C_7  and  C_8
REMARK    5  A    between atoms: C_7  and  C_15
REMARK    6  A    between atoms: C_11  and  O_12
REMARK    7  A    between atoms: C_25  and  O_26
REMARK    8  A    between atoms: O_26  and  C_27
REMARK    9  A    between atoms: C_28  and  O_29
REMARK   10  A    between atoms: O_29  and  C_30
REMARK                            x       y       z     vdW  Elec       q    Type
REMARK                         _______ _______ _______ _____ _____    ______ ____
ROOT
ATOM      1  C   UNL     1      -1.044  12.296  19.978  0.00  0.00    +0.000 C 
ENDROOT
BRANCH   1   2
ATOM      2  C   UNL     1      -0.543  11.150  20.900  0.00  0.00    +0.000 A 
ATOM      3  C   UNL     1      -0.976  11.095  22.243  0.00  0.00    +0.000 A 
ATOM      4  C   UNL     1      -0.599  10.075  23.107  0.00  0.00    +0.000 A 
ATOM      5  C   UNL     1       0.226   9.061  22.649  0.00  0.00    +0.000 A 
ATOM      6  C   UNL     1       0.675   9.049  21.326  0.00  0.00    +0.000 A 
ATOM      7  C   UNL     1       1.509   7.995  20.917  0.00  0.00    +0.000 A 
ATOM      8  C   UNL     1       1.971   7.913  19.609  0.00  0.00    +0.000 A 
ATOM      9  C   UNL     1       1.583   8.875  18.691  0.00  0.00    +0.000 A 
ATOM     10  C   UNL     1       0.749   9.930  19.084  0.00  0.00    +0.000 A 
ATOM     11  C   UNL     1       0.285  10.076  20.417  0.00  0.00    +0.000 A 
ENDBRANCH   1   2
BRANCH   1  15
ATOM     12  C   UNL     1      -5.227  13.553  20.220  0.00  0.00    +0.000 A 
ATOM     13  C   UNL     1      -4.270  14.040  21.115  0.00  0.00    +0.000 A 
ATOM     14  C   UNL     1      -2.948  13.628  21.027  0.00  0.00    +0.000 A 
ATOM     15  C   UNL     1      -2.551  12.651  20.098  0.00  0.00    +0.000 A 
ATOM     16  C   UNL     1      -3.533  12.068  19.260  0.00  0.00    +0.000 A 
ATOM     17  C   UNL     1      -4.879  12.532  19.303  0.00  0.00    +0.000 A 
BRANCH  12  19
ATOM     18  C   UNL     1      -6.669  15.398  19.807  0.00  0.00    +0.000 C 
ATOM     19  O   UNL     1      -6.507  14.047  20.239  0.00  0.00    +0.000 OA
ENDBRANCH  12  19
BRANCH  16  20
ATOM     20  O   UNL     1      -3.037  11.051  18.479  0.00  0.00    +0.000 OA
ATOM     21  C   UNL     1      -2.585  11.310  17.160  0.00  0.00    +0.000 C 
ENDBRANCH  16  20
BRANCH  17  22
ATOM     22  O   UNL     1      -5.734  11.965  18.394  0.00  0.00    +0.000 OA
ATOM     23  C   UNL     1      -6.060  12.617  17.179  0.00  0.00    +0.000 C 
ENDBRANCH  17  22
ENDBRANCH   1  15
BRANCH   1  24
ATOM     24  C   UNL     1      -0.249  13.619  20.038  0.00  0.00    +0.000 A 
ATOM     25  C   UNL     1      -0.257  14.555  18.991  0.00  0.00    +0.000 A 
ATOM     26  C   UNL     1       0.587  15.670  19.021  0.00  0.00    +0.000 A 
ATOM     27  C   UNL     1       1.434  15.862  20.108  0.00  0.00    +0.000 A 
ATOM     28  C   UNL     1       1.445  14.965  21.168  0.00  0.00    +0.000 A 
ATOM     29  C   UNL     1       0.614  13.845  21.131  0.00  0.00    +0.000 A 
BRANCH  27  30
ATOM     30  O   UNL     1       2.290  16.922  20.166  0.00  0.00    +0.000 OA
ATOM     31  H   UNL     1       2.935  16.835  19.445  0.00  0.00    +0.000 HD
ENDBRANCH  27  30
ENDBRANCH   1  24
TORSDOF 7
ENDMDL
MODEL 7
REMARK VINA RESULT:      -6.2      2.918      5.715
REMARK  Name = 
REMARK  10 active torsions:
REMARK  status: ('A' for Active; 'I' for Inactive)
REMARK    1  A    between atoms: C_1  and  O_2
REMARK    2  A    between atoms: O_2  and  C_3
REMARK    3  A    between atoms: C_6  and  C_7
REMARK    4  A    between atoms: C_7  and  C_8
REMARK    5  A    between atoms: C_7  and  C_15
REMARK    6  A    between atoms: C_11  and  O_12
REMARK    7  A    between atoms: C_25  and  O_26
REMARK    8  A    between atoms: O_26  and  C_27
REMARK    9  A    between atoms: C_28  and  O_29
REMARK   10  A    between atoms: O_29  and  C_30
REMARK                            x       y       z     vdW  Elec       q    Type
REMARK                         _______ _______ _______ _____ _____    ______ ____
ROOT
ATOM      1  C   UNL     1      -2.108  12.429  20.747  0.00  0.00    +0.000 C 
ENDROOT
BRANCH   1   2
ATOM      2  C   UNL     1      -3.204  12.204  19.669  0.00  0.00    +0.000 A 
ATOM      3  C   UNL     1      -4.442  12.873  19.781  0.00  0.00    +0.000 A 
ATOM      4  C   UNL     1      -5.447  12.747  18.831  0.00  0.00    +0.000 A 
ATOM      5  C   UNL     1      -5.242  11.945  17.721  0.00  0.00    +0.000 A 
ATOM      6  C   UNL     1      -4.032  11.269  17.542  0.00  0.00    +0.000 A 
ATOM      7  C   UNL     1      -3.879  10.471  16.397  0.00  0.00    +0.000 A 
ATOM      8  C   UNL     1      -2.693   9.792  16.149  0.00  0.00    +0.000 A 
ATOM      9  C   UNL     1      -1.638   9.924  17.038  0.00  0.00    +0.000 A 
ATOM     10  C   UNL     1      -1.774  10.719  18.183  0.00  0.00    +0.000 A 
ATOM     11  C   UNL     1      -2.980  11.399  18.496  0.00  0.00    +0.000 A 
ENDBRANCH   1   2
BRANCH   1  15
ATOM     12  C   UNL     1       1.410  14.713  19.502  0.00  0.00    +0.000 A 
ATOM     13  C   UNL     1       0.168  14.898  18.886  0.00  0.00    +0.000 A 
ATOM     14  C   UNL     1      -0.937  14.164  19.291  0.00  0.00    +0.000 A 
ATOM     15  C   UNL     1      -0.823  13.156  20.265  0.00  0.00    +0.000 A 
ATOM     16  C   UNL     1       0.452  12.882  20.816  0.00  0.00    +0.000 A 
ATOM     17  C   UNL     1       1.577  13.676  20.451  0.00  0.00    +0.000 A 
BRANCH  12  19
ATOM     18  C   UNL     1       2.156  16.733  18.494  0.00  0.00    +0.000 C 
ATOM     19  O   UNL     1       2.470  15.520  19.177  0.00  0.00    +0.000 OA
ENDBRANCH  12  19
BRANCH  16  20
ATOM     20  O   UNL     1       0.447  11.804  21.670  0.00  0.00    +0.000 OA
ATOM     21  C   UNL     1       0.822  10.517  21.208  0.00  0.00    +0.000 C 
ENDBRANCH  16  20
BRANCH  17  22
ATOM     22  O   UNL     1       2.747  13.387  21.103  0.00  0.00    +0.000 OA
ATOM     23  C   UNL     1       3.452  14.377  21.830  0.00  0.00    +0.000 C 
ENDBRANCH  17  22
ENDBRANCH   1  15
BRANCH   1  24
ATOM     24  C   UNL     1      -2.565  13.113  22.054  0.00  0.00    +0.000 A 
ATOM     25  C   UNL     1      -2.300  14.463  22.335  0.00  0.00    +0.000 A 
ATOM     26  C   UNL     1      -2.602  15.007  23.588  0.00  0.00    +0.000 A 
ATOM     27  C   UNL     1      -3.187  14.204  24.563  0.00  0.00    +0.000 A 
ATOM     28  C   UNL     1      -3.482  12.872  24.304  0.00  0.00    +0.000 A 
ATOM     29  C   UNL     1      -3.166  12.326  23.059  0.00  0.00    +0.000 A 
BRANCH  27  30
ATOM     30  O   UNL     1      -3.475  14.687  25.805  0.00  0.00    +0.000 OA
ATOM     31  H   UNL     1      -3.004  15.529  25.924  0.00  0.00    +0.000 HD
ENDBRANCH  27  30
ENDBRANCH   1  24
TORSDOF 7
ENDMDL
MODEL 8
REMARK VINA RESULT:      -6.2      2.050      6.550
REMARK  Name = 
REMARK  10 active torsions:
REMARK  status: ('A' for Active; 'I' for Inactive)
REMARK    1  A    between atoms: C_1  and  O_2
REMARK    2  A    between atoms: O_2  and  C_3
REMARK    3  A    between atoms: C_6  and  C_7
REMARK    4  A    between atoms: C_7  and  C_8
REMARK    5  A    between atoms: C_7  and  C_15
REMARK    6  A    between atoms: C_11  and  O_12
REMARK    7  A    between atoms: C_25  and  O_26
REMARK    8  A    between atoms: O_26  and  C_27
REMARK    9  A    between atoms: C_28  and  O_29
REMARK   10  A    between atoms: O_29  and  C_30
REMARK                            x       y       z     vdW  Elec       q    Type
REMARK                         _______ _______ _______ _____ _____    ______ ____
ROOT
ATOM      1  C   UNL     1       0.450  10.266  19.392  0.00  0.00    +0.000 C 
ENDROOT
BRANCH   1   2
ATOM      2  C   UNL     1       1.435   9.198  18.843  0.00  0.00    +0.000 A 
ATOM      3  C   UNL     1       2.209   9.485  17.697  0.00  0.00    +0.000 A 
ATOM      4  C   UNL     1       3.137   8.590  17.180  0.00  0.00    +0.000 A 
ATOM      5  C   UNL     1       3.330   7.368  17.803  0.00  0.00    +0.000 A 
ATOM      6  C   UNL     1       2.608   7.030  18.950  0.00  0.00    +0.000 A 
ATOM      7  C   UNL     1       2.845   5.778  19.540  0.00  0.00    +0.000 A 
ATOM      8  C   UNL     1       2.177   5.391  20.695  0.00  0.00    +0.000 A 
ATOM      9  C   UNL     1       1.278   6.267  21.284  0.00  0.00    +0.000 A 
ATOM     10  C   UNL     1       1.033   7.520  20.708  0.00  0.00    +0.000 A 
ATOM     11  C   UNL     1       1.663   7.941  19.509  0.00  0.00    +0.000 A 
ENDBRANCH   1   2
BRANCH   1  15
ATOM     12  C   UNL     1       1.899  14.373  19.804  0.00  0.00    +0.000 A 
ATOM     13  C   UNL     1       2.009  13.683  18.594  0.00  0.00    +0.000 A 
ATOM     14  C   UNL     1       1.548  12.379  18.481  0.00  0.00    +0.000 A 
ATOM     15  C   UNL     1       1.039  11.689  19.594  0.00  0.00    +0.000 A 
ATOM     16  C   UNL     1       1.026  12.340  20.852  0.00  0.00    +0.000 A 
ATOM     17  C   UNL     1       1.439  13.699  20.960  0.00  0.00    +0.000 A 
BRANCH  12  19
ATOM     18  C   UNL     1       3.236  16.143  18.947  0.00  0.00    +0.000 C 
ATOM     19  O   UNL     1       2.252  15.697  19.880  0.00  0.00    +0.000 OA
ENDBRANCH  12  19
BRANCH  16  20
ATOM     20  O   UNL     1       0.610  11.521  21.876  0.00  0.00    +0.000 OA
ATOM     21  C   UNL     1      -0.687  11.662  22.430  0.00  0.00    +0.000 C 
ENDBRANCH  16  20
BRANCH  17  22
ATOM     22  O   UNL     1       1.307  14.264  22.202  0.00  0.00    +0.000 OA
ATOM     23  C   UNL     1       0.247  15.156  22.500  0.00  0.00    +0.000 C 
ENDBRANCH  17  22
ENDBRANCH   1  15
BRANCH   1  24
ATOM     24  C   UNL     1      -0.885  10.420  18.633  0.00  0.00    +0.000 A 
ATOM     25  C   UNL     1      -1.162   9.730  17.441  0.00  0.00    +0.000 A 
ATOM     26  C   UNL     1      -2.321  10.005  16.707  0.00  0.00    +0.000 A 
ATOM     27  C   UNL     1      -3.218  10.961  17.172  0.00  0.00    +0.000 A 
ATOM     28  C   UNL     1      -2.982  11.640  18.360  0.00  0.00    +0.000 A 
ATOM     29  C   UNL     1      -1.818  11.377  19.083  0.00  0.00    +0.000 A 
BRANCH  27  30
ATOM     30  O   UNL     1      -4.347  11.277  16.475  0.00  0.00    +0.000 OA
ATOM     31  H   UNL     1      -4.604  10.507  15.942  0.00  0.00    +0.000 HD
ENDBRANCH  27  30
ENDBRANCH   1  24
TORSDOF 7
ENDMDL
MODEL 9
REMARK VINA RESULT:      -6.1      2.930      7.063
REMARK  Name = 
REMARK  10 active torsions:
REMARK  status: ('A' for Active; 'I' for Inactive)
REMARK    1  A    between atoms: C_1  and  O_2
REMARK    2  A    between atoms: O_2  and  C_3
REMARK    3  A    between atoms: C_6  and  C_7
REMARK    4  A    between atoms: C_7  and  C_8
REMARK    5  A    between atoms: C_7  and  C_15
REMARK    6  A    between atoms: C_11  and  O_12
REMARK    7  A    between atoms: C_25  and  O_26
REMARK    8  A    between atoms: O_26  and  C_27
REMARK    9  A    between atoms: C_28  and  O_29
REMARK   10  A    between atoms: O_29  and  C_30
REMARK                            x       y       z     vdW  Elec       q    Type
REMARK                         _______ _______ _______ _____ _____    ______ ____
ROOT
ATOM      1  C   UNL     1      -1.018  12.010  20.285  0.00  0.00    +0.000 C 
ENDROOT
BRANCH   1   2
ATOM      2  C   UNL     1      -0.261  10.756  20.802  0.00  0.00    +0.000 A 
ATOM      3  C   UNL     1      -0.408  10.357  22.149  0.00  0.00    +0.000 A 
ATOM      4  C   UNL     1       0.209   9.223  22.663  0.00  0.00    +0.000 A 
ATOM      5  C   UNL     1       0.995   8.438  21.836  0.00  0.00    +0.000 A 
ATOM      6  C   UNL     1       1.167   8.769  20.490  0.00  0.00    +0.000 A 
ATOM      7  C   UNL     1       1.975   7.936  19.699  0.00  0.00    +0.000 A 
ATOM      8  C   UNL     1       2.167   8.197  18.347  0.00  0.00    +0.000 A 
ATOM      9  C   UNL     1       1.533   9.285  17.770  0.00  0.00    +0.000 A 
ATOM     10  C   UNL     1       0.722  10.123  18.546  0.00  0.00    +0.000 A 
ATOM     11  C   UNL     1       0.529   9.918  19.937  0.00  0.00    +0.000 A 
ENDBRANCH   1   2
BRANCH   1  15
ATOM     12  C   UNL     1      -4.631  13.223  22.435  0.00  0.00    +0.000 A 
ATOM     13  C   UNL     1      -3.458  12.888  23.118  0.00  0.00    +0.000 A 
ATOM     14  C   UNL     1      -2.322  12.502  22.421  0.00  0.00    +0.000 A 
ATOM     15  C   UNL     1      -2.341  12.353  21.024  0.00  0.00    +0.000 A 
ATOM     16  C   UNL     1      -3.556  12.581  20.331  0.00  0.00    +0.000 A 
ATOM     17  C   UNL     1      -4.706  13.038  21.034  0.00  0.00    +0.000 A 
BRANCH  12  19
ATOM     18  C   UNL     1      -6.532  12.748  23.782  0.00  0.00    +0.000 C 
ATOM     19  O   UNL     1      -5.714  13.712  23.120  0.00  0.00    +0.000 OA
ENDBRANCH  12  19
BRANCH  16  20
ATOM     20  O   UNL     1      -3.470  12.293  18.989  0.00  0.00    +0.000 OA
ATOM     21  C   UNL     1      -4.252  11.255  18.423  0.00  0.00    +0.000 C 
ENDBRANCH  16  20
BRANCH  17  22
ATOM     22  O   UNL     1      -5.806  13.312  20.262  0.00  0.00    +0.000 OA
ATOM     23  C   UNL     1      -6.050  14.613  19.757  0.00  0.00    +0.000 C 
ENDBRANCH  17  22
ENDBRANCH   1  15
BRANCH   1  24
ATOM     24  C   UNL     1      -0.195  13.311  20.179  0.00  0.00    +0.000 A 
ATOM     25  C   UNL     1       0.727  13.706  21.163  0.00  0.00    +0.000 A 
ATOM     26  C   UNL     1       1.346  14.959  21.103  0.00  0.00    +0.000 A 
ATOM     27  C   UNL     1       1.057  15.818  20.048  0.00  0.00    +0.000 A 
ATOM     28  C   UNL     1       0.168  15.444  19.049  0.00  0.00    +0.000 A 
ATOM     29  C   UNL     1      -0.461  14.200  19.117  0.00  0.00    +0.000 A 
BRANCH  27  30
ATOM     30  O   UNL     1       1.619  17.058  19.964  0.00  0.00    +0.000 OA
ATOM     31  H   UNL     1       1.132  17.657  20.553  0.00  0.00    +0.000 HD
ENDBRANCH  27  30
ENDBRANCH   1  24
TORSDOF 7
ENDMDL
