MODEL 1
REMARK VINA RESULT:      -6.5      0.000      0.000
REMARK  Name = 
REMARK  11 active torsions:
REMARK  status: ('A' for Active; 'I' for Inactive)
REMARK    1  A    between atoms: C_1  and  C_2
REMARK    2  A    between atoms: C_6  and  C_8
REMARK    3  A    between atoms: N_15  and  C_16
REMARK    4  A    between atoms: N_15  and  C_21
REMARK    5  A    between atoms: C_16  and  C_17
REMARK    6  A    between atoms: C_17  and  C_18
REMARK    7  A    between atoms: C_18  and  C_19
REMARK    8  A    between atoms: C_18  and  C_20
REMARK    9  A    between atoms: C_21  and  C_22
REMARK   10  A    between atoms: N_24  and  O_25
REMARK   11  A    between atoms: C_27  and  C_28
REMARK                            x       y       z     vdW  Elec       q    Type
REMARK                         _______ _______ _______ _____ _____    ______ ____
ROOT
ATOM      1  C   UNL     1      -1.359  10.674  18.948  0.00  0.00    +0.000 C 
ATOM      2  C   UNL     1      -1.523  10.168  17.497  0.00  0.00    +0.000 C 
ATOM      3  C   UNL     1      -3.017  10.096  17.298  0.00  0.00    +0.000 C 
ATOM      4  C   UNL     1      -3.516  11.287  18.085  0.00  0.00    +0.000 C 
ATOM      5  N   UNL     1      -2.580  11.490  19.175  0.00  0.00    +0.000 N 
ATOM      6  C   UNL     1      -2.719  12.217  20.328  0.00  0.00    +0.000 C 
ATOM      7  O   UNL     1      -1.787  12.216  21.143  0.00  0.00    +0.000 OA
ATOM      8  N   UNL     1      -3.849  12.980  20.592  0.00  0.00    +0.000 N 
ENDROOT
BRANCH   1  14
ATOM      9  C   UNL     1       2.167  17.065  18.582  0.00  0.00    +0.000 C 
ATOM     10  C   UNL     1       2.053  15.583  18.506  0.00  0.00    +0.000 A 
ATOM     11  N   UNL     1       0.810  14.976  18.682  0.00  0.00    +0.000 NA
ATOM     12  C   UNL     1       0.944  13.667  18.660  0.00  0.00    +0.000 A 
ATOM     13  N   UNL     1      -0.114  12.797  18.802  0.00  0.00    +0.000 N 
ATOM     14  C   UNL     1      -0.011  11.438  19.027  0.00  0.00    +0.000 C 
ATOM     15  O   UNL     1       1.033  10.831  19.272  0.00  0.00    +0.000 OA
ATOM     16  S   UNL     1       2.521  13.101  18.340  0.00  0.00    +0.000 S 
ATOM     17  C   UNL     1       3.097  14.704  18.271  0.00  0.00    +0.000 A 
ATOM     18  C   UNL     1       4.534  14.978  18.007  0.00  0.00    +0.000 C 
ATOM     19  H   UNL     1      -1.021  13.243  18.731  0.00  0.00    +0.000 HD
ENDBRANCH   1  14
BRANCH   8  20
ATOM     20  C   UNL     1      -5.114  13.073  19.844  0.00  0.00    +0.000 C 
BRANCH  20  21
ATOM     21  C   UNL     1      -6.236  12.141  20.345  0.00  0.00    +0.000 C 
BRANCH  21  22
ATOM     22  C   UNL     1      -7.172  11.568  19.265  0.00  0.00    +0.000 C 
ATOM     23  C   UNL     1      -7.064  12.336  17.949  0.00  0.00    +0.000 C 
ATOM     24  C   UNL     1      -6.854  10.086  19.022  0.00  0.00    +0.000 C 
ENDBRANCH  21  22
ENDBRANCH  20  21
ENDBRANCH   8  20
BRANCH   8  25
ATOM     25  C   UNL     1      -3.766  13.888  21.752  0.00  0.00    +0.000 C 
BRANCH  25  26
ATOM     26  C   UNL     1      -4.564  13.371  22.960  0.00  0.00    +0.000 C 
ATOM     27  O   UNL     1      -5.566  13.935  23.415  0.00  0.00    +0.000 OA
ATOM     28  N   UNL     1      -4.033  12.234  23.541  0.00  0.00    +0.000 N 
ATOM     29  H   UNL     1      -3.040  12.024  23.472  0.00  0.00    +0.000 HD
BRANCH  28  30
ATOM     30  O   UNL     1      -4.693  11.799  24.717  0.00  0.00    +0.000 OA
ATOM     31  H   UNL     1      -4.869  12.644  25.188  0.00  0.00    +0.000 HD
ENDBRANCH  28  30
ENDBRANCH  25  26
ENDBRANCH   8  25
TORSDOF 7
ENDMDL
MODEL 2
REMARK VINA RESULT:      -6.5      7.646      9.902
REMARK  Name = 
REMARK  11 active torsions:
REMARK  status: ('A' for Active; 'I' for Inactive)
REMARK    1  A    between atoms: C_1  and  C_2
REMARK    2  A    between atoms: C_6  and  C_8
REMARK    3  A    between atoms: N_15  and  C_16
REMARK    4  A    between atoms: N_15  and  C_21
REMARK    5  A    between atoms: C_16  and  C_17
REMARK    6  A    between atoms: C_17  and  C_18
REMARK    7  A    between atoms: C_18  and  C_19
REMARK    8  A    between atoms: C_18  and  C_20
REMARK    9  A    between atoms: C_21  and  C_22
REMARK   10  A    between atoms: N_24  and  O_25
REMARK   11  A    between atoms: C_27  and  C_28
REMARK                            x       y       z     vdW  Elec       q    Type
REMARK                         _______ _______ _______ _____ _____    ______ ____
ROOT
ATOM      1  C   UNL     1       7.066   5.388  17.499  0.00  0.00    +0.000 C 
ATOM      2  C   UNL     1       7.452   5.440  16.003  0.00  0.00    +0.000 C 
ATOM      3  C   UNL     1       6.369   4.645  15.315  0.00  0.00    +0.000 C 
ATOM      4  C   UNL     1       5.138   4.992  16.121  0.00  0.00    +0.000 C 
ATOM      5  N   UNL     1       5.585   5.260  17.475  0.00  0.00    +0.000 N 
ATOM      6  C   UNL     1       4.870   5.319  18.642  0.00  0.00    +0.000 C 
ATOM      7  O   UNL     1       5.478   5.529  19.698  0.00  0.00    +0.000 OA
ATOM      8  N   UNL     1       3.487   5.187  18.671  0.00  0.00    +0.000 N 
ENDROOT
BRANCH   1  14
ATOM      9  C   UNL     1       7.845  12.652  17.284  0.00  0.00    +0.000 C 
ATOM     10  C   UNL     1       8.210  11.270  17.698  0.00  0.00    +0.000 A 
ATOM     11  N   UNL     1       7.482  10.186  17.206  0.00  0.00    +0.000 NA
ATOM     12  C   UNL     1       7.911   9.071  17.757  0.00  0.00    +0.000 A 
ATOM     13  N   UNL     1       7.387   7.832  17.461  0.00  0.00    +0.000 N 
ATOM     14  C   UNL     1       7.623   6.671  18.171  0.00  0.00    +0.000 C 
ATOM     15  O   UNL     1       8.219   6.599  19.246  0.00  0.00    +0.000 OA
ATOM     16  S   UNL     1       9.246   9.242  18.805  0.00  0.00    +0.000 S 
ATOM     17  C   UNL     1       9.238  10.929  18.561  0.00  0.00    +0.000 A 
ATOM     18  C   UNL     1      10.233  11.795  19.247  0.00  0.00    +0.000 C 
ATOM     19  H   UNL     1       6.783   7.828  16.648  0.00  0.00    +0.000 HD
ENDBRANCH   1  14
BRANCH   8  20
ATOM     20  C   UNL     1       2.554   4.841  17.585  0.00  0.00    +0.000 C 
BRANCH  20  21
ATOM     21  C   UNL     1       1.373   3.941  18.004  0.00  0.00    +0.000 C 
BRANCH  21  22
ATOM     22  C   UNL     1       1.698   2.451  18.214  0.00  0.00    +0.000 C 
ATOM     23  C   UNL     1       3.101   2.098  17.724  0.00  0.00    +0.000 C 
ATOM     24  C   UNL     1       1.566   2.085  19.699  0.00  0.00    +0.000 C 
ENDBRANCH  21  22
ENDBRANCH  20  21
ENDBRANCH   8  20
BRANCH   8  25
ATOM     25  C   UNL     1       2.830   5.501  19.954  0.00  0.00    +0.000 C 
BRANCH  25  26
ATOM     26  C   UNL     1       2.279   6.936  19.996  0.00  0.00    +0.000 C 
ATOM     27  O   UNL     1       2.342   7.724  19.044  0.00  0.00    +0.000 OA
ATOM     28  N   UNL     1       1.747   7.299  21.218  0.00  0.00    +0.000 N 
ATOM     29  H   UNL     1       2.064   6.861  22.080  0.00  0.00    +0.000 HD
BRANCH  28  30
ATOM     30  O   UNL     1       1.328   8.650  21.311  0.00  0.00    +0.000 OA
ATOM     31  H   UNL     1       0.353   8.565  21.402  0.00  0.00    +0.000 HD
ENDBRANCH  28  30
ENDBRANCH  25  26
ENDBRANCH   8  25
TORSDOF 7
ENDMDL
MODEL 3
REMARK VINA RESULT:      -6.2      3.931      7.138
REMARK  Name = 
REMARK  11 active torsions:
REMARK  status: ('A' for Active; 'I' for Inactive)
REMARK    1  A    between atoms: C_1  and  C_2
REMARK    2  A    between atoms: C_6  and  C_8
REMARK    3  A    between atoms: N_15  and  C_16
REMARK    4  A    between atoms: N_15  and  C_21
REMARK    5  A    between atoms: C_16  and  C_17
REMARK    6  A    between atoms: C_17  and  C_18
REMARK    7  A    between atoms: C_18  and  C_19
REMARK    8  A    between atoms: C_18  and  C_20
REMARK    9  A    between atoms: C_21  and  C_22
REMARK   10  A    between atoms: N_24  and  O_25
REMARK   11  A    between atoms: C_27  and  C_28
REMARK                            x       y       z     vdW  Elec       q    Type
REMARK                         _______ _______ _______ _____ _____    ______ ____
ROOT
ATOM      1  C   UNL     1      -0.520  10.733  19.843  0.00  0.00    +0.000 C 
ATOM      2  C   UNL     1      -1.467  10.281  18.708  0.00  0.00    +0.000 C 
ATOM      3  C   UNL     1      -2.010  11.571  18.143  0.00  0.00    +0.000 C 
ATOM      4  C   UNL     1      -0.825  12.505  18.248  0.00  0.00    +0.000 C 
ATOM      5  N   UNL     1      -0.048  12.070  19.393  0.00  0.00    +0.000 N 
ATOM      6  C   UNL     1       0.925  12.729  20.097  0.00  0.00    +0.000 C 
ATOM      7  O   UNL     1       1.431  12.166  21.076  0.00  0.00    +0.000 OA
ATOM      8  N   UNL     1       1.386  13.986  19.726  0.00  0.00    +0.000 N 
ENDROOT
BRANCH   1  14
ATOM      9  C   UNL     1       4.689   6.693  16.685  0.00  0.00    +0.000 C 
ATOM     10  C   UNL     1       3.672   7.007  17.726  0.00  0.00    +0.000 A 
ATOM     11  N   UNL     1       2.887   8.152  17.603  0.00  0.00    +0.000 NA
ATOM     12  C   UNL     1       2.118   8.285  18.663  0.00  0.00    +0.000 A 
ATOM     13  N   UNL     1       1.225   9.322  18.823  0.00  0.00    +0.000 N 
ATOM     14  C   UNL     1       0.577   9.647  19.999  0.00  0.00    +0.000 C 
ATOM     15  O   UNL     1       0.804   9.149  21.102  0.00  0.00    +0.000 OA
ATOM     16  S   UNL     1       2.223   7.020  19.802  0.00  0.00    +0.000 S 
ATOM     17  C   UNL     1       3.414   6.250  18.857  0.00  0.00    +0.000 A 
ATOM     18  C   UNL     1       4.017   4.967  19.304  0.00  0.00    +0.000 C 
ATOM     19  H   UNL     1       1.071   9.861  17.980  0.00  0.00    +0.000 HD
ENDBRANCH   1  14
BRANCH   8  20
ATOM     20  C   UNL     1       0.891  14.895  18.678  0.00  0.00    +0.000 C 
BRANCH  20  21
ATOM     21  C   UNL     1      -0.004  16.045  19.183  0.00  0.00    +0.000 C 
BRANCH  21  22
ATOM     22  C   UNL     1      -0.521  17.022  18.111  0.00  0.00    +0.000 C 
ATOM     23  C   UNL     1      -1.656  17.898  18.639  0.00  0.00    +0.000 C 
ATOM     24  C   UNL     1       0.624  17.912  17.610  0.00  0.00    +0.000 C 
ENDBRANCH  21  22
ENDBRANCH  20  21
ENDBRANCH   8  20
BRANCH   8  25
ATOM     25  C   UNL     1       2.588  14.473  20.428  0.00  0.00    +0.000 C 
BRANCH  25  26
ATOM     26  C   UNL     1       3.630  15.067  19.466  0.00  0.00    +0.000 C 
ATOM     27  O   UNL     1       4.019  16.240  19.513  0.00  0.00    +0.000 OA
ATOM     28  N   UNL     1       4.065  14.186  18.494  0.00  0.00    +0.000 N 
ATOM     29  H   UNL     1       3.476  13.417  18.180  0.00  0.00    +0.000 HD
BRANCH  28  30
ATOM     30  O   UNL     1       4.947  14.741  17.534  0.00  0.00    +0.000 OA
ATOM     31  H   UNL     1       5.428  13.950  17.203  0.00  0.00    +0.000 HD
ENDBRANCH  28  30
ENDBRANCH  25  26
ENDBRANCH   8  25
TORSDOF 7
ENDMDL
MODEL 4
REMARK VINA RESULT:      -6.2      5.190      8.137
REMARK  Name = 
REMARK  11 active torsions:
REMARK  status: ('A' for Active; 'I' for Inactive)
REMARK    1  A    between atoms: C_1  and  C_2
REMARK    2  A    between atoms: C_6  and  C_8
REMARK    3  A    between atoms: N_15  and  C_16
REMARK    4  A    between atoms: N_15  and  C_21
REMARK    5  A    between atoms: C_16  and  C_17
REMARK    6  A    between atoms: C_17  and  C_18
REMARK    7  A    between atoms: C_18  and  C_19
REMARK    8  A    between atoms: C_18  and  C_20
REMARK    9  A    between atoms: C_21  and  C_22
REMARK   10  A    between atoms: N_24  and  O_25
REMARK   11  A    between atoms: C_27  and  C_28
REMARK                            x       y       z     vdW  Elec       q    Type
REMARK                         _______ _______ _______ _____ _____    ______ ____
ROOT
ATOM      1  C   UNL     1       0.308   9.907  19.908  0.00  0.00    +0.000 C 
ATOM      2  C   UNL     1      -0.226  10.131  21.342  0.00  0.00    +0.000 C 
ATOM      3  C   UNL     1      -0.286   8.744  21.934  0.00  0.00    +0.000 C 
ATOM      4  C   UNL     1       0.926   8.071  21.330  0.00  0.00    +0.000 C 
ATOM      5  N   UNL     1       1.142   8.682  20.033  0.00  0.00    +0.000 N 
ATOM      6  C   UNL     1       1.893   8.250  18.971  0.00  0.00    +0.000 C 
ATOM      7  O   UNL     1       1.899   8.927  17.936  0.00  0.00    +0.000 OA
ATOM      8  N   UNL     1       2.674   7.103  19.035  0.00  0.00    +0.000 N 
ENDROOT
BRANCH   1  14
ATOM      9  C   UNL     1       4.237  15.735  21.912  0.00  0.00    +0.000 C 
ATOM     10  C   UNL     1       3.333  14.962  21.016  0.00  0.00    +0.000 A 
ATOM     11  N   UNL     1       2.897  13.695  21.401  0.00  0.00    +0.000 NA
ATOM     12  C   UNL     1       2.181  13.156  20.437  0.00  0.00    +0.000 A 
ATOM     13  N   UNL     1       1.608  11.906  20.531  0.00  0.00    +0.000 N 
ATOM     14  C   UNL     1       1.059  11.196  19.482  0.00  0.00    +0.000 C 
ATOM     15  O   UNL     1       1.126  11.510  18.293  0.00  0.00    +0.000 OA
ATOM     16  S   UNL     1       1.917  14.153  19.080  0.00  0.00    +0.000 S 
ATOM     17  C   UNL     1       2.861  15.385  19.785  0.00  0.00    +0.000 A 
ATOM     18  C   UNL     1       3.080  16.670  19.069  0.00  0.00    +0.000 C 
ATOM     19  H   UNL     1       1.619  11.522  21.468  0.00  0.00    +0.000 HD
ENDBRANCH   1  14
BRANCH   8  20
ATOM     20  C   UNL     1       2.766   6.087  20.097  0.00  0.00    +0.000 C 
BRANCH  20  21
ATOM     21  C   UNL     1       1.564   5.125  20.183  0.00  0.00    +0.000 C 
BRANCH  21  22
ATOM     22  C   UNL     1       1.899   3.623  20.220  0.00  0.00    +0.000 C 
ATOM     23  C   UNL     1       1.815   3.054  21.635  0.00  0.00    +0.000 C 
ATOM     24  C   UNL     1       0.951   2.845  19.297  0.00  0.00    +0.000 C 
ENDBRANCH  21  22
ENDBRANCH  20  21
ENDBRANCH   8  20
BRANCH   8  25
ATOM     25  C   UNL     1       3.604   6.885  17.911  0.00  0.00    +0.000 C 
BRANCH  25  26
ATOM     26  C   UNL     1       4.134   5.443  17.859  0.00  0.00    +0.000 C 
ATOM     27  O   UNL     1       3.537   4.510  17.307  0.00  0.00    +0.000 OA
ATOM     28  N   UNL     1       5.326   5.256  18.534  0.00  0.00    +0.000 N 
ATOM     29  H   UNL     1       5.588   5.857  19.313  0.00  0.00    +0.000 HD
BRANCH  28  30
ATOM     30  O   UNL     1       5.780   3.915  18.587  0.00  0.00    +0.000 OA
ATOM     31  H   UNL     1       5.371   3.583  19.417  0.00  0.00    +0.000 HD
ENDBRANCH  28  30
ENDBRANCH  25  26
ENDBRANCH   8  25
TORSDOF 7
ENDMDL
MODEL 5
REMARK VINA RESULT:      -6.2      7.617     11.413
REMARK  Name = 
REMARK  11 active torsions:
REMARK  status: ('A' for Active; 'I' for Inactive)
REMARK    1  A    between atoms: C_1  and  C_2
REMARK    2  A    between atoms: C_6  and  C_8
REMARK    3  A    between atoms: N_15  and  C_16
REMARK    4  A    between atoms: N_15  and  C_21
REMARK    5  A    between atoms: C_16  and  C_17
REMARK    6  A    between atoms: C_17  and  C_18
REMARK    7  A    between atoms: C_18  and  C_19
REMARK    8  A    between atoms: C_18  and  C_20
REMARK    9  A    between atoms: C_21  and  C_22
REMARK   10  A    between atoms: N_24  and  O_25
REMARK   11  A    between atoms: C_27  and  C_28
REMARK                            x       y       z     vdW  Elec       q    Type
REMARK                         _______ _______ _______ _____ _____    ______ ____
ROOT
ATOM      1  C   UNL     1       2.351   5.379  19.450  0.00  0.00    +0.000 C 
ATOM      2  C   UNL     1       2.399   4.730  20.852  0.00  0.00    +0.000 C 
ATOM      3  C   UNL     1       3.268   3.510  20.665  0.00  0.00    +0.000 C 
ATOM      4  C   UNL     1       4.297   3.986  19.663  0.00  0.00    +0.000 C 
ATOM      5  N   UNL     1       3.647   4.985  18.837  0.00  0.00    +0.000 N 
ATOM      6  C   UNL     1       4.018   5.498  17.622  0.00  0.00    +0.000 C 
ATOM      7  O   UNL     1       3.277   6.327  17.079  0.00  0.00    +0.000 OA
ATOM      8  N   UNL     1       5.210   5.146  17.002  0.00  0.00    +0.000 N 
ENDROOT
BRANCH   1  14
ATOM      9  C   UNL     1      -0.963  10.728  23.168  0.00  0.00    +0.000 C 
ATOM     10  C   UNL     1      -0.278  10.131  21.989  0.00  0.00    +0.000 A 
ATOM     11  N   UNL     1       0.089   8.785  22.011  0.00  0.00    +0.000 NA
ATOM     12  C   UNL     1       0.750   8.483  20.914  0.00  0.00    +0.000 A 
ATOM     13  N   UNL     1       1.235   7.222  20.649  0.00  0.00    +0.000 N 
ATOM     14  C   UNL     1       2.131   6.902  19.647  0.00  0.00    +0.000 C 
ATOM     15  O   UNL     1       2.731   7.712  18.938  0.00  0.00    +0.000 OA
ATOM     16  S   UNL     1       0.885   9.744  19.774  0.00  0.00    +0.000 S 
ATOM     17  C   UNL     1       0.051  10.799  20.822  0.00  0.00    +0.000 A 
ATOM     18  C   UNL     1      -0.205  12.209  20.425  0.00  0.00    +0.000 C 
ATOM     19  H   UNL     1       0.877   6.508  21.270  0.00  0.00    +0.000 HD
ENDBRANCH   1  14
BRANCH   8  20
ATOM     20  C   UNL     1       6.203   4.128  17.386  0.00  0.00    +0.000 C 
BRANCH  20  21
ATOM     21  C   UNL     1       7.554   4.688  17.875  0.00  0.00    +0.000 C 
BRANCH  21  22
ATOM     22  C   UNL     1       7.482   5.827  18.908  0.00  0.00    +0.000 C 
ATOM     23  C   UNL     1       8.313   5.522  20.153  0.00  0.00    +0.000 C 
ATOM     24  C   UNL     1       7.962   7.143  18.280  0.00  0.00    +0.000 C 
ENDBRANCH  21  22
ENDBRANCH  20  21
ENDBRANCH   8  20
BRANCH   8  25
ATOM     25  C   UNL     1       5.590   5.943  15.820  0.00  0.00    +0.000 C 
BRANCH  25  26
ATOM     26  C   UNL     1       6.369   5.118  14.783  0.00  0.00    +0.000 C 
ATOM     27  O   UNL     1       7.545   5.342  14.469  0.00  0.00    +0.000 OA
ATOM     28  N   UNL     1       5.624   4.123  14.179  0.00  0.00    +0.000 N 
ATOM     29  H   UNL     1       4.612   4.202  14.096  0.00  0.00    +0.000 HD
BRANCH  28  30
ATOM     30  O   UNL     1       6.291   3.418  13.146  0.00  0.00    +0.000 OA
ATOM     31  H   UNL     1       5.806   2.563  13.124  0.00  0.00    +0.000 HD
ENDBRANCH  28  30
ENDBRANCH  25  26
ENDBRANCH   8  25
TORSDOF 7
ENDMDL
MODEL 6
REMARK VINA RESULT:      -6.2      3.531      6.912
REMARK  Name = 
REMARK  11 active torsions:
REMARK  status: ('A' for Active; 'I' for Inactive)
REMARK    1  A    between atoms: C_1  and  C_2
REMARK    2  A    between atoms: C_6  and  C_8
REMARK    3  A    between atoms: N_15  and  C_16
REMARK    4  A    between atoms: N_15  and  C_21
REMARK    5  A    between atoms: C_16  and  C_17
REMARK    6  A    between atoms: C_17  and  C_18
REMARK    7  A    between atoms: C_18  and  C_19
REMARK    8  A    between atoms: C_18  and  C_20
REMARK    9  A    between atoms: C_21  and  C_22
REMARK   10  A    between atoms: N_24  and  O_25
REMARK   11  A    between atoms: C_27  and  C_28
REMARK                            x       y       z     vdW  Elec       q    Type
REMARK                         _______ _______ _______ _____ _____    ______ ____
ROOT
ATOM      1  C   UNL     1      -3.628  11.695  17.299  0.00  0.00    +0.000 C 
ATOM      2  C   UNL     1      -4.316  10.827  16.220  0.00  0.00    +0.000 C 
ATOM      3  C   UNL     1      -3.169  10.178  15.483  0.00  0.00    +0.000 C 
ATOM      4  C   UNL     1      -2.164   9.929  16.585  0.00  0.00    +0.000 C 
ATOM      5  N   UNL     1      -2.359  10.972  17.574  0.00  0.00    +0.000 N 
ATOM      6  C   UNL     1      -1.537  11.385  18.590  0.00  0.00    +0.000 C 
ATOM      7  O   UNL     1      -1.902  12.333  19.296  0.00  0.00    +0.000 OA
ATOM      8  N   UNL     1      -0.334  10.752  18.874  0.00  0.00    +0.000 N 
ENDROOT
BRANCH   1  14
ATOM      9  C   UNL     1      -6.701  15.966  22.372  0.00  0.00    +0.000 C 
ATOM     10  C   UNL     1      -6.250  14.671  21.795  0.00  0.00    +0.000 A 
ATOM     11  N   UNL     1      -5.568  14.656  20.578  0.00  0.00    +0.000 NA
ATOM     12  C   UNL     1      -5.336  13.414  20.210  0.00  0.00    +0.000 A 
ATOM     13  N   UNL     1      -4.671  13.082  19.050  0.00  0.00    +0.000 N 
ATOM     14  C   UNL     1      -4.609  11.819  18.495  0.00  0.00    +0.000 C 
ATOM     15  O   UNL     1      -5.251  10.838  18.874  0.00  0.00    +0.000 OA
ATOM     16  S   UNL     1      -5.830  12.219  21.322  0.00  0.00    +0.000 S 
ATOM     17  C   UNL     1      -6.448  13.422  22.360  0.00  0.00    +0.000 A 
ATOM     18  C   UNL     1      -7.095  13.049  23.646  0.00  0.00    +0.000 C 
ATOM     19  H   UNL     1      -4.208  13.866  18.607  0.00  0.00    +0.000 HD
ENDBRANCH   1  14
BRANCH   8  20
ATOM     20  C   UNL     1       0.360   9.682  18.137  0.00  0.00    +0.000 C 
BRANCH  20  21
ATOM     21  C   UNL     1       1.675   9.197  18.780  0.00  0.00    +0.000 C 
BRANCH  21  22
ATOM     22  C   UNL     1       2.134   7.778  18.396  0.00  0.00    +0.000 C 
ATOM     23  C   UNL     1       3.414   7.799  17.562  0.00  0.00    +0.000 C 
ATOM     24  C   UNL     1       2.359   6.935  19.659  0.00  0.00    +0.000 C 
ENDBRANCH  21  22
ENDBRANCH  20  21
ENDBRANCH   8  20
BRANCH   8  25
ATOM     25  C   UNL     1       0.331  11.150  20.129  0.00  0.00    +0.000 C 
BRANCH  25  26
ATOM     26  C   UNL     1      -0.354  10.554  21.370  0.00  0.00    +0.000 C 
ATOM     27  O   UNL     1      -0.392   9.343  21.620  0.00  0.00    +0.000 OA
ATOM     28  N   UNL     1      -0.980  11.491  22.171  0.00  0.00    +0.000 N 
ATOM     29  H   UNL     1      -1.322  12.368  21.785  0.00  0.00    +0.000 HD
BRANCH  28  30
ATOM     30  O   UNL     1      -1.705  10.954  23.264  0.00  0.00    +0.000 OA
ATOM     31  H   UNL     1      -2.382  11.647  23.432  0.00  0.00    +0.000 HD
ENDBRANCH  28  30
ENDBRANCH  25  26
ENDBRANCH   8  25
TORSDOF 7
ENDMDL
MODEL 7
REMARK VINA RESULT:      -6.2      3.694      5.948
REMARK  Name = 
REMARK  11 active torsions:
REMARK  status: ('A' for Active; 'I' for Inactive)
REMARK    1  A    between atoms: C_1  and  C_2
REMARK    2  A    between atoms: C_6  and  C_8
REMARK    3  A    between atoms: N_15  and  C_16
REMARK    4  A    between atoms: N_15  and  C_21
REMARK    5  A    between atoms: C_16  and  C_17
REMARK    6  A    between atoms: C_17  and  C_18
REMARK    7  A    between atoms: C_18  and  C_19
REMARK    8  A    between atoms: C_18  and  C_20
REMARK    9  A    between atoms: C_21  and  C_22
REMARK   10  A    between atoms: N_24  and  O_25
REMARK   11  A    between atoms: C_27  and  C_28
REMARK                            x       y       z     vdW  Elec       q    Type
REMARK                         _______ _______ _______ _____ _____    ______ ____
ROOT
ATOM      1  C   UNL     1       0.163  12.077  19.717  0.00  0.00    +0.000 C 
ATOM      2  C   UNL     1       0.275  12.971  20.973  0.00  0.00    +0.000 C 
ATOM      3  C   UNL     1      -0.932  13.874  20.893  0.00  0.00    +0.000 C 
ATOM      4  C   UNL     1      -1.990  12.964  20.310  0.00  0.00    +0.000 C 
ATOM      5  N   UNL     1      -1.301  12.006  19.467  0.00  0.00    +0.000 N 
ATOM      6  C   UNL     1      -1.793  11.177  18.493  0.00  0.00    +0.000 C 
ATOM      7  O   UNL     1      -1.000  10.461  17.870  0.00  0.00    +0.000 OA
ATOM      8  N   UNL     1      -3.151  11.089  18.212  0.00  0.00    +0.000 N 
ENDROOT
BRANCH   1  14
ATOM      9  C   UNL     1       4.074   6.399  17.294  0.00  0.00    +0.000 C 
ATOM     10  C   UNL     1       3.138   7.093  18.220  0.00  0.00    +0.000 A 
ATOM     11  N   UNL     1       2.751   8.406  17.955  0.00  0.00    +0.000 NA
ATOM     12  C   UNL     1       1.993   8.856  18.933  0.00  0.00    +0.000 A 
ATOM     13  N   UNL     1       1.453  10.123  18.947  0.00  0.00    +0.000 N 
ATOM     14  C   UNL     1       0.861  10.729  20.038  0.00  0.00    +0.000 C 
ATOM     15  O   UNL     1       0.853  10.285  21.187  0.00  0.00    +0.000 OA
ATOM     16  S   UNL     1       1.632   7.723  20.155  0.00  0.00    +0.000 S 
ATOM     17  C   UNL     1       2.588   6.551  19.369  0.00  0.00    +0.000 A 
ATOM     18  C   UNL     1       2.739   5.189  19.948  0.00  0.00    +0.000 C 
ATOM     19  H   UNL     1       1.526  10.608  18.061  0.00  0.00    +0.000 HD
ENDBRANCH   1  14
BRANCH   8  20
ATOM     20  C   UNL     1      -4.271  11.890  18.734  0.00  0.00    +0.000 C 
BRANCH  20  21
ATOM     21  C   UNL     1      -5.637  11.174  18.736  0.00  0.00    +0.000 C 
BRANCH  21  22
ATOM     22  C   UNL     1      -6.734  11.808  19.611  0.00  0.00    +0.000 C 
ATOM     23  C   UNL     1      -7.464  10.765  20.455  0.00  0.00    +0.000 C 
ATOM     24  C   UNL     1      -6.125  12.878  20.529  0.00  0.00    +0.000 C 
ENDBRANCH  21  22
ENDBRANCH  20  21
ENDBRANCH   8  20
BRANCH   8  25
ATOM     25  C   UNL     1      -3.560   9.997  17.309  0.00  0.00    +0.000 C 
BRANCH  25  26
ATOM     26  C   UNL     1      -3.549  10.422  15.832  0.00  0.00    +0.000 C 
ATOM     27  O   UNL     1      -4.312  11.271  15.355  0.00  0.00    +0.000 OA
ATOM     28  N   UNL     1      -2.641   9.730  15.053  0.00  0.00    +0.000 N 
ATOM     29  H   UNL     1      -2.342   8.790  15.304  0.00  0.00    +0.000 HD
BRANCH  28  30
ATOM     30  O   UNL     1      -2.686  10.032  13.669  0.00  0.00    +0.000 OA
ATOM     31  H   UNL     1      -3.380   9.420  13.339  0.00  0.00    +0.000 HD
ENDBRANCH  28  30
ENDBRANCH  25  26
ENDBRANCH   8  25
TORSDOF 7
ENDMDL
MODEL 8
REMARK VINA RESULT:      -6.1      4.028      7.155
REMARK  Name = 
REMARK  11 active torsions:
REMARK  status: ('A' for Active; 'I' for Inactive)
REMARK    1  A    between atoms: C_1  and  C_2
REMARK    2  A    between atoms: C_6  and  C_8
REMARK    3  A    between atoms: N_15  and  C_16
REMARK    4  A    between atoms: N_15  and  C_21
REMARK    5  A    between atoms: C_16  and  C_17
REMARK    6  A    between atoms: C_17  and  C_18
REMARK    7  A    between atoms: C_18  and  C_19
REMARK    8  A    between atoms: C_18  and  C_20
REMARK    9  A    between atoms: C_21  and  C_22
REMARK   10  A    between atoms: N_24  and  O_25
REMARK   11  A    between atoms: C_27  and  C_28
REMARK                            x       y       z     vdW  Elec       q    Type
REMARK                         _______ _______ _______ _____ _____    ______ ____
ROOT
ATOM      1  C   UNL     1      -0.382  10.602  19.826  0.00  0.00    +0.000 C 
ATOM      2  C   UNL     1      -1.222  10.290  18.567  0.00  0.00    +0.000 C 
ATOM      3  C   UNL     1      -1.683  11.644  18.086  0.00  0.00    +0.000 C 
ATOM      4  C   UNL     1      -0.496  12.529  18.396  0.00  0.00    +0.000 C 
ATOM      5  N   UNL     1       0.157  11.962  19.560  0.00  0.00    +0.000 N 
ATOM      6  C   UNL     1       1.070  12.521  20.416  0.00  0.00    +0.000 C 
ATOM      7  O   UNL     1       1.467  11.850  21.377  0.00  0.00    +0.000 OA
ATOM      8  N   UNL     1       1.588  13.794  20.218  0.00  0.00    +0.000 N 
ENDROOT
BRANCH   1  14
ATOM      9  C   UNL     1       4.846   6.559  16.705  0.00  0.00    +0.000 C 
ATOM     10  C   UNL     1       3.792   6.853  17.714  0.00  0.00    +0.000 A 
ATOM     11  N   UNL     1       3.048   8.027  17.614  0.00  0.00    +0.000 NA
ATOM     12  C   UNL     1       2.234   8.132  18.644  0.00  0.00    +0.000 A 
ATOM     13  N   UNL     1       1.367   9.188  18.816  0.00  0.00    +0.000 N 
ATOM     14  C   UNL     1       0.673   9.474  19.976  0.00  0.00    +0.000 C 
ATOM     15  O   UNL     1       0.834   8.915  21.062  0.00  0.00    +0.000 OA
ATOM     16  S   UNL     1       2.248   6.809  19.720  0.00  0.00    +0.000 S 
ATOM     17  C   UNL     1       3.459   6.049  18.791  0.00  0.00    +0.000 A 
ATOM     18  C   UNL     1       4.002   4.726  19.199  0.00  0.00    +0.000 C 
ATOM     19  H   UNL     1       1.268   9.772  17.995  0.00  0.00    +0.000 HD
ENDBRANCH   1  14
BRANCH   8  20
ATOM     20  C   UNL     1       1.215  14.815  19.224  0.00  0.00    +0.000 C 
BRANCH  20  21
ATOM     21  C   UNL     1       2.368  15.291  18.316  0.00  0.00    +0.000 C 
BRANCH  21  22
ATOM     22  C   UNL     1       2.574  16.814  18.226  0.00  0.00    +0.000 C 
ATOM     23  C   UNL     1       2.559  17.307  16.780  0.00  0.00    +0.000 C 
ATOM     24  C   UNL     1       1.489  17.544  19.029  0.00  0.00    +0.000 C 
ENDBRANCH  21  22
ENDBRANCH  20  21
ENDBRANCH   8  20
BRANCH   8  25
ATOM     25  C   UNL     1       2.725  14.176  21.077  0.00  0.00    +0.000 C 
BRANCH  25  26
ATOM     26  C   UNL     1       2.380  15.335  22.026  0.00  0.00    +0.000 C 
ATOM     27  O   UNL     1       1.369  15.362  22.740  0.00  0.00    +0.000 OA
ATOM     28  N   UNL     1       3.276  16.386  21.980  0.00  0.00    +0.000 N 
ATOM     29  H   UNL     1       3.824  16.573  21.143  0.00  0.00    +0.000 HD
BRANCH  28  30
ATOM     30  O   UNL     1       2.923  17.509  22.770  0.00  0.00    +0.000 OA
ATOM     31  H   UNL     1       3.799  17.858  23.049  0.00  0.00    +0.000 HD
ENDBRANCH  28  30
ENDBRANCH  25  26
ENDBRANCH   8  25
TORSDOF 7
ENDMDL
MODEL 9
REMARK VINA RESULT:      -6.1      4.127      6.389
REMARK  Name = 
REMARK  11 active torsions:
REMARK  status: ('A' for Active; 'I' for Inactive)
REMARK    1  A    between atoms: C_1  and  C_2
REMARK    2  A    between atoms: C_6  and  C_8
REMARK    3  A    between atoms: N_15  and  C_16
REMARK    4  A    between atoms: N_15  and  C_21
REMARK    5  A    between atoms: C_16  and  C_17
REMARK    6  A    between atoms: C_17  and  C_18
REMARK    7  A    between atoms: C_18  and  C_19
REMARK    8  A    between atoms: C_18  and  C_20
REMARK    9  A    between atoms: C_21  and  C_22
REMARK   10  A    between atoms: N_24  and  O_25
REMARK   11  A    between atoms: C_27  and  C_28
REMARK                            x       y       z     vdW  Elec       q    Type
REMARK                         _______ _______ _______ _____ _____    ______ ____
ROOT
ATOM      1  C   UNL     1       0.497  11.062  19.762  0.00  0.00    +0.000 C 
ATOM      2  C   UNL     1       0.565  11.711  21.164  0.00  0.00    +0.000 C 
ATOM      3  C   UNL     1      -0.579  12.696  21.171  0.00  0.00    +0.000 C 
ATOM      4  C   UNL     1      -1.640  11.978  20.367  0.00  0.00    +0.000 C 
ATOM      5  N   UNL     1      -0.946  11.138  19.411  0.00  0.00    +0.000 N 
ATOM      6  C   UNL     1      -1.410  10.530  18.274  0.00  0.00    +0.000 C 
ATOM      7  O   UNL     1      -0.614   9.882  17.583  0.00  0.00    +0.000 OA
ATOM      8  N   UNL     1      -2.745  10.588  17.895  0.00  0.00    +0.000 N 
ENDROOT
BRANCH   1  14
ATOM      9  C   UNL     1       4.691   5.843  16.832  0.00  0.00    +0.000 C 
ATOM     10  C   UNL     1       3.606   6.368  17.705  0.00  0.00    +0.000 A 
ATOM     11  N   UNL     1       3.305   7.729  17.692  0.00  0.00    +0.000 NA
ATOM     12  C   UNL     1       2.380   7.993  18.590  0.00  0.00    +0.000 A 
ATOM     13  N   UNL     1       1.873   9.255  18.805  0.00  0.00    +0.000 N 
ATOM     14  C   UNL     1       1.091   9.634  19.878  0.00  0.00    +0.000 C 
ATOM     15  O   UNL     1       0.849   8.940  20.867  0.00  0.00    +0.000 OA
ATOM     16  S   UNL     1       1.763   6.636  19.420  0.00  0.00    +0.000 S 
ATOM     17  C   UNL     1       2.830   5.614  18.570  0.00  0.00    +0.000 A 
ATOM     18  C   UNL     1       2.837   4.150  18.828  0.00  0.00    +0.000 C 
ATOM     19  H   UNL     1       2.128   9.924  18.088  0.00  0.00    +0.000 HD
ENDBRANCH   1  14
BRANCH   8  20
ATOM     20  C   UNL     1      -3.854  11.360  18.481  0.00  0.00    +0.000 C 
BRANCH  20  21
ATOM     21  C   UNL     1      -5.245  10.708  18.342  0.00  0.00    +0.000 C 
BRANCH  21  22
ATOM     22  C   UNL     1      -6.393  11.391  19.109  0.00  0.00    +0.000 C 
ATOM     23  C   UNL     1      -5.876  12.261  20.253  0.00  0.00    +0.000 C 
ATOM     24  C   UNL     1      -7.233  12.248  18.151  0.00  0.00    +0.000 C 
ENDBRANCH  21  22
ENDBRANCH  20  21
ENDBRANCH   8  20
BRANCH   8  25
ATOM     25  C   UNL     1      -3.147   9.703  16.786  0.00  0.00    +0.000 C 
BRANCH  25  26
ATOM     26  C   UNL     1      -3.161  10.430  15.431  0.00  0.00    +0.000 C 
ATOM     27  O   UNL     1      -3.028  11.653  15.306  0.00  0.00    +0.000 OA
ATOM     28  N   UNL     1      -3.392   9.601  14.349  0.00  0.00    +0.000 N 
ATOM     29  H   UNL     1      -3.911   8.731  14.455  0.00  0.00    +0.000 HD
BRANCH  28  30
ATOM     30  O   UNL     1      -3.513  10.263  13.102  0.00  0.00    +0.000 OA
ATOM     31  H   UNL     1      -4.410  10.661  13.158  0.00  0.00    +0.000 HD
ENDBRANCH  28  30
ENDBRANCH  25  26
ENDBRANCH   8  25
TORSDOF 7
ENDMDL
