MODEL 1
REMARK VINA RESULT:      -9.6      0.000      0.000
REMARK  Name = 
REMARK  6 active torsions:
REMARK  status: ('A' for Active; 'I' for Inactive)
REMARK    1  A    between atoms: C_2  and  O_3
REMARK    2  A    between atoms: C_2  and  C_4
REMARK    3  A    between atoms: C_6  and  N_7
REMARK    4  A    between atoms: C_8  and  C_10
REMARK    5  A    between atoms: C_16  and  C_17
REMARK    6  A    between atoms: C_20  and  C_21
REMARK                            x       y       z     vdW  Elec       q    Type
REMARK                         _______ _______ _______ _____ _____    ______ ____
ROOT
ATOM      1  C   UNL     1       3.828   3.566  19.426  0.00  0.00    +0.000 A 
ATOM      2  C   UNL     1       4.482   3.430  18.199  0.00  0.00    +0.000 A 
ATOM      3  C   UNL     1       4.386   4.441  17.243  0.00  0.00    +0.000 A 
ATOM      4  C   UNL     1       3.620   5.576  17.526  0.00  0.00    +0.000 A 
ATOM      5  C   UNL     1       2.959   5.737  18.756  0.00  0.00    +0.000 A 
ATOM      6  C   UNL     1       3.038   4.688  19.684  0.00  0.00    +0.000 A 
ENDROOT
BRANCH   5   7
ATOM      7  C   UNL     1       2.311   7.019  19.086  0.00  0.00    +0.000 A 
ATOM      8  C   UNL     1       2.194   8.056  18.152  0.00  0.00    +0.000 A 
ATOM      9  C   UNL     1       1.626   9.287  18.498  0.00  0.00    +0.000 A 
ATOM     10  C   UNL     1       1.129   9.516  19.783  0.00  0.00    +0.000 A 
ATOM     11  C   UNL     1       1.280   8.495  20.732  0.00  0.00    +0.000 A 
ATOM     12  C   UNL     1       1.856   7.272  20.389  0.00  0.00    +0.000 A 
BRANCH  10  13
ATOM     13  C   UNL     1       0.317  10.745  20.170  0.00  0.00    +0.000 C 
ATOM     14  C   UNL     1      -1.094  10.842  19.564  0.00  0.00    +0.000 C 
ATOM     15  C   UNL     1      -1.102  11.440  18.155  0.00  0.00    +0.000 C 
ATOM     16  N   UNL     1      -0.419  12.729  18.103  0.00  0.00    +0.000 NA
ATOM     17  C   UNL     1       0.968  12.610  18.553  0.00  0.00    +0.000 C 
ATOM     18  C   UNL     1       1.063  12.077  19.980  0.00  0.00    +0.000 C 
ATOM     19  H   UNL     1      -0.911  13.392  18.701  0.00  0.00    +0.000 HD
ENDBRANCH  10  13
ENDBRANCH   5   7
BRANCH   3  20
ATOM     20  N   UNL     1       5.066   4.422  16.010  0.00  0.00    +0.000 N 
ATOM     21  C   UNL     1       6.425   4.451  15.798  0.00  0.00    +0.000 C 
ATOM     22  O   UNL     1       7.274   4.422  16.683  0.00  0.00    +0.000 OA
ATOM     23  H   UNL     1       4.499   4.410  15.167  0.00  0.00    +0.000 HD
BRANCH  21  24
ATOM     24  C   UNL     1       6.781   4.533  14.399  0.00  0.00    +0.000 A 
ATOM     25  C   UNL     1       6.322   3.804  13.320  0.00  0.00    +0.000 A 
ATOM     26  C   UNL     1       7.018   4.274  12.186  0.00  0.00    +0.000 A 
ATOM     27  C   UNL     1       7.861   5.262  12.638  0.00  0.00    +0.000 A 
ATOM     28  O   UNL     1       7.720   5.436  13.979  0.00  0.00    +0.000 OA
ENDBRANCH  21  24
ENDBRANCH   3  20
BRANCH   1  30
ATOM     29  O   UNL     1       4.923   1.777  20.542  0.00  0.00    +0.000 OA
ATOM     30  C   UNL     1       3.992   2.560  20.500  0.00  0.00    +0.000 C 
BRANCH  30  31
ATOM     31  O   UNL     1       2.955   2.527  21.368  0.00  0.00    +0.000 OA
ATOM     32  H   UNL     1       2.842   1.689  21.856  0.00  0.00    +0.000 HD
ENDBRANCH  30  31
ENDBRANCH   1  30
TORSDOF 6
ENDMDL
MODEL 2
REMARK VINA RESULT:      -9.4      0.818      1.596
REMARK  Name = 
REMARK  6 active torsions:
REMARK  status: ('A' for Active; 'I' for Inactive)
REMARK    1  A    between atoms: C_2  and  O_3
REMARK    2  A    between atoms: C_2  and  C_4
REMARK    3  A    between atoms: C_6  and  N_7
REMARK    4  A    between atoms: C_8  and  C_10
REMARK    5  A    between atoms: C_16  and  C_17
REMARK    6  A    between atoms: C_20  and  C_21
REMARK                            x       y       z     vdW  Elec       q    Type
REMARK                         _______ _______ _______ _____ _____    ______ ____
ROOT
ATOM      1  C   UNL     1       3.662   3.741  19.355  0.00  0.00    +0.000 A 
ATOM      2  C   UNL     1       4.349   3.542  18.155  0.00  0.00    +0.000 A 
ATOM      3  C   UNL     1       4.359   4.543  17.184  0.00  0.00    +0.000 A 
ATOM      4  C   UNL     1       3.665   5.732  17.425  0.00  0.00    +0.000 A 
ATOM      5  C   UNL     1       2.973   5.957  18.626  0.00  0.00    +0.000 A 
ATOM      6  C   UNL     1       2.944   4.919  19.570  0.00  0.00    +0.000 A 
ENDROOT
BRANCH   5   7
ATOM      7  C   UNL     1       2.405   7.286  18.917  0.00  0.00    +0.000 A 
ATOM      8  C   UNL     1       1.907   7.622  20.183  0.00  0.00    +0.000 A 
ATOM      9  C   UNL     1       1.319   8.868  20.428  0.00  0.00    +0.000 A 
ATOM     10  C   UNL     1       1.235   9.835  19.423  0.00  0.00    +0.000 A 
ATOM     11  C   UNL     1       1.696   9.489  18.145  0.00  0.00    +0.000 A 
ATOM     12  C   UNL     1       2.272   8.242  17.899  0.00  0.00    +0.000 A 
BRANCH  10  13
ATOM     13  C   UNL     1       0.802  11.274  19.668  0.00  0.00    +0.000 C 
ATOM     14  C   UNL     1       0.422  11.629  21.116  0.00  0.00    +0.000 C 
ATOM     15  C   UNL     1      -1.025  11.272  21.461  0.00  0.00    +0.000 C 
ATOM     16  N   UNL     1      -1.974  11.850  20.513  0.00  0.00    +0.000 NA
ATOM     17  C   UNL     1      -1.694  11.403  19.149  0.00  0.00    +0.000 C 
ATOM     18  C   UNL     1      -0.283  11.778  18.701  0.00  0.00    +0.000 C 
ATOM     19  H   UNL     1      -1.909  12.867  20.554  0.00  0.00    +0.000 HD
ENDBRANCH  10  13
ENDBRANCH   5   7
BRANCH   3  20
ATOM     20  N   UNL     1       5.081   4.458  15.978  0.00  0.00    +0.000 N 
ATOM     21  C   UNL     1       6.398   4.787  15.760  0.00  0.00    +0.000 C 
ATOM     22  O   UNL     1       7.185   5.145  16.630  0.00  0.00    +0.000 OA
ATOM     23  H   UNL     1       4.574   4.141  15.155  0.00  0.00    +0.000 HD
BRANCH  21  24
ATOM     24  C   UNL     1       6.789   4.685  14.372  0.00  0.00    +0.000 A 
ATOM     25  C   UNL     1       6.315   3.856  13.374  0.00  0.00    +0.000 A 
ATOM     26  C   UNL     1       7.060   4.153  12.212  0.00  0.00    +0.000 A 
ATOM     27  C   UNL     1       7.945   5.144  12.568  0.00  0.00    +0.000 A 
ATOM     28  O   UNL     1       7.784   5.483  13.875  0.00  0.00    +0.000 OA
ENDBRANCH  21  24
ENDBRANCH   3  20
BRANCH   1  30
ATOM     29  O   UNL     1       2.867   2.658  21.314  0.00  0.00    +0.000 OA
ATOM     30  C   UNL     1       3.715   2.742  20.446  0.00  0.00    +0.000 C 
BRANCH  30  31
ATOM     31  O   UNL     1       4.849   2.002  20.443  0.00  0.00    +0.000 OA
ATOM     32  H   UNL     1       5.644   2.454  20.102  0.00  0.00    +0.000 HD
ENDBRANCH  30  31
ENDBRANCH   1  30
TORSDOF 6
ENDMDL
MODEL 3
REMARK VINA RESULT:      -9.3      0.606      1.027
REMARK  Name = 
REMARK  6 active torsions:
REMARK  status: ('A' for Active; 'I' for Inactive)
REMARK    1  A    between atoms: C_2  and  O_3
REMARK    2  A    between atoms: C_2  and  C_4
REMARK    3  A    between atoms: C_6  and  N_7
REMARK    4  A    between atoms: C_8  and  C_10
REMARK    5  A    between atoms: C_16  and  C_17
REMARK    6  A    between atoms: C_20  and  C_21
REMARK                            x       y       z     vdW  Elec       q    Type
REMARK                         _______ _______ _______ _____ _____    ______ ____
ROOT
ATOM      1  C   UNL     1       3.807   3.616  19.366  0.00  0.00    +0.000 A 
ATOM      2  C   UNL     1       4.480   3.484  18.150  0.00  0.00    +0.000 A 
ATOM      3  C   UNL     1       4.380   4.488  17.185  0.00  0.00    +0.000 A 
ATOM      4  C   UNL     1       3.592   5.610  17.451  0.00  0.00    +0.000 A 
ATOM      5  C   UNL     1       2.911   5.768  18.670  0.00  0.00    +0.000 A 
ATOM      6  C   UNL     1       2.994   4.726  19.606  0.00  0.00    +0.000 A 
ENDROOT
BRANCH   5   7
ATOM      7  C   UNL     1       2.236   7.041  18.983  0.00  0.00    +0.000 A 
ATOM      8  C   UNL     1       2.051   8.042  18.020  0.00  0.00    +0.000 A 
ATOM      9  C   UNL     1       1.460   9.267  18.348  0.00  0.00    +0.000 A 
ATOM     10  C   UNL     1       1.005   9.525  19.644  0.00  0.00    +0.000 A 
ATOM     11  C   UNL     1       1.224   8.541  20.619  0.00  0.00    +0.000 A 
ATOM     12  C   UNL     1       1.824   7.324  20.294  0.00  0.00    +0.000 A 
BRANCH  10  13
ATOM     13  C   UNL     1       0.171  10.741  20.021  0.00  0.00    +0.000 C 
ATOM     14  C   UNL     1      -0.248  11.660  18.861  0.00  0.00    +0.000 C 
ATOM     15  C   UNL     1       0.829  12.678  18.482  0.00  0.00    +0.000 C 
ATOM     16  N   UNL     1       1.277  13.457  19.633  0.00  0.00    +0.000 NA
ATOM     17  C   UNL     1       1.803  12.588  20.686  0.00  0.00    +0.000 C 
ATOM     18  C   UNL     1       0.764  11.579  21.168  0.00  0.00    +0.000 C 
ATOM     19  H   UNL     1       0.491  13.992  20.001  0.00  0.00    +0.000 HD
ENDBRANCH  10  13
ENDBRANCH   5   7
BRANCH   3  20
ATOM     20  N   UNL     1       5.078   4.472  15.963  0.00  0.00    +0.000 N 
ATOM     21  C   UNL     1       6.440   4.464  15.771  0.00  0.00    +0.000 C 
ATOM     22  O   UNL     1       7.275   4.393  16.667  0.00  0.00    +0.000 OA
ATOM     23  H   UNL     1       4.523   4.494  15.111  0.00  0.00    +0.000 HD
BRANCH  21  24
ATOM     24  C   UNL     1       6.819   4.564  14.379  0.00  0.00    +0.000 A 
ATOM     25  C   UNL     1       6.399   3.828  13.289  0.00  0.00    +0.000 A 
ATOM     26  C   UNL     1       7.104   4.323  12.169  0.00  0.00    +0.000 A 
ATOM     27  C   UNL     1       7.912   5.330  12.642  0.00  0.00    +0.000 A 
ATOM     28  O   UNL     1       7.742   5.493  13.981  0.00  0.00    +0.000 OA
ENDBRANCH  21  24
ENDBRANCH   3  20
BRANCH   1  30
ATOM     29  O   UNL     1       3.222   2.543  21.403  0.00  0.00    +0.000 OA
ATOM     30  C   UNL     1       3.972   2.619  20.448  0.00  0.00    +0.000 C 
BRANCH  30  31
ATOM     31  O   UNL     1       5.094   1.873  20.325  0.00  0.00    +0.000 OA
ATOM     32  H   UNL     1       5.120   1.060  20.866  0.00  0.00    +0.000 HD
ENDBRANCH  30  31
ENDBRANCH   1  30
TORSDOF 6
ENDMDL
MODEL 4
REMARK VINA RESULT:      -9.2      1.059      1.689
REMARK  Name = 
REMARK  6 active torsions:
REMARK  status: ('A' for Active; 'I' for Inactive)
REMARK    1  A    between atoms: C_2  and  O_3
REMARK    2  A    between atoms: C_2  and  C_4
REMARK    3  A    between atoms: C_6  and  N_7
REMARK    4  A    between atoms: C_8  and  C_10
REMARK    5  A    between atoms: C_16  and  C_17
REMARK    6  A    between atoms: C_20  and  C_21
REMARK                            x       y       z     vdW  Elec       q    Type
REMARK                         _______ _______ _______ _____ _____    ______ ____
ROOT
ATOM      1  C   UNL     1       2.854   4.092  20.069  0.00  0.00    +0.000 A 
ATOM      2  C   UNL     1       3.589   3.805  18.917  0.00  0.00    +0.000 A 
ATOM      3  C   UNL     1       3.741   4.776  17.927  0.00  0.00    +0.000 A 
ATOM      4  C   UNL     1       3.139   6.025  18.101  0.00  0.00    +0.000 A 
ATOM      5  C   UNL     1       2.401   6.339  19.254  0.00  0.00    +0.000 A 
ATOM      6  C   UNL     1       2.229   5.332  20.216  0.00  0.00    +0.000 A 
ENDROOT
BRANCH   5   7
ATOM      7  C   UNL     1       1.933   7.718  19.483  0.00  0.00    +0.000 A 
ATOM      8  C   UNL     1       1.403   8.130  20.713  0.00  0.00    +0.000 A 
ATOM      9  C   UNL     1       0.911   9.427  20.896  0.00  0.00    +0.000 A 
ATOM     10  C   UNL     1       0.958  10.369  19.864  0.00  0.00    +0.000 A 
ATOM     11  C   UNL     1       1.450   9.948  18.621  0.00  0.00    +0.000 A 
ATOM     12  C   UNL     1       1.930   8.651  18.436  0.00  0.00    +0.000 A 
BRANCH  10  13
ATOM     13  C   UNL     1       0.637  11.845  20.051  0.00  0.00    +0.000 C 
ATOM     14  C   UNL     1      -0.459  12.174  21.080  0.00  0.00    +0.000 C 
ATOM     15  C   UNL     1      -1.873  12.072  20.505  0.00  0.00    +0.000 C 
ATOM     16  N   UNL     1      -2.032  12.874  19.295  0.00  0.00    +0.000 NA
ATOM     17  C   UNL     1      -1.077  12.468  18.264  0.00  0.00    +0.000 C 
ATOM     18  C   UNL     1       0.368  12.601  18.738  0.00  0.00    +0.000 C 
ATOM     19  H   UNL     1      -1.883  13.857  19.523  0.00  0.00    +0.000 HD
ENDBRANCH  10  13
ENDBRANCH   5   7
BRANCH   3  20
ATOM     20  N   UNL     1       4.521   4.598  16.768  0.00  0.00    +0.000 N 
ATOM     21  C   UNL     1       5.839   4.942  16.580  0.00  0.00    +0.000 C 
ATOM     22  O   UNL     1       6.576   5.403  17.447  0.00  0.00    +0.000 OA
ATOM     23  H   UNL     1       4.062   4.191  15.958  0.00  0.00    +0.000 HD
BRANCH  21  24
ATOM     24  C   UNL     1       6.298   4.722  15.226  0.00  0.00    +0.000 A 
ATOM     25  C   UNL     1       5.792   3.898  14.240  0.00  0.00    +0.000 A 
ATOM     26  C   UNL     1       6.635   4.046  13.117  0.00  0.00    +0.000 A 
ATOM     27  C   UNL     1       7.604   4.950  13.483  0.00  0.00    +0.000 A 
ATOM     28  O   UNL     1       7.405   5.375  14.759  0.00  0.00    +0.000 OA
ENDBRANCH  21  24
ENDBRANCH   3  20
BRANCH   1  30
ATOM     29  O   UNL     1       1.866   3.141  22.009  0.00  0.00    +0.000 OA
ATOM     30  C   UNL     1       2.759   3.121  21.183  0.00  0.00    +0.000 C 
BRANCH  30  31
ATOM     31  O   UNL     1       3.814   2.276  21.252  0.00  0.00    +0.000 OA
ATOM     32  H   UNL     1       4.304   2.284  22.096  0.00  0.00    +0.000 HD
ENDBRANCH  30  31
ENDBRANCH   1  30
TORSDOF 6
ENDMDL
MODEL 5
REMARK VINA RESULT:      -8.9      1.230      1.796
REMARK  Name = 
REMARK  6 active torsions:
REMARK  status: ('A' for Active; 'I' for Inactive)
REMARK    1  A    between atoms: C_2  and  O_3
REMARK    2  A    between atoms: C_2  and  C_4
REMARK    3  A    between atoms: C_6  and  N_7
REMARK    4  A    between atoms: C_8  and  C_10
REMARK    5  A    between atoms: C_16  and  C_17
REMARK    6  A    between atoms: C_20  and  C_21
REMARK                            x       y       z     vdW  Elec       q    Type
REMARK                         _______ _______ _______ _____ _____    ______ ____
ROOT
ATOM      1  C   UNL     1       2.370   4.076  20.385  0.00  0.00    +0.000 A 
ATOM      2  C   UNL     1       3.142   3.806  19.254  0.00  0.00    +0.000 A 
ATOM      3  C   UNL     1       3.406   4.819  18.332  0.00  0.00    +0.000 A 
ATOM      4  C   UNL     1       2.878   6.094  18.553  0.00  0.00    +0.000 A 
ATOM      5  C   UNL     1       2.104   6.391  19.687  0.00  0.00    +0.000 A 
ATOM      6  C   UNL     1       1.819   5.345  20.577  0.00  0.00    +0.000 A 
ENDROOT
BRANCH   5   7
ATOM      7  C   UNL     1       1.714   7.783  19.975  0.00  0.00    +0.000 A 
ATOM      8  C   UNL     1       1.324   8.196  21.256  0.00  0.00    +0.000 A 
ATOM      9  C   UNL     1       0.903   9.508  21.501  0.00  0.00    +0.000 A 
ATOM     10  C   UNL     1       0.885  10.462  20.480  0.00  0.00    +0.000 A 
ATOM     11  C   UNL     1       1.237  10.043  19.190  0.00  0.00    +0.000 A 
ATOM     12  C   UNL     1       1.646   8.731  18.944  0.00  0.00    +0.000 A 
BRANCH  10  13
ATOM     13  C   UNL     1       0.642  11.947  20.714  0.00  0.00    +0.000 C 
ATOM     14  C   UNL     1      -0.804  12.434  20.514  0.00  0.00    +0.000 C 
ATOM     15  C   UNL     1      -1.138  12.743  19.054  0.00  0.00    +0.000 C 
ATOM     16  N   UNL     1      -0.183  13.673  18.458  0.00  0.00    +0.000 NA
ATOM     17  C   UNL     1       1.180  13.146  18.526  0.00  0.00    +0.000 C 
ATOM     18  C   UNL     1       1.616  12.870  19.962  0.00  0.00    +0.000 C 
ATOM     19  H   UNL     1      -0.225  14.561  18.957  0.00  0.00    +0.000 HD
ENDBRANCH  10  13
ENDBRANCH   5   7
BRANCH   3  20
ATOM     20  N   UNL     1       4.231   4.656  17.203  0.00  0.00    +0.000 N 
ATOM     21  C   UNL     1       5.498   5.154  17.007  0.00  0.00    +0.000 C 
ATOM     22  O   UNL     1       6.147   5.773  17.844  0.00  0.00    +0.000 OA
ATOM     23  H   UNL     1       3.849   4.130  16.421  0.00  0.00    +0.000 HD
BRANCH  21  24
ATOM     24  C   UNL     1       6.015   4.891  15.682  0.00  0.00    +0.000 A 
ATOM     25  C   UNL     1       5.497   4.114  14.665  0.00  0.00    +0.000 A 
ATOM     26  C   UNL     1       6.415   4.184  13.594  0.00  0.00    +0.000 A 
ATOM     27  C   UNL     1       7.438   4.999  14.020  0.00  0.00    +0.000 A 
ATOM     28  O   UNL     1       7.202   5.443  15.283  0.00  0.00    +0.000 OA
ENDBRANCH  21  24
ENDBRANCH   3  20
BRANCH   1  30
ATOM     29  O   UNL     1       3.066   2.456  21.978  0.00  0.00    +0.000 OA
ATOM     30  C   UNL     1       2.155   3.051  21.433  0.00  0.00    +0.000 C 
BRANCH  30  31
ATOM     31  O   UNL     1       0.850   2.769  21.649  0.00  0.00    +0.000 OA
ATOM     32  H   UNL     1       0.239   3.528  21.580  0.00  0.00    +0.000 HD
ENDBRANCH  30  31
ENDBRANCH   1  30
TORSDOF 6
ENDMDL
MODEL 6
REMARK VINA RESULT:      -8.9      0.971      1.705
REMARK  Name = 
REMARK  6 active torsions:
REMARK  status: ('A' for Active; 'I' for Inactive)
REMARK    1  A    between atoms: C_2  and  O_3
REMARK    2  A    between atoms: C_2  and  C_4
REMARK    3  A    between atoms: C_6  and  N_7
REMARK    4  A    between atoms: C_8  and  C_10
REMARK    5  A    between atoms: C_16  and  C_17
REMARK    6  A    between atoms: C_20  and  C_21
REMARK                            x       y       z     vdW  Elec       q    Type
REMARK                         _______ _______ _______ _____ _____    ______ ____
ROOT
ATOM      1  C   UNL     1       3.756   3.881  19.379  0.00  0.00    +0.000 A 
ATOM      2  C   UNL     1       4.478   3.679  18.202  0.00  0.00    +0.000 A 
ATOM      3  C   UNL     1       4.427   4.628  17.180  0.00  0.00    +0.000 A 
ATOM      4  C   UNL     1       3.637   5.768  17.350  0.00  0.00    +0.000 A 
ATOM      5  C   UNL     1       2.907   5.996  18.529  0.00  0.00    +0.000 A 
ATOM      6  C   UNL     1       2.943   5.007  19.524  0.00  0.00    +0.000 A 
ENDROOT
BRANCH   5   7
ATOM      7  C   UNL     1       2.229   7.288  18.743  0.00  0.00    +0.000 A 
ATOM      8  C   UNL     1       1.803   7.703  20.012  0.00  0.00    +0.000 A 
ATOM      9  C   UNL     1       1.111   8.906  20.190  0.00  0.00    +0.000 A 
ATOM     10  C   UNL     1       0.846   9.752  19.110  0.00  0.00    +0.000 A 
ATOM     11  C   UNL     1       1.235   9.322  17.834  0.00  0.00    +0.000 A 
ATOM     12  C   UNL     1       1.915   8.116  17.656  0.00  0.00    +0.000 A 
BRANCH  10  13
ATOM     13  C   UNL     1       0.288  11.161  19.256  0.00  0.00    +0.000 C 
ATOM     14  C   UNL     1       1.324  12.298  19.289  0.00  0.00    +0.000 C 
ATOM     15  C   UNL     1       1.919  12.530  20.679  0.00  0.00    +0.000 C 
ATOM     16  N   UNL     1       0.885  12.732  21.691  0.00  0.00    +0.000 NA
ATOM     17  C   UNL     1      -0.022  11.586  21.754  0.00  0.00    +0.000 C 
ATOM     18  C   UNL     1      -0.709  11.326  20.416  0.00  0.00    +0.000 C 
ATOM     19  H   UNL     1       0.353  13.570  21.462  0.00  0.00    +0.000 HD
ENDBRANCH  10  13
ENDBRANCH   5   7
BRANCH   3  20
ATOM     20  N   UNL     1       5.175   4.541  15.991  0.00  0.00    +0.000 N 
ATOM     21  C   UNL     1       6.464   4.969  15.774  0.00  0.00    +0.000 C 
ATOM     22  O   UNL     1       7.203   5.438  16.635  0.00  0.00    +0.000 OA
ATOM     23  H   UNL     1       4.713   4.139  15.180  0.00  0.00    +0.000 HD
BRANCH  21  24
ATOM     24  C   UNL     1       6.888   4.828  14.399  0.00  0.00    +0.000 A 
ATOM     25  C   UNL     1       6.442   3.966  13.416  0.00  0.00    +0.000 A 
ATOM     26  C   UNL     1       7.212   4.232  12.263  0.00  0.00    +0.000 A 
ATOM     27  C   UNL     1       8.082   5.241  12.609  0.00  0.00    +0.000 A 
ATOM     28  O   UNL     1       7.889   5.617  13.901  0.00  0.00    +0.000 OA
ENDBRANCH  21  24
ENDBRANCH   3  20
BRANCH   1  30
ATOM     29  O   UNL     1       4.796   2.170  20.657  0.00  0.00    +0.000 OA
ATOM     30  C   UNL     1       3.869   2.945  20.521  0.00  0.00    +0.000 C 
BRANCH  30  31
ATOM     31  O   UNL     1       2.791   2.964  21.339  0.00  0.00    +0.000 OA
ATOM     32  H   UNL     1       2.637   2.146  21.849  0.00  0.00    +0.000 HD
ENDBRANCH  30  31
ENDBRANCH   1  30
TORSDOF 6
ENDMDL
MODEL 7
REMARK VINA RESULT:      -8.7      1.331      1.719
REMARK  Name = 
REMARK  6 active torsions:
REMARK  status: ('A' for Active; 'I' for Inactive)
REMARK    1  A    between atoms: C_2  and  O_3
REMARK    2  A    between atoms: C_2  and  C_4
REMARK    3  A    between atoms: C_6  and  N_7
REMARK    4  A    between atoms: C_8  and  C_10
REMARK    5  A    between atoms: C_16  and  C_17
REMARK    6  A    between atoms: C_20  and  C_21
REMARK                            x       y       z     vdW  Elec       q    Type
REMARK                         _______ _______ _______ _____ _____    ______ ____
ROOT
ATOM      1  C   UNL     1       2.344   4.066  20.374  0.00  0.00    +0.000 A 
ATOM      2  C   UNL     1       3.119   3.803  19.243  0.00  0.00    +0.000 A 
ATOM      3  C   UNL     1       3.354   4.813  18.309  0.00  0.00    +0.000 A 
ATOM      4  C   UNL     1       2.795   6.076  18.518  0.00  0.00    +0.000 A 
ATOM      5  C   UNL     1       2.018   6.366  19.652  0.00  0.00    +0.000 A 
ATOM      6  C   UNL     1       1.763   5.323  20.555  0.00  0.00    +0.000 A 
ENDROOT
BRANCH   5   7
ATOM      7  C   UNL     1       1.596   7.751  19.927  0.00  0.00    +0.000 A 
ATOM      8  C   UNL     1       1.630   8.749  18.944  0.00  0.00    +0.000 A 
ATOM      9  C   UNL     1       1.279  10.072  19.236  0.00  0.00    +0.000 A 
ATOM     10  C   UNL     1       0.853  10.439  20.515  0.00  0.00    +0.000 A 
ATOM     11  C   UNL     1       0.856   9.453  21.511  0.00  0.00    +0.000 A 
ATOM     12  C   UNL     1       1.217   8.136  21.221  0.00  0.00    +0.000 A 
BRANCH  10  13
ATOM     13  C   UNL     1       0.262  11.801  20.851  0.00  0.00    +0.000 C 
ATOM     14  C   UNL     1      -1.272  11.867  20.950  0.00  0.00    +0.000 C 
ATOM     15  C   UNL     1      -1.955  12.050  19.593  0.00  0.00    +0.000 C 
ATOM     16  N   UNL     1      -1.426  13.200  18.864  0.00  0.00    +0.000 NA
ATOM     17  C   UNL     1       0.015  13.072  18.650  0.00  0.00    +0.000 C 
ATOM     18  C   UNL     1       0.780  12.948  19.966  0.00  0.00    +0.000 C 
ATOM     19  H   UNL     1      -1.613  14.048  19.398  0.00  0.00    +0.000 HD
ENDBRANCH  10  13
ENDBRANCH   5   7
BRANCH   3  20
ATOM     20  N   UNL     1       4.179   4.658  17.178  0.00  0.00    +0.000 N 
ATOM     21  C   UNL     1       5.547   4.527  17.145  0.00  0.00    +0.000 C 
ATOM     22  O   UNL     1       6.269   4.448  18.135  0.00  0.00    +0.000 OA
ATOM     23  H   UNL     1       3.725   4.668  16.268  0.00  0.00    +0.000 HD
BRANCH  21  24
ATOM     24  C   UNL     1       6.086   4.501  15.804  0.00  0.00    +0.000 A 
ATOM     25  C   UNL     1       7.120   5.227  15.248  0.00  0.00    +0.000 A 
ATOM     26  C   UNL     1       7.214   4.830  13.896  0.00  0.00    +0.000 A 
ATOM     27  C   UNL     1       6.232   3.886  13.706  0.00  0.00    +0.000 A 
ATOM     28  O   UNL     1       5.545   3.670  14.860  0.00  0.00    +0.000 OA
ENDBRANCH  21  24
ENDBRANCH   3  20
BRANCH   1  30
ATOM     29  O   UNL     1       3.081   2.426  21.927  0.00  0.00    +0.000 OA
ATOM     30  C   UNL     1       2.159   3.048  21.433  0.00  0.00    +0.000 C 
BRANCH  30  31
ATOM     31  O   UNL     1       0.860   2.804  21.723  0.00  0.00    +0.000 OA
ATOM     32  H   UNL     1       0.268   3.579  21.681  0.00  0.00    +0.000 HD
ENDBRANCH  30  31
ENDBRANCH   1  30
TORSDOF 6
ENDMDL
MODEL 8
REMARK VINA RESULT:      -8.7      5.282     10.269
REMARK  Name = 
REMARK  6 active torsions:
REMARK  status: ('A' for Active; 'I' for Inactive)
REMARK    1  A    between atoms: C_2  and  O_3
REMARK    2  A    between atoms: C_2  and  C_4
REMARK    3  A    between atoms: C_6  and  N_7
REMARK    4  A    between atoms: C_8  and  C_10
REMARK    5  A    between atoms: C_16  and  C_17
REMARK    6  A    between atoms: C_20  and  C_21
REMARK                            x       y       z     vdW  Elec       q    Type
REMARK                         _______ _______ _______ _____ _____    ______ ____
ROOT
ATOM      1  C   UNL     1       0.714  12.955  18.523  0.00  0.00    +0.000 A 
ATOM      2  C   UNL     1      -0.674  13.031  18.396  0.00  0.00    +0.000 A 
ATOM      3  C   UNL     1      -1.439  11.864  18.393  0.00  0.00    +0.000 A 
ATOM      4  C   UNL     1      -0.795  10.629  18.506  0.00  0.00    +0.000 A 
ATOM      5  C   UNL     1       0.599  10.528  18.641  0.00  0.00    +0.000 A 
ATOM      6  C   UNL     1       1.349  11.714  18.600  0.00  0.00    +0.000 A 
ENDROOT
BRANCH   5   7
ATOM      7  C   UNL     1       1.224   9.225  18.935  0.00  0.00    +0.000 A 
ATOM      8  C   UNL     1       1.240   8.683  20.227  0.00  0.00    +0.000 A 
ATOM      9  C   UNL     1       1.886   7.472  20.500  0.00  0.00    +0.000 A 
ATOM     10  C   UNL     1       2.514   6.745  19.485  0.00  0.00    +0.000 A 
ATOM     11  C   UNL     1       2.535   7.304  18.200  0.00  0.00    +0.000 A 
ATOM     12  C   UNL     1       1.899   8.517  17.931  0.00  0.00    +0.000 A 
BRANCH  10  13
ATOM     13  C   UNL     1       3.052   5.332  19.665  0.00  0.00    +0.000 C 
ATOM     14  C   UNL     1       3.061   4.447  18.407  0.00  0.00    +0.000 C 
ATOM     15  C   UNL     1       1.718   3.763  18.144  0.00  0.00    +0.000 C 
ATOM     16  N   UNL     1       1.245   3.017  19.307  0.00  0.00    +0.000 NA
ATOM     17  C   UNL     1       1.106   3.890  20.473  0.00  0.00    +0.000 C 
ATOM     18  C   UNL     1       2.424   4.566  20.843  0.00  0.00    +0.000 C 
ATOM     19  H   UNL     1       1.910   2.274  19.521  0.00  0.00    +0.000 HD
ENDBRANCH  10  13
ENDBRANCH   5   7
BRANCH   3  20
ATOM     20  N   UNL     1      -2.846  11.849  18.340  0.00  0.00    +0.000 N 
ATOM     21  C   UNL     1      -3.645  11.558  17.259  0.00  0.00    +0.000 C 
ATOM     22  O   UNL     1      -3.236  11.185  16.164  0.00  0.00    +0.000 OA
ATOM     23  H   UNL     1      -3.345  12.105  19.188  0.00  0.00    +0.000 HD
BRANCH  21  24
ATOM     24  C   UNL     1      -5.054  11.748  17.525  0.00  0.00    +0.000 A 
ATOM     25  C   UNL     1      -5.930  12.696  17.036  0.00  0.00    +0.000 A 
ATOM     26  C   UNL     1      -7.182  12.442  17.638  0.00  0.00    +0.000 A 
ATOM     27  C   UNL     1      -6.996  11.354  18.459  0.00  0.00    +0.000 A 
ATOM     28  O   UNL     1      -5.710  10.917  18.392  0.00  0.00    +0.000 OA
ENDBRANCH  21  24
ENDBRANCH   3  20
BRANCH   1  30
ATOM     29  O   UNL     1       2.622  14.300  18.079  0.00  0.00    +0.000 OA
ATOM     30  C   UNL     1       1.544  14.177  18.630  0.00  0.00    +0.000 C 
BRANCH  30  31
ATOM     31  O   UNL     1       1.037  15.098  19.482  0.00  0.00    +0.000 OA
ATOM     32  H   UNL     1       0.068  15.215  19.446  0.00  0.00    +0.000 HD
ENDBRANCH  30  31
ENDBRANCH   1  30
TORSDOF 6
ENDMDL
MODEL 9
REMARK VINA RESULT:      -8.7      1.065      1.350
REMARK  Name = 
REMARK  6 active torsions:
REMARK  status: ('A' for Active; 'I' for Inactive)
REMARK    1  A    between atoms: C_2  and  O_3
REMARK    2  A    between atoms: C_2  and  C_4
REMARK    3  A    between atoms: C_6  and  N_7
REMARK    4  A    between atoms: C_8  and  C_10
REMARK    5  A    between atoms: C_16  and  C_17
REMARK    6  A    between atoms: C_20  and  C_21
REMARK                            x       y       z     vdW  Elec       q    Type
REMARK                         _______ _______ _______ _____ _____    ______ ____
ROOT
ATOM      1  C   UNL     1       3.135   4.150  19.820  0.00  0.00    +0.000 A 
ATOM      2  C   UNL     1       3.880   3.869  18.673  0.00  0.00    +0.000 A 
ATOM      3  C   UNL     1       3.958   4.809  17.644  0.00  0.00    +0.000 A 
ATOM      4  C   UNL     1       3.273   6.019  17.776  0.00  0.00    +0.000 A 
ATOM      5  C   UNL     1       2.522   6.327  18.923  0.00  0.00    +0.000 A 
ATOM      6  C   UNL     1       2.426   5.349  19.925  0.00  0.00    +0.000 A 
ENDROOT
BRANCH   5   7
ATOM      7  C   UNL     1       1.961   7.678  19.102  0.00  0.00    +0.000 A 
ATOM      8  C   UNL     1       1.956   8.625  18.069  0.00  0.00    +0.000 A 
ATOM      9  C   UNL     1       1.472   9.922  18.271  0.00  0.00    +0.000 A 
ATOM     10  C   UNL     1       0.947  10.311  19.507  0.00  0.00    +0.000 A 
ATOM     11  C   UNL     1       0.987   9.379  20.554  0.00  0.00    +0.000 A 
ATOM     12  C   UNL     1       1.481   8.090  20.354  0.00  0.00    +0.000 A 
BRANCH  10  13
ATOM     13  C   UNL     1       0.218  11.627  19.740  0.00  0.00    +0.000 C 
ATOM     14  C   UNL     1       0.208  12.612  18.559  0.00  0.00    +0.000 C 
ATOM     15  C   UNL     1       1.469  13.475  18.485  0.00  0.00    +0.000 C 
ATOM     16  N   UNL     1       1.735  14.166  19.743  0.00  0.00    +0.000 NA
ATOM     17  C   UNL     1       1.880  13.217  20.846  0.00  0.00    +0.000 C 
ATOM     18  C   UNL     1       0.633  12.356  21.029  0.00  0.00    +0.000 C 
ATOM     19  H   UNL     1       0.963  14.801  19.945  0.00  0.00    +0.000 HD
ENDBRANCH  10  13
ENDBRANCH   5   7
BRANCH   3  20
ATOM     20  N   UNL     1       4.741   4.641  16.486  0.00  0.00    +0.000 N 
ATOM     21  C   UNL     1       6.044   5.034  16.286  0.00  0.00    +0.000 C 
ATOM     22  O   UNL     1       6.764   5.540  17.141  0.00  0.00    +0.000 OA
ATOM     23  H   UNL     1       4.296   4.200  15.686  0.00  0.00    +0.000 HD
BRANCH  21  24
ATOM     24  C   UNL     1       6.507   4.805  14.935  0.00  0.00    +0.000 A 
ATOM     25  C   UNL     1       6.018   3.958  13.961  0.00  0.00    +0.000 A 
ATOM     26  C   UNL     1       6.857   4.109  12.834  0.00  0.00    +0.000 A 
ATOM     27  C   UNL     1       7.807   5.039  13.188  0.00  0.00    +0.000 A 
ATOM     28  O   UNL     1       7.600   5.477  14.458  0.00  0.00    +0.000 OA
ENDBRANCH  21  24
ENDBRANCH   3  20
BRANCH   1  30
ATOM     29  O   UNL     1       3.714   2.160  20.981  0.00  0.00    +0.000 OA
ATOM     30  C   UNL     1       3.114   3.219  20.971  0.00  0.00    +0.000 C 
BRANCH  30  31
ATOM     31  O   UNL     1       2.283   3.611  21.964  0.00  0.00    +0.000 OA
ATOM     32  H   UNL     1       1.608   2.957  22.229  0.00  0.00    +0.000 HD
ENDBRANCH  30  31
ENDBRANCH   1  30
TORSDOF 6
ENDMDL
