MODEL 1
REMARK VINA RESULT:      -6.8      0.000      0.000
REMARK  Name = 
REMARK  6 active torsions:
REMARK  status: ('A' for Active; 'I' for Inactive)
REMARK    1  A    between atoms: C_1  and  C_2
REMARK    2  A    between atoms: C_2  and  N_3
REMARK    3  A    between atoms: C_4  and  C_6
REMARK    4  A    between atoms: N_20  and  C_21
REMARK    5  A    between atoms: C_21  and  C_22
REMARK    6  A    between atoms: C_21  and  C_23
REMARK                            x       y       z     vdW  Elec       q    Type
REMARK                         _______ _______ _______ _____ _____    ______ ____
ROOT
ATOM      1  N   UNL     1      -7.292  10.733  19.965  0.00  0.00    +0.000 N 
ATOM      2  C   UNL     1      -7.385  11.166  21.306  0.00  0.00    +0.000 C 
ATOM      3  O   UNL     1      -7.913  10.456  22.155  0.00  0.00    +0.000 OA
ATOM      4  C   UNL     1      -6.929  11.607  18.917  0.00  0.00    +0.000 A 
ATOM      5  C   UNL     1      -7.714  12.717  18.697  0.00  0.00    +0.000 A 
ATOM      6  C   UNL     1      -7.329  13.510  17.652  0.00  0.00    +0.000 A 
ATOM      7  N   UNL     1      -6.232  13.272  16.914  0.00  0.00    +0.000 NA
ATOM      8  C   UNL     1      -5.522  12.175  17.205  0.00  0.00    +0.000 A 
ATOM      9  N   UNL     1      -4.351  12.027  16.510  0.00  0.00    +0.000 N 
ATOM     10  N   UNL     1      -5.878  11.285  18.141  0.00  0.00    +0.000 NA
ATOM     11  H   UNL     1      -4.224  12.733  15.801  0.00  0.00    +0.000 HD
ENDROOT
BRANCH   2  12
ATOM     12  C   UNL     1      -6.821  12.478  21.677  0.00  0.00    +0.000 A 
ATOM     13  C   UNL     1      -5.502  12.905  21.758  0.00  0.00    +0.000 A 
ATOM     14  C   UNL     1      -5.517  14.303  22.029  0.00  0.00    +0.000 A 
ATOM     15  C   UNL     1      -4.549  15.316  22.182  0.00  0.00    +0.000 A 
ATOM     16  C   UNL     1      -4.975  16.643  22.356  0.00  0.00    +0.000 A 
ATOM     17  C   UNL     1      -6.335  16.957  22.406  0.00  0.00    +0.000 A 
ATOM     18  C   UNL     1      -7.311  15.959  22.301  0.00  0.00    +0.000 A 
ATOM     19  C   UNL     1      -6.859  14.653  22.098  0.00  0.00    +0.000 A 
ATOM     20  O   UNL     1      -7.644  13.555  21.910  0.00  0.00    +0.000 OA
ENDBRANCH   2  12
BRANCH   1  22
ATOM     21  C   UNL     1      -6.271   8.428  19.752  0.00  0.00    +0.000 C 
ATOM     22  C   UNL     1      -7.503   9.325  19.596  0.00  0.00    +0.000 C 
ENDBRANCH   1  22
BRANCH   9  23
ATOM     23  C   UNL     1      -3.720  10.737  16.343  0.00  0.00    +0.000 C 
ATOM     24  C   UNL     1      -3.441  10.457  14.863  0.00  0.00    +0.000 C 
BRANCH  23  25
ATOM     25  C   UNL     1      -2.461  10.730  17.201  0.00  0.00    +0.000 A 
ATOM     26  C   UNL     1      -2.193  11.840  18.021  0.00  0.00    +0.000 A 
ATOM     27  C   UNL     1      -1.018  11.909  18.771  0.00  0.00    +0.000 A 
ATOM     28  C   UNL     1      -0.092  10.872  18.712  0.00  0.00    +0.000 A 
ATOM     29  C   UNL     1      -0.344   9.760  17.913  0.00  0.00    +0.000 A 
ATOM     30  C   UNL     1      -1.517   9.690  17.158  0.00  0.00    +0.000 A 
ENDBRANCH  23  25
ENDBRANCH   9  23
TORSDOF 4
ENDMDL
MODEL 2
REMARK VINA RESULT:      -6.8      4.991      7.548
REMARK  Name = 
REMARK  6 active torsions:
REMARK  status: ('A' for Active; 'I' for Inactive)
REMARK    1  A    between atoms: C_1  and  C_2
REMARK    2  A    between atoms: C_2  and  N_3
REMARK    3  A    between atoms: C_4  and  C_6
REMARK    4  A    between atoms: N_20  and  C_21
REMARK    5  A    between atoms: C_21  and  C_22
REMARK    6  A    between atoms: C_21  and  C_23
REMARK                            x       y       z     vdW  Elec       q    Type
REMARK                         _______ _______ _______ _____ _____    ______ ____
ROOT
ATOM      1  N   UNL     1      -0.762  13.205  21.770  0.00  0.00    +0.000 N 
ATOM      2  C   UNL     1      -0.335  14.551  21.753  0.00  0.00    +0.000 C 
ATOM      3  O   UNL     1      -0.546  15.284  22.714  0.00  0.00    +0.000 OA
ATOM      4  C   UNL     1      -0.771  12.405  20.607  0.00  0.00    +0.000 A 
ATOM      5  C   UNL     1      -1.532  12.825  19.537  0.00  0.00    +0.000 A 
ATOM      6  C   UNL     1      -1.522  11.996  18.450  0.00  0.00    +0.000 A 
ATOM      7  N   UNL     1      -0.785  10.875  18.387  0.00  0.00    +0.000 NA
ATOM      8  C   UNL     1      -0.069  10.548  19.470  0.00  0.00    +0.000 A 
ATOM      9  N   UNL     1       0.757   9.464  19.329  0.00  0.00    +0.000 N 
ATOM     10  N   UNL     1      -0.096  11.242  20.615  0.00  0.00    +0.000 NA
ATOM     11  H   UNL     1       0.646   9.001  18.440  0.00  0.00    +0.000 HD
ENDROOT
BRANCH   2  12
ATOM     12  C   UNL     1       0.384  15.061  20.570  0.00  0.00    +0.000 A 
ATOM     13  C   UNL     1       0.176  16.205  19.810  0.00  0.00    +0.000 A 
ATOM     14  C   UNL     1       1.238  16.292  18.865  0.00  0.00    +0.000 A 
ATOM     15  C   UNL     1       1.630  17.202  17.863  0.00  0.00    +0.000 A 
ATOM     16  C   UNL     1       2.835  16.981  17.177  0.00  0.00    +0.000 A 
ATOM     17  C   UNL     1       3.623  15.862  17.458  0.00  0.00    +0.000 A 
ATOM     18  C   UNL     1       3.228  14.923  18.417  0.00  0.00    +0.000 A 
ATOM     19  C   UNL     1       2.041  15.185  19.104  0.00  0.00    +0.000 A 
ATOM     20  O   UNL     1       1.518  14.432  20.114  0.00  0.00    +0.000 OA
ENDBRANCH   2  12
BRANCH   1  22
ATOM     21  C   UNL     1      -2.646  12.185  23.116  0.00  0.00    +0.000 C 
ATOM     22  C   UNL     1      -1.158  12.541  23.021  0.00  0.00    +0.000 C 
ENDBRANCH   1  22
BRANCH   9  23
ATOM     23  C   UNL     1       1.222   8.706  20.467  0.00  0.00    +0.000 C 
ATOM     24  C   UNL     1       0.069   8.407  21.430  0.00  0.00    +0.000 C 
BRANCH  23  25
ATOM     25  C   UNL     1       1.896   7.448  19.933  0.00  0.00    +0.000 A 
ATOM     26  C   UNL     1       2.513   7.494  18.670  0.00  0.00    +0.000 A 
ATOM     27  C   UNL     1       3.082   6.349  18.109  0.00  0.00    +0.000 A 
ATOM     28  C   UNL     1       3.042   5.141  18.800  0.00  0.00    +0.000 A 
ATOM     29  C   UNL     1       2.444   5.078  20.055  0.00  0.00    +0.000 A 
ATOM     30  C   UNL     1       1.870   6.222  20.618  0.00  0.00    +0.000 A 
ENDBRANCH  23  25
ENDBRANCH   9  23
TORSDOF 4
ENDMDL
MODEL 3
REMARK VINA RESULT:      -6.7      3.201      5.583
REMARK  Name = 
REMARK  6 active torsions:
REMARK  status: ('A' for Active; 'I' for Inactive)
REMARK    1  A    between atoms: C_1  and  C_2
REMARK    2  A    between atoms: C_2  and  N_3
REMARK    3  A    between atoms: C_4  and  C_6
REMARK    4  A    between atoms: N_20  and  C_21
REMARK    5  A    between atoms: C_21  and  C_22
REMARK    6  A    between atoms: C_21  and  C_23
REMARK                            x       y       z     vdW  Elec       q    Type
REMARK                         _______ _______ _______ _____ _____    ______ ____
ROOT
ATOM      1  N   UNL     1      -1.458  14.571  21.452  0.00  0.00    +0.000 N 
ATOM      2  C   UNL     1      -2.615  15.254  21.888  0.00  0.00    +0.000 C 
ATOM      3  O   UNL     1      -2.649  16.480  21.897  0.00  0.00    +0.000 OA
ATOM      4  C   UNL     1      -1.279  13.186  21.661  0.00  0.00    +0.000 A 
ATOM      5  C   UNL     1      -1.290  12.720  22.958  0.00  0.00    +0.000 A 
ATOM      6  C   UNL     1      -1.085  11.376  23.099  0.00  0.00    +0.000 A 
ATOM      7  N   UNL     1      -0.937  10.541  22.056  0.00  0.00    +0.000 NA
ATOM      8  C   UNL     1      -0.949  11.080  20.831  0.00  0.00    +0.000 A 
ATOM      9  N   UNL     1      -0.912  10.189  19.792  0.00  0.00    +0.000 N 
ATOM     10  N   UNL     1      -1.041  12.397  20.599  0.00  0.00    +0.000 NA
ATOM     11  H   UNL     1      -0.791   9.236  20.097  0.00  0.00    +0.000 HD
ENDROOT
BRANCH   2  12
ATOM     12  C   UNL     1      -3.791  14.472  22.316  0.00  0.00    +0.000 A 
ATOM     13  C   UNL     1      -4.454  14.432  23.536  0.00  0.00    +0.000 A 
ATOM     14  C   UNL     1      -5.608  13.613  23.372  0.00  0.00    +0.000 A 
ATOM     15  C   UNL     1      -6.689  13.212  24.182  0.00  0.00    +0.000 A 
ATOM     16  C   UNL     1      -7.719  12.445  23.612  0.00  0.00    +0.000 A 
ATOM     17  C   UNL     1      -7.663  12.057  22.271  0.00  0.00    +0.000 A 
ATOM     18  C   UNL     1      -6.575  12.407  21.463  0.00  0.00    +0.000 A 
ATOM     19  C   UNL     1      -5.582  13.195  22.048  0.00  0.00    +0.000 A 
ATOM     20  O   UNL     1      -4.480  13.691  21.417  0.00  0.00    +0.000 OA
ENDBRANCH   2  12
BRANCH   1  22
ATOM     21  C   UNL     1       0.877  15.546  21.488  0.00  0.00    +0.000 C 
ATOM     22  C   UNL     1      -0.402  15.257  20.693  0.00  0.00    +0.000 C 
ENDBRANCH   1  22
BRANCH   9  23
ATOM     23  C   UNL     1      -0.456  10.570  18.474  0.00  0.00    +0.000 C 
ATOM     24  C   UNL     1       0.664   9.640  17.996  0.00  0.00    +0.000 C 
BRANCH  23  25
ATOM     25  C   UNL     1      -1.668  10.569  17.553  0.00  0.00    +0.000 A 
ATOM     26  C   UNL     1      -1.748   9.598  16.538  0.00  0.00    +0.000 A 
ATOM     27  C   UNL     1      -2.804   9.600  15.626  0.00  0.00    +0.000 A 
ATOM     28  C   UNL     1      -3.796  10.573  15.712  0.00  0.00    +0.000 A 
ATOM     29  C   UNL     1      -3.740  11.537  16.714  0.00  0.00    +0.000 A 
ATOM     30  C   UNL     1      -2.682  11.539  17.626  0.00  0.00    +0.000 A 
ENDBRANCH  23  25
ENDBRANCH   9  23
TORSDOF 4
ENDMDL
MODEL 4
REMARK VINA RESULT:      -6.6      3.665      5.363
REMARK  Name = 
REMARK  6 active torsions:
REMARK  status: ('A' for Active; 'I' for Inactive)
REMARK    1  A    between atoms: C_1  and  C_2
REMARK    2  A    between atoms: C_2  and  N_3
REMARK    3  A    between atoms: C_4  and  C_6
REMARK    4  A    between atoms: N_20  and  C_21
REMARK    5  A    between atoms: C_21  and  C_22
REMARK    6  A    between atoms: C_21  and  C_23
REMARK                            x       y       z     vdW  Elec       q    Type
REMARK                         _______ _______ _______ _____ _____    ______ ____
ROOT
ATOM      1  N   UNL     1      -2.967  13.566  22.769  0.00  0.00    +0.000 N 
ATOM      2  C   UNL     1      -1.752  14.263  22.950  0.00  0.00    +0.000 C 
ATOM      3  O   UNL     1      -1.039  14.030  23.921  0.00  0.00    +0.000 OA
ATOM      4  C   UNL     1      -3.932  13.971  21.821  0.00  0.00    +0.000 A 
ATOM      5  C   UNL     1      -4.462  15.238  21.937  0.00  0.00    +0.000 A 
ATOM      6  C   UNL     1      -5.410  15.563  21.007  0.00  0.00    +0.000 A 
ATOM      7  N   UNL     1      -5.773  14.742  20.008  0.00  0.00    +0.000 NA
ATOM      8  C   UNL     1      -5.198  13.533  19.967  0.00  0.00    +0.000 A 
ATOM      9  N   UNL     1      -5.505  12.768  18.873  0.00  0.00    +0.000 N 
ATOM     10  N   UNL     1      -4.337  13.088  20.892  0.00  0.00    +0.000 NA
ATOM     11  H   UNL     1      -6.202  13.194  18.281  0.00  0.00    +0.000 HD
ENDROOT
BRANCH   2  12
ATOM     12  C   UNL     1      -1.342  15.263  21.946  0.00  0.00    +0.000 A 
ATOM     13  C   UNL     1      -1.034  16.610  22.086  0.00  0.00    +0.000 A 
ATOM     14  C   UNL     1      -0.567  17.078  20.825  0.00  0.00    +0.000 A 
ATOM     15  C   UNL     1      -0.071  18.295  20.316  0.00  0.00    +0.000 A 
ATOM     16  C   UNL     1       0.392  18.341  18.991  0.00  0.00    +0.000 A 
ATOM     17  C   UNL     1       0.338  17.208  18.175  0.00  0.00    +0.000 A 
ATOM     18  C   UNL     1      -0.194  16.002  18.648  0.00  0.00    +0.000 A 
ATOM     19  C   UNL     1      -0.618  15.979  19.978  0.00  0.00    +0.000 A 
ATOM     20  O   UNL     1      -1.104  14.892  20.644  0.00  0.00    +0.000 OA
ENDBRANCH   2  12
BRANCH   1  22
ATOM     21  C   UNL     1      -4.347  12.480  24.591  0.00  0.00    +0.000 C 
ATOM     22  C   UNL     1      -3.265  12.334  23.515  0.00  0.00    +0.000 C 
ENDBRANCH   1  22
BRANCH   9  23
ATOM     23  C   UNL     1      -5.375  11.329  18.886  0.00  0.00    +0.000 C 
ATOM     24  C   UNL     1      -6.743  10.657  18.731  0.00  0.00    +0.000 C 
BRANCH  23  25
ATOM     25  C   UNL     1      -4.394  10.950  17.783  0.00  0.00    +0.000 A 
ATOM     26  C   UNL     1      -3.230  10.240  18.126  0.00  0.00    +0.000 A 
ATOM     27  C   UNL     1      -2.269   9.932  17.162  0.00  0.00    +0.000 A 
ATOM     28  C   UNL     1      -2.455  10.329  15.841  0.00  0.00    +0.000 A 
ATOM     29  C   UNL     1      -3.606  11.023  15.480  0.00  0.00    +0.000 A 
ATOM     30  C   UNL     1      -4.568  11.337  16.444  0.00  0.00    +0.000 A 
ENDBRANCH  23  25
ENDBRANCH   9  23
TORSDOF 4
ENDMDL
MODEL 5
REMARK VINA RESULT:      -6.6      5.220      7.680
REMARK  Name = 
REMARK  6 active torsions:
REMARK  status: ('A' for Active; 'I' for Inactive)
REMARK    1  A    between atoms: C_1  and  C_2
REMARK    2  A    between atoms: C_2  and  N_3
REMARK    3  A    between atoms: C_4  and  C_6
REMARK    4  A    between atoms: N_20  and  C_21
REMARK    5  A    between atoms: C_21  and  C_22
REMARK    6  A    between atoms: C_21  and  C_23
REMARK                            x       y       z     vdW  Elec       q    Type
REMARK                         _______ _______ _______ _____ _____    ______ ____
ROOT
ATOM      1  N   UNL     1      -0.488  12.928  21.990  0.00  0.00    +0.000 N 
ATOM      2  C   UNL     1       0.025  14.233  22.163  0.00  0.00    +0.000 C 
ATOM      3  O   UNL     1      -0.265  14.890  23.157  0.00  0.00    +0.000 OA
ATOM      4  C   UNL     1      -0.392  12.240  20.761  0.00  0.00    +0.000 A 
ATOM      5  C   UNL     1      -0.971  12.813  19.650  0.00  0.00    +0.000 A 
ATOM      6  C   UNL     1      -0.870  12.087  18.496  0.00  0.00    +0.000 A 
ATOM      7  N   UNL     1      -0.206  10.921  18.416  0.00  0.00    +0.000 NA
ATOM      8  C   UNL     1       0.334  10.443  19.544  0.00  0.00    +0.000 A 
ATOM      9  N   UNL     1       1.098   9.315  19.403  0.00  0.00    +0.000 N 
ATOM     10  N   UNL     1       0.198  11.031  20.740  0.00  0.00    +0.000 NA
ATOM     11  H   UNL     1       1.078   8.944  18.466  0.00  0.00    +0.000 HD
ENDROOT
BRANCH   2  12
ATOM     12  C   UNL     1       0.930  14.789  21.138  0.00  0.00    +0.000 A 
ATOM     13  C   UNL     1       2.202  14.394  20.746  0.00  0.00    +0.000 A 
ATOM     14  C   UNL     1       2.571  15.186  19.621  0.00  0.00    +0.000 A 
ATOM     15  C   UNL     1       3.677  15.257  18.751  0.00  0.00    +0.000 A 
ATOM     16  C   UNL     1       3.630  16.141  17.661  0.00  0.00    +0.000 A 
ATOM     17  C   UNL     1       2.519  16.962  17.454  0.00  0.00    +0.000 A 
ATOM     18  C   UNL     1       1.430  16.939  18.333  0.00  0.00    +0.000 A 
ATOM     19  C   UNL     1       1.492  16.028  19.389  0.00  0.00    +0.000 A 
ATOM     20  O   UNL     1       0.513  15.807  20.313  0.00  0.00    +0.000 OA
ENDBRANCH   2  12
BRANCH   1  22
ATOM     21  C   UNL     1      -2.625  12.187  23.124  0.00  0.00    +0.000 C 
ATOM     22  C   UNL     1      -1.092  12.187  23.107  0.00  0.00    +0.000 C 
ENDBRANCH   1  22
BRANCH   9  23
ATOM     23  C   UNL     1       1.354   8.423  20.510  0.00  0.00    +0.000 C 
ATOM     24  C   UNL     1       0.083   8.199  21.335  0.00  0.00    +0.000 C 
BRANCH  23  25
ATOM     25  C   UNL     1       1.929   7.135  19.935  0.00  0.00    +0.000 A 
ATOM     26  C   UNL     1       1.803   5.946  20.677  0.00  0.00    +0.000 A 
ATOM     27  C   UNL     1       2.374   4.756  20.224  0.00  0.00    +0.000 A 
ATOM     28  C   UNL     1       3.081   4.734  19.025  0.00  0.00    +0.000 A 
ATOM     29  C   UNL     1       3.208   5.898  18.273  0.00  0.00    +0.000 A 
ATOM     30  C   UNL     1       2.641   7.092  18.725  0.00  0.00    +0.000 A 
ENDBRANCH  23  25
ENDBRANCH   9  23
TORSDOF 4
ENDMDL
MODEL 6
REMARK VINA RESULT:      -6.6      5.421      7.895
REMARK  Name = 
REMARK  6 active torsions:
REMARK  status: ('A' for Active; 'I' for Inactive)
REMARK    1  A    between atoms: C_1  and  C_2
REMARK    2  A    between atoms: C_2  and  N_3
REMARK    3  A    between atoms: C_4  and  C_6
REMARK    4  A    between atoms: N_20  and  C_21
REMARK    5  A    between atoms: C_21  and  C_22
REMARK    6  A    between atoms: C_21  and  C_23
REMARK                            x       y       z     vdW  Elec       q    Type
REMARK                         _______ _______ _______ _____ _____    ______ ____
ROOT
ATOM      1  N   UNL     1      -0.267  12.376  21.850  0.00  0.00    +0.000 N 
ATOM      2  C   UNL     1       0.190  13.698  22.040  0.00  0.00    +0.000 C 
ATOM      3  O   UNL     1      -0.158  14.343  23.024  0.00  0.00    +0.000 OA
ATOM      4  C   UNL     1      -0.105  11.693  20.625  0.00  0.00    +0.000 A 
ATOM      5  C   UNL     1      -0.667  12.245  19.495  0.00  0.00    +0.000 A 
ATOM      6  C   UNL     1      -0.499  11.525  18.345  0.00  0.00    +0.000 A 
ATOM      7  N   UNL     1       0.209  10.386  18.288  0.00  0.00    +0.000 NA
ATOM      8  C   UNL     1       0.728   9.927  19.433  0.00  0.00    +0.000 A 
ATOM      9  N   UNL     1       1.539   8.828  19.318  0.00  0.00    +0.000 N 
ATOM     10  N   UNL     1       0.531  10.507  20.624  0.00  0.00    +0.000 NA
ATOM     11  H   UNL     1       1.564   8.457  18.381  0.00  0.00    +0.000 HD
ENDROOT
BRANCH   2  12
ATOM     12  C   UNL     1       1.107  14.289  21.047  0.00  0.00    +0.000 A 
ATOM     13  C   UNL     1       2.335  13.845  20.573  0.00  0.00    +0.000 A 
ATOM     14  C   UNL     1       2.734  14.719  19.523  0.00  0.00    +0.000 A 
ATOM     15  C   UNL     1       3.819  14.798  18.627  0.00  0.00    +0.000 A 
ATOM     16  C   UNL     1       3.811  15.791  17.634  0.00  0.00    +0.000 A 
ATOM     17  C   UNL     1       2.761  16.709  17.549  0.00  0.00    +0.000 A 
ATOM     18  C   UNL     1       1.696  16.675  18.457  0.00  0.00    +0.000 A 
ATOM     19  C   UNL     1       1.716  15.658  19.414  0.00  0.00    +0.000 A 
ATOM     20  O   UNL     1       0.748  15.415  20.344  0.00  0.00    +0.000 OA
ENDBRANCH   2  12
BRANCH   1  22
ATOM     21  C   UNL     1      -2.373  11.885  23.165  0.00  0.00    +0.000 C 
ATOM     22  C   UNL     1      -0.881  11.611  22.946  0.00  0.00    +0.000 C 
ENDBRANCH   1  22
BRANCH   9  23
ATOM     23  C   UNL     1       1.791   7.945  20.433  0.00  0.00    +0.000 C 
ATOM     24  C   UNL     1       0.645   8.008  21.448  0.00  0.00    +0.000 C 
BRANCH  23  25
ATOM     25  C   UNL     1       2.012   6.547  19.868  0.00  0.00    +0.000 A 
ATOM     26  C   UNL     1       2.437   6.415  18.534  0.00  0.00    +0.000 A 
ATOM     27  C   UNL     1       2.586   5.156  17.951  0.00  0.00    +0.000 A 
ATOM     28  C   UNL     1       2.310   4.009  18.691  0.00  0.00    +0.000 A 
ATOM     29  C   UNL     1       1.897   4.119  20.015  0.00  0.00    +0.000 A 
ATOM     30  C   UNL     1       1.744   5.379  20.600  0.00  0.00    +0.000 A 
ENDBRANCH  23  25
ENDBRANCH   9  23
TORSDOF 4
ENDMDL
MODEL 7
REMARK VINA RESULT:      -6.6      5.646      7.851
REMARK  Name = 
REMARK  6 active torsions:
REMARK  status: ('A' for Active; 'I' for Inactive)
REMARK    1  A    between atoms: C_1  and  C_2
REMARK    2  A    between atoms: C_2  and  N_3
REMARK    3  A    between atoms: C_4  and  C_6
REMARK    4  A    between atoms: N_20  and  C_21
REMARK    5  A    between atoms: C_21  and  C_22
REMARK    6  A    between atoms: C_21  and  C_23
REMARK                            x       y       z     vdW  Elec       q    Type
REMARK                         _______ _______ _______ _____ _____    ______ ____
ROOT
ATOM      1  N   UNL     1      -0.219  10.652  21.460  0.00  0.00    +0.000 N 
ATOM      2  C   UNL     1      -0.152  12.008  21.846  0.00  0.00    +0.000 C 
ATOM      3  O   UNL     1      -0.487  12.352  22.975  0.00  0.00    +0.000 OA
ATOM      4  C   UNL     1      -0.090  10.246  20.114  0.00  0.00    +0.000 A 
ATOM      5  C   UNL     1      -0.992  10.742  19.198  0.00  0.00    +0.000 A 
ATOM      6  C   UNL     1      -0.834  10.293  17.917  0.00  0.00    +0.000 A 
ATOM      7  N   UNL     1       0.161   9.470  17.544  0.00  0.00    +0.000 NA
ATOM      8  C   UNL     1       0.997   9.045  18.499  0.00  0.00    +0.000 A 
ATOM      9  N   UNL     1       2.063   8.302  18.064  0.00  0.00    +0.000 N 
ATOM     10  N   UNL     1       0.860   9.348  19.796  0.00  0.00    +0.000 NA
ATOM     11  H   UNL     1       2.024   8.101  17.077  0.00  0.00    +0.000 HD
ENDROOT
BRANCH   2  12
ATOM     12  C   UNL     1       0.344  13.006  20.879  0.00  0.00    +0.000 A 
ATOM     13  C   UNL     1      -0.260  14.148  20.368  0.00  0.00    +0.000 A 
ATOM     14  C   UNL     1       0.707  14.827  19.574  0.00  0.00    +0.000 A 
ATOM     15  C   UNL     1       0.750  16.028  18.838  0.00  0.00    +0.000 A 
ATOM     16  C   UNL     1       1.961  16.419  18.242  0.00  0.00    +0.000 A 
ATOM     17  C   UNL     1       3.101  15.619  18.350  0.00  0.00    +0.000 A 
ATOM     18  C   UNL     1       3.067  14.401  19.039  0.00  0.00    +0.000 A 
ATOM     19  C   UNL     1       1.858  14.054  19.646  0.00  0.00    +0.000 A 
ATOM     20  O   UNL     1       1.636  12.947  20.411  0.00  0.00    +0.000 OA
ENDBRANCH   2  12
BRANCH   1  22
ATOM     21  C   UNL     1       0.922   9.244  23.227  0.00  0.00    +0.000 C 
ATOM     22  C   UNL     1      -0.360   9.576  22.454  0.00  0.00    +0.000 C 
ENDBRANCH   1  22
BRANCH   9  23
ATOM     23  C   UNL     1       2.771   7.397  18.940  0.00  0.00    +0.000 C 
ATOM     24  C   UNL     1       1.802   6.696  19.897  0.00  0.00    +0.000 C 
BRANCH  23  25
ATOM     25  C   UNL     1       3.551   6.427  18.062  0.00  0.00    +0.000 A 
ATOM     26  C   UNL     1       4.543   6.936  17.205  0.00  0.00    +0.000 A 
ATOM     27  C   UNL     1       5.235   6.095  16.331  0.00  0.00    +0.000 A 
ATOM     28  C   UNL     1       4.945   4.734  16.299  0.00  0.00    +0.000 A 
ATOM     29  C   UNL     1       3.973   4.211  17.146  0.00  0.00    +0.000 A 
ATOM     30  C   UNL     1       3.276   5.050  18.019  0.00  0.00    +0.000 A 
ENDBRANCH  23  25
ENDBRANCH   9  23
TORSDOF 4
ENDMDL
MODEL 8
REMARK VINA RESULT:      -6.5      5.824      8.046
REMARK  Name = 
REMARK  6 active torsions:
REMARK  status: ('A' for Active; 'I' for Inactive)
REMARK    1  A    between atoms: C_1  and  C_2
REMARK    2  A    between atoms: C_2  and  N_3
REMARK    3  A    between atoms: C_4  and  C_6
REMARK    4  A    between atoms: N_20  and  C_21
REMARK    5  A    between atoms: C_21  and  C_22
REMARK    6  A    between atoms: C_21  and  C_23
REMARK                            x       y       z     vdW  Elec       q    Type
REMARK                         _______ _______ _______ _____ _____    ______ ____
ROOT
ATOM      1  N   UNL     1      -0.356  10.893  21.661  0.00  0.00    +0.000 N 
ATOM      2  C   UNL     1      -0.173  12.246  22.021  0.00  0.00    +0.000 C 
ATOM      3  O   UNL     1      -0.628  12.678  23.075  0.00  0.00    +0.000 OA
ATOM      4  C   UNL     1      -0.079  10.417  20.361  0.00  0.00    +0.000 A 
ATOM      5  C   UNL     1      -0.762  10.980  19.305  0.00  0.00    +0.000 A 
ATOM      6  C   UNL     1      -0.471  10.460  18.075  0.00  0.00    +0.000 A 
ATOM      7  N   UNL     1       0.453   9.505  17.880  0.00  0.00    +0.000 NA
ATOM      8  C   UNL     1       1.074   9.021  18.963  0.00  0.00    +0.000 A 
ATOM      9  N   UNL     1       2.089   8.134  18.717  0.00  0.00    +0.000 N 
ATOM     10  N   UNL     1       0.784   9.395  20.216  0.00  0.00    +0.000 NA
ATOM     11  H   UNL     1       2.173   7.896  17.740  0.00  0.00    +0.000 HD
ENDROOT
BRANCH   2  12
ATOM     12  C   UNL     1       0.587  13.132  21.118  0.00  0.00    +0.000 A 
ATOM     13  C   UNL     1       0.158  14.155  20.282  0.00  0.00    +0.000 A 
ATOM     14  C   UNL     1       1.315  14.778  19.735  0.00  0.00    +0.000 A 
ATOM     15  C   UNL     1       1.570  15.868  18.879  0.00  0.00    +0.000 A 
ATOM     16  C   UNL     1       2.900  16.248  18.638  0.00  0.00    +0.000 A 
ATOM     17  C   UNL     1       3.961  15.542  19.211  0.00  0.00    +0.000 A 
ATOM     18  C   UNL     1       3.729  14.429  20.028  0.00  0.00    +0.000 A 
ATOM     19  C   UNL     1       2.396  14.094  20.274  0.00  0.00    +0.000 A 
ATOM     20  O   UNL     1       1.961  13.089  21.088  0.00  0.00    +0.000 OA
ENDBRANCH   2  12
BRANCH   1  22
ATOM     21  C   UNL     1       0.328   9.389  23.578  0.00  0.00    +0.000 C 
ATOM     22  C   UNL     1      -0.782   9.888  22.646  0.00  0.00    +0.000 C 
ENDBRANCH   1  22
BRANCH   9  23
ATOM     23  C   UNL     1       2.534   7.187  19.714  0.00  0.00    +0.000 C 
ATOM     24  C   UNL     1       1.395   6.831  20.673  0.00  0.00    +0.000 C 
BRANCH  23  25
ATOM     25  C   UNL     1       3.096   5.978  18.977  0.00  0.00    +0.000 A 
ATOM     26  C   UNL     1       2.246   5.246  18.128  0.00  0.00    +0.000 A 
ATOM     27  C   UNL     1       2.695   4.091  17.487  0.00  0.00    +0.000 A 
ATOM     28  C   UNL     1       3.999   3.647  17.685  0.00  0.00    +0.000 A 
ATOM     29  C   UNL     1       4.858   4.363  18.513  0.00  0.00    +0.000 A 
ATOM     30  C   UNL     1       4.410   5.518  19.159  0.00  0.00    +0.000 A 
ENDBRANCH  23  25
ENDBRANCH   9  23
TORSDOF 4
ENDMDL
MODEL 9
REMARK VINA RESULT:      -6.5      5.477      8.053
REMARK  Name = 
REMARK  6 active torsions:
REMARK  status: ('A' for Active; 'I' for Inactive)
REMARK    1  A    between atoms: C_1  and  C_2
REMARK    2  A    between atoms: C_2  and  N_3
REMARK    3  A    between atoms: C_4  and  C_6
REMARK    4  A    between atoms: N_20  and  C_21
REMARK    5  A    between atoms: C_21  and  C_22
REMARK    6  A    between atoms: C_21  and  C_23
REMARK                            x       y       z     vdW  Elec       q    Type
REMARK                         _______ _______ _______ _____ _____    ______ ____
ROOT
ATOM      1  N   UNL     1      -0.178  12.108  21.546  0.00  0.00    +0.000 N 
ATOM      2  C   UNL     1       0.188  13.469  21.636  0.00  0.00    +0.000 C 
ATOM      3  O   UNL     1      -0.101  14.128  22.629  0.00  0.00    +0.000 OA
ATOM      4  C   UNL     1      -0.096  11.386  20.336  0.00  0.00    +0.000 A 
ATOM      5  C   UNL     1      -0.823  11.842  19.258  0.00  0.00    +0.000 A 
ATOM      6  C   UNL     1      -0.725  11.086  18.123  0.00  0.00    +0.000 A 
ATOM      7  N   UNL     1       0.064  10.003  18.026  0.00  0.00    +0.000 NA
ATOM      8  C   UNL     1       0.743   9.638  19.121  0.00  0.00    +0.000 A 
ATOM      9  N   UNL     1       1.623   8.602  18.954  0.00  0.00    +0.000 N 
ATOM     10  N   UNL     1       0.631  10.254  20.305  0.00  0.00    +0.000 NA
ATOM     11  H   UNL     1       1.575   8.192  18.033  0.00  0.00    +0.000 HD
ENDROOT
BRANCH   2  12
ATOM     12  C   UNL     1       0.938  14.085  20.524  0.00  0.00    +0.000 A 
ATOM     13  C   UNL     1       0.693  15.246  19.802  0.00  0.00    +0.000 A 
ATOM     14  C   UNL     1       1.800  15.453  18.932  0.00  0.00    +0.000 A 
ATOM     15  C   UNL     1       2.184  16.436  17.998  0.00  0.00    +0.000 A 
ATOM     16  C   UNL     1       3.442  16.335  17.381  0.00  0.00    +0.000 A 
ATOM     17  C   UNL     1       4.293  15.263  17.664  0.00  0.00    +0.000 A 
ATOM     18  C   UNL     1       3.910  14.253  18.554  0.00  0.00    +0.000 A 
ATOM     19  C   UNL     1       2.667  14.397  19.175  0.00  0.00    +0.000 A 
ATOM     20  O   UNL     1       2.141  13.560  20.115  0.00  0.00    +0.000 OA
ENDBRANCH   2  12
BRANCH   1  22
ATOM     21  C   UNL     1      -2.060  11.569  23.150  0.00  0.00    +0.000 C 
ATOM     22  C   UNL     1      -0.602  11.347  22.732  0.00  0.00    +0.000 C 
ENDBRANCH   1  22
BRANCH   9  23
ATOM     23  C   UNL     1       2.068   7.791  20.064  0.00  0.00    +0.000 C 
ATOM     24  C   UNL     1       1.248   8.093  21.322  0.00  0.00    +0.000 C 
BRANCH  23  25
ATOM     25  C   UNL     1       1.982   6.333  19.629  0.00  0.00    +0.000 A 
ATOM     26  C   UNL     1       2.288   6.004  18.297  0.00  0.00    +0.000 A 
ATOM     27  C   UNL     1       2.156   4.694  17.834  0.00  0.00    +0.000 A 
ATOM     28  C   UNL     1       1.713   3.693  18.695  0.00  0.00    +0.000 A 
ATOM     29  C   UNL     1       1.413   3.998  20.019  0.00  0.00    +0.000 A 
ATOM     30  C   UNL     1       1.542   5.309  20.484  0.00  0.00    +0.000 A 
ENDBRANCH  23  25
ENDBRANCH   9  23
TORSDOF 4
ENDMDL
