MODEL 1
REMARK VINA RESULT:      -8.3      0.000      0.000
REMARK  Name = 
REMARK  7 active torsions:
REMARK  status: ('A' for Active; 'I' for Inactive)
REMARK    1  A    between atoms: O_1  and  C_2
REMARK    2  A    between atoms: C_2  and  C_3
REMARK    3  A    between atoms: C_2  and  C_16
REMARK    4  A    between atoms: C_3  and  O_4
REMARK    5  A    between atoms: O_4  and  C_5
REMARK    6  A    between atoms: C_5  and  C_6
REMARK    7  A    between atoms: C_16  and  N_17
REMARK                            x       y       z     vdW  Elec       q    Type
REMARK                         _______ _______ _______ _____ _____    ______ ____
ROOT
ATOM      1  C   UNL     1       7.029   6.842  17.458  0.00  0.00    +0.000 C 
ENDROOT
BRANCH   1   2
ATOM      2  O   UNL     1       7.707   6.261  16.380  0.00  0.00    +0.000 OA
ATOM      3  H   UNL     1       7.532   5.285  16.412  0.00  0.00    +0.000 HD
ENDBRANCH   1   2
BRANCH   1   4
ATOM      4  C   UNL     1       7.395   8.348  17.467  0.00  0.00    +0.000 C 
BRANCH   4   5
ATOM      5  O   UNL     1       8.453   8.673  18.352  0.00  0.00    +0.000 OA
BRANCH   5   6
ATOM      6  C   UNL     1       8.587  10.074  18.470  0.00  0.00    +0.000 C 
BRANCH   6   7
ATOM      7  C   UNL     1       9.718  10.401  19.450  0.00  0.00    +0.000 C 
ATOM      8  C   UNL     1       9.224  11.441  20.475  0.00  0.00    +0.000 C 
ATOM      9  O   UNL     1       8.985  12.651  19.830  0.00  0.00    +0.000 OA
ATOM     10  C   UNL     1       9.844  13.115  18.886  0.00  0.00    +0.000 A 
ATOM     11  C   UNL     1       9.783  14.439  18.437  0.00  0.00    +0.000 A 
ATOM     12  C   UNL     1      10.701  14.891  17.482  0.00  0.00    +0.000 A 
ATOM     13  C   UNL     1      11.677  14.024  16.975  0.00  0.00    +0.000 A 
ATOM     14  C   UNL     1      11.726  12.692  17.404  0.00  0.00    +0.000 A 
ATOM     15  C   UNL     1      10.803  12.235  18.350  0.00  0.00    +0.000 A 
ATOM     16  O   UNL     1      10.803  10.940  18.764  0.00  0.00    +0.000 OA
ENDBRANCH   6   7
ENDBRANCH   5   6
ENDBRANCH   4   5
ENDBRANCH   1   4
BRANCH   1  17
ATOM     17  C   UNL     1       5.487   6.653  17.352  0.00  0.00    +0.000 C 
BRANCH  17  18
ATOM     18  N   UNL     1       4.908   5.627  18.266  0.00  0.00    +0.000 NA
ATOM     19  C   UNL     1       4.905   4.249  17.696  0.00  0.00    +0.000 C 
ATOM     20  C   UNL     1       3.575   3.912  17.024  0.00  0.00    +0.000 C 
ATOM     21  C   UNL     1       2.585   3.890  18.144  0.00  0.00    +0.000 A 
ATOM     22  C   UNL     1       1.754   2.789  18.373  0.00  0.00    +0.000 A 
ATOM     23  C   UNL     1       0.920   2.778  19.490  0.00  0.00    +0.000 A 
ATOM     24  C   UNL     1       0.927   3.852  20.387  0.00  0.00    +0.000 A 
ATOM     25  C   UNL     1       1.772   4.950  20.165  0.00  0.00    +0.000 A 
ATOM     26  C   UNL     1       2.602   4.968  19.034  0.00  0.00    +0.000 A 
ATOM     27  C   UNL     1       3.555   6.097  18.722  0.00  0.00    +0.000 C 
ENDBRANCH  17  18
ENDBRANCH   1  17
TORSDOF 7
ENDMDL
MODEL 2
REMARK VINA RESULT:      -8.0      1.211      1.817
REMARK  Name = 
REMARK  7 active torsions:
REMARK  status: ('A' for Active; 'I' for Inactive)
REMARK    1  A    between atoms: O_1  and  C_2
REMARK    2  A    between atoms: C_2  and  C_3
REMARK    3  A    between atoms: C_2  and  C_16
REMARK    4  A    between atoms: C_3  and  O_4
REMARK    5  A    between atoms: O_4  and  C_5
REMARK    6  A    between atoms: C_5  and  C_6
REMARK    7  A    between atoms: C_16  and  N_17
REMARK                            x       y       z     vdW  Elec       q    Type
REMARK                         _______ _______ _______ _____ _____    ______ ____
ROOT
ATOM      1  C   UNL     1       7.376   6.919  18.050  0.00  0.00    +0.000 C 
ENDROOT
BRANCH   1   2
ATOM      2  O   UNL     1       8.212   6.378  19.033  0.00  0.00    +0.000 OA
ATOM      3  H   UNL     1       7.747   6.476  19.904  0.00  0.00    +0.000 HD
ENDBRANCH   1   2
BRANCH   1   4
ATOM      4  C   UNL     1       7.893   8.350  17.752  0.00  0.00    +0.000 C 
BRANCH   4   5
ATOM      5  O   UNL     1       8.682   8.900  18.793  0.00  0.00    +0.000 OA
BRANCH   5   6
ATOM      6  C   UNL     1       9.010  10.245  18.508  0.00  0.00    +0.000 C 
BRANCH   6   7
ATOM      7  C   UNL     1      10.008  10.761  19.548  0.00  0.00    +0.000 C 
ATOM      8  C   UNL     1       9.316  11.799  20.453  0.00  0.00    +0.000 C 
ATOM      9  O   UNL     1       9.003  12.930  19.705  0.00  0.00    +0.000 OA
ATOM     10  C   UNL     1       9.884  13.430  18.800  0.00  0.00    +0.000 A 
ATOM     11  C   UNL     1       9.718  14.707  18.253  0.00  0.00    +0.000 A 
ATOM     12  C   UNL     1      10.660  15.201  17.343  0.00  0.00    +0.000 A 
ATOM     13  C   UNL     1      11.765  14.422  16.980  0.00  0.00    +0.000 A 
ATOM     14  C   UNL     1      11.923  13.134  17.506  0.00  0.00    +0.000 A 
ATOM     15  C   UNL     1      10.977  12.634  18.407  0.00  0.00    +0.000 A 
ATOM     16  O   UNL     1      11.083  11.377  18.912  0.00  0.00    +0.000 OA
ENDBRANCH   6   7
ENDBRANCH   5   6
ENDBRANCH   4   5
ENDBRANCH   1   4
BRANCH   1  17
ATOM     17  C   UNL     1       7.362   6.061  16.752  0.00  0.00    +0.000 C 
BRANCH  17  18
ATOM     18  N   UNL     1       6.042   5.465  16.398  0.00  0.00    +0.000 NA
ATOM     19  C   UNL     1       4.948   6.468  16.260  0.00  0.00    +0.000 C 
ATOM     20  C   UNL     1       4.150   6.625  17.554  0.00  0.00    +0.000 C 
ATOM     21  C   UNL     1       3.470   5.306  17.736  0.00  0.00    +0.000 A 
ATOM     22  C   UNL     1       2.087   5.207  17.917  0.00  0.00    +0.000 A 
ATOM     23  C   UNL     1       1.490   3.949  17.981  0.00  0.00    +0.000 A 
ATOM     24  C   UNL     1       2.266   2.792  17.847  0.00  0.00    +0.000 A 
ATOM     25  C   UNL     1       3.652   2.891  17.649  0.00  0.00    +0.000 A 
ATOM     26  C   UNL     1       4.255   4.157  17.598  0.00  0.00    +0.000 A 
ATOM     27  C   UNL     1       5.734   4.363  17.373  0.00  0.00    +0.000 C 
ENDBRANCH  17  18
ENDBRANCH   1  17
TORSDOF 7
ENDMDL
MODEL 3
REMARK VINA RESULT:      -7.8      5.782      9.252
REMARK  Name = 
REMARK  7 active torsions:
REMARK  status: ('A' for Active; 'I' for Inactive)
REMARK    1  A    between atoms: O_1  and  C_2
REMARK    2  A    between atoms: C_2  and  C_3
REMARK    3  A    between atoms: C_2  and  C_16
REMARK    4  A    between atoms: C_3  and  O_4
REMARK    5  A    between atoms: O_4  and  C_5
REMARK    6  A    between atoms: C_5  and  C_6
REMARK    7  A    between atoms: C_16  and  N_17
REMARK                            x       y       z     vdW  Elec       q    Type
REMARK                         _______ _______ _______ _____ _____    ______ ____
ROOT
ATOM      1  C   UNL     1       2.985   7.325  18.171  0.00  0.00    +0.000 C 
ENDROOT
BRANCH   1   2
ATOM      2  O   UNL     1       2.090   6.330  17.762  0.00  0.00    +0.000 OA
ATOM      3  H   UNL     1       2.348   6.060  16.843  0.00  0.00    +0.000 HD
ENDBRANCH   1   2
BRANCH   1   4
ATOM      4  C   UNL     1       4.264   7.168  17.310  0.00  0.00    +0.000 C 
BRANCH   4   5
ATOM      5  O   UNL     1       4.734   5.833  17.225  0.00  0.00    +0.000 OA
BRANCH   5   6
ATOM      6  C   UNL     1       5.012   5.323  18.512  0.00  0.00    +0.000 C 
BRANCH   6   7
ATOM      7  C   UNL     1       5.145   3.799  18.443  0.00  0.00    +0.000 C 
ATOM      8  C   UNL     1       4.233   3.255  17.326  0.00  0.00    +0.000 C 
ATOM      9  O   UNL     1       2.901   3.456  17.676  0.00  0.00    +0.000 OA
ATOM     10  C   UNL     1       2.476   3.232  18.946  0.00  0.00    +0.000 A 
ATOM     11  C   UNL     1       1.113   3.149  19.252  0.00  0.00    +0.000 A 
ATOM     12  C   UNL     1       0.711   2.890  20.568  0.00  0.00    +0.000 A 
ATOM     13  C   UNL     1       1.667   2.715  21.576  0.00  0.00    +0.000 A 
ATOM     14  C   UNL     1       3.031   2.821  21.279  0.00  0.00    +0.000 A 
ATOM     15  C   UNL     1       3.435   3.090  19.968  0.00  0.00    +0.000 A 
ATOM     16  O   UNL     1       4.749   3.230  19.651  0.00  0.00    +0.000 OA
ENDBRANCH   6   7
ENDBRANCH   5   6
ENDBRANCH   4   5
ENDBRANCH   1   4
BRANCH   1  17
ATOM     17  C   UNL     1       2.388   8.754  18.009  0.00  0.00    +0.000 C 
BRANCH  17  18
ATOM     18  N   UNL     1       1.155   9.022  18.804  0.00  0.00    +0.000 NA
ATOM     19  C   UNL     1       0.548  10.357  18.539  0.00  0.00    +0.000 C 
ATOM     20  C   UNL     1       1.017  11.408  19.545  0.00  0.00    +0.000 C 
ATOM     21  C   UNL     1       0.448  10.955  20.851  0.00  0.00    +0.000 A 
ATOM     22  C   UNL     1      -0.332  11.799  21.648  0.00  0.00    +0.000 A 
ATOM     23  C   UNL     1      -0.922  11.297  22.808  0.00  0.00    +0.000 A 
ATOM     24  C   UNL     1      -0.751   9.954  23.162  0.00  0.00    +0.000 A 
ATOM     25  C   UNL     1       0.018   9.104  22.354  0.00  0.00    +0.000 A 
ATOM     26  C   UNL     1       0.623   9.611  21.195  0.00  0.00    +0.000 A 
ATOM     27  C   UNL     1       1.454   8.769  20.256  0.00  0.00    +0.000 C 
ENDBRANCH  17  18
ENDBRANCH   1  17
TORSDOF 7
ENDMDL
MODEL 4
REMARK VINA RESULT:      -7.8      5.345      8.080
REMARK  Name = 
REMARK  7 active torsions:
REMARK  status: ('A' for Active; 'I' for Inactive)
REMARK    1  A    between atoms: O_1  and  C_2
REMARK    2  A    between atoms: C_2  and  C_3
REMARK    3  A    between atoms: C_2  and  C_16
REMARK    4  A    between atoms: C_3  and  O_4
REMARK    5  A    between atoms: O_4  and  C_5
REMARK    6  A    between atoms: C_5  and  C_6
REMARK    7  A    between atoms: C_16  and  N_17
REMARK                            x       y       z     vdW  Elec       q    Type
REMARK                         _______ _______ _______ _____ _____    ______ ____
ROOT
ATOM      1  C   UNL     1       1.750   8.409  18.752  0.00  0.00    +0.000 C 
ENDROOT
BRANCH   1   2
ATOM      2  O   UNL     1       2.881   8.458  17.930  0.00  0.00    +0.000 OA
ATOM      3  H   UNL     1       3.658   8.176  18.479  0.00  0.00    +0.000 HD
ENDBRANCH   1   2
BRANCH   1   4
ATOM      4  C   UNL     1       2.079   7.446  19.921  0.00  0.00    +0.000 C 
BRANCH   4   5
ATOM      5  O   UNL     1       1.959   6.075  19.582  0.00  0.00    +0.000 OA
BRANCH   5   6
ATOM      6  C   UNL     1       3.177   5.399  19.820  0.00  0.00    +0.000 C 
BRANCH   6   7
ATOM      7  C   UNL     1       3.635   4.701  18.536  0.00  0.00    +0.000 C 
ATOM      8  C   UNL     1       4.659   3.603  18.887  0.00  0.00    +0.000 C 
ATOM      9  O   UNL     1       5.821   4.192  19.377  0.00  0.00    +0.000 OA
ATOM     10  C   UNL     1       6.330   5.310  18.798  0.00  0.00    +0.000 A 
ATOM     11  C   UNL     1       7.628   5.748  19.082  0.00  0.00    +0.000 A 
ATOM     12  C   UNL     1       8.130   6.890  18.446  0.00  0.00    +0.000 A 
ATOM     13  C   UNL     1       7.339   7.593  17.530  0.00  0.00    +0.000 A 
ATOM     14  C   UNL     1       6.031   7.171  17.261  0.00  0.00    +0.000 A 
ATOM     15  C   UNL     1       5.523   6.037  17.902  0.00  0.00    +0.000 A 
ATOM     16  O   UNL     1       4.248   5.619  17.687  0.00  0.00    +0.000 OA
ENDBRANCH   6   7
ENDBRANCH   5   6
ENDBRANCH   4   5
ENDBRANCH   1   4
BRANCH   1  17
ATOM     17  C   UNL     1       1.357   9.815  19.294  0.00  0.00    +0.000 C 
BRANCH  17  18
ATOM     18  N   UNL     1       0.448  10.604  18.414  0.00  0.00    +0.000 NA
ATOM     19  C   UNL     1      -0.259  11.711  19.120  0.00  0.00    +0.000 C 
ATOM     20  C   UNL     1      -1.646  11.288  19.602  0.00  0.00    +0.000 C 
ATOM     21  C   UNL     1      -2.421  11.046  18.346  0.00  0.00    +0.000 A 
ATOM     22  C   UNL     1      -3.649  11.670  18.105  0.00  0.00    +0.000 A 
ATOM     23  C   UNL     1      -4.282  11.490  16.877  0.00  0.00    +0.000 A 
ATOM     24  C   UNL     1      -3.685  10.705  15.883  0.00  0.00    +0.000 A 
ATOM     25  C   UNL     1      -2.446  10.091  16.119  0.00  0.00    +0.000 A 
ATOM     26  C   UNL     1      -1.814  10.262  17.360  0.00  0.00    +0.000 A 
ATOM     27  C   UNL     1      -0.473   9.655  17.699  0.00  0.00    +0.000 C 
ENDBRANCH  17  18
ENDBRANCH   1  17
TORSDOF 7
ENDMDL
MODEL 5
REMARK VINA RESULT:      -7.8      0.889      1.513
REMARK  Name = 
REMARK  7 active torsions:
REMARK  status: ('A' for Active; 'I' for Inactive)
REMARK    1  A    between atoms: O_1  and  C_2
REMARK    2  A    between atoms: C_2  and  C_3
REMARK    3  A    between atoms: C_2  and  C_16
REMARK    4  A    between atoms: C_3  and  O_4
REMARK    5  A    between atoms: O_4  and  C_5
REMARK    6  A    between atoms: C_5  and  C_6
REMARK    7  A    between atoms: C_16  and  N_17
REMARK                            x       y       z     vdW  Elec       q    Type
REMARK                         _______ _______ _______ _____ _____    ______ ____
ROOT
ATOM      1  C   UNL     1       7.740   6.877  17.549  0.00  0.00    +0.000 C 
ENDROOT
BRANCH   1   2
ATOM      2  O   UNL     1       7.512   6.530  16.213  0.00  0.00    +0.000 OA
ATOM      3  H   UNL     1       7.409   5.544  16.177  0.00  0.00    +0.000 HD
ENDBRANCH   1   2
BRANCH   1   4
ATOM      4  C   UNL     1       7.776   8.426  17.617  0.00  0.00    +0.000 C 
BRANCH   4   5
ATOM      5  O   UNL     1       8.640   8.933  18.619  0.00  0.00    +0.000 OA
BRANCH   5   6
ATOM      6  C   UNL     1       8.938  10.292  18.374  0.00  0.00    +0.000 C 
BRANCH   6   7
ATOM      7  C   UNL     1      10.090  10.736  19.279  0.00  0.00    +0.000 C 
ATOM      8  C   UNL     1       9.535  11.596  20.432  0.00  0.00    +0.000 C 
ATOM      9  O   UNL     1       9.037  12.791  19.920  0.00  0.00    +0.000 OA
ATOM     10  C   UNL     1       9.710  13.465  18.952  0.00  0.00    +0.000 A 
ATOM     11  C   UNL     1       9.388  14.788  18.631  0.00  0.00    +0.000 A 
ATOM     12  C   UNL     1      10.120  15.461  17.645  0.00  0.00    +0.000 A 
ATOM     13  C   UNL     1      11.170  14.816  16.982  0.00  0.00    +0.000 A 
ATOM     14  C   UNL     1      11.480  13.484  17.284  0.00  0.00    +0.000 A 
ATOM     15  C   UNL     1      10.744  12.806  18.260  0.00  0.00    +0.000 A 
ATOM     16  O   UNL     1      10.999  11.504  18.554  0.00  0.00    +0.000 OA
ENDBRANCH   6   7
ENDBRANCH   5   6
ENDBRANCH   4   5
ENDBRANCH   1   4
BRANCH   1  17
ATOM     17  C   UNL     1       6.643   6.313  18.498  0.00  0.00    +0.000 C 
BRANCH  17  18
ATOM     18  N   UNL     1       5.573   5.516  17.831  0.00  0.00    +0.000 NA
ATOM     19  C   UNL     1       4.319   6.283  17.585  0.00  0.00    +0.000 C 
ATOM     20  C   UNL     1       3.298   6.084  18.705  0.00  0.00    +0.000 C 
ATOM     21  C   UNL     1       2.918   4.642  18.611  0.00  0.00    +0.000 A 
ATOM     22  C   UNL     1       1.583   4.236  18.505  0.00  0.00    +0.000 A 
ATOM     23  C   UNL     1       1.288   2.886  18.320  0.00  0.00    +0.000 A 
ATOM     24  C   UNL     1       2.319   1.945  18.221  0.00  0.00    +0.000 A 
ATOM     25  C   UNL     1       3.658   2.354  18.312  0.00  0.00    +0.000 A 
ATOM     26  C   UNL     1       3.955   3.710  18.513  0.00  0.00    +0.000 A 
ATOM     27  C   UNL     1       5.365   4.246  18.606  0.00  0.00    +0.000 C 
ENDBRANCH  17  18
ENDBRANCH   1  17
TORSDOF 7
ENDMDL
MODEL 6
REMARK VINA RESULT:      -7.7      5.323      8.145
REMARK  Name = 
REMARK  7 active torsions:
REMARK  status: ('A' for Active; 'I' for Inactive)
REMARK    1  A    between atoms: O_1  and  C_2
REMARK    2  A    between atoms: C_2  and  C_3
REMARK    3  A    between atoms: C_2  and  C_16
REMARK    4  A    between atoms: C_3  and  O_4
REMARK    5  A    between atoms: O_4  and  C_5
REMARK    6  A    between atoms: C_5  and  C_6
REMARK    7  A    between atoms: C_16  and  N_17
REMARK                            x       y       z     vdW  Elec       q    Type
REMARK                         _______ _______ _______ _____ _____    ______ ____
ROOT
ATOM      1  C   UNL     1       1.753   8.379  18.239  0.00  0.00    +0.000 C 
ENDROOT
BRANCH   1   2
ATOM      2  O   UNL     1       2.764   8.401  17.271  0.00  0.00    +0.000 OA
ATOM      3  H   UNL     1       3.161   7.493  17.238  0.00  0.00    +0.000 HD
ENDBRANCH   1   2
BRANCH   1   4
ATOM      4  C   UNL     1       2.281   7.539  19.429  0.00  0.00    +0.000 C 
BRANCH   4   5
ATOM      5  O   UNL     1       2.012   6.152  19.312  0.00  0.00    +0.000 OA
BRANCH   5   6
ATOM      6  C   UNL     1       3.150   5.395  19.670  0.00  0.00    +0.000 C 
BRANCH   6   7
ATOM      7  C   UNL     1       3.684   4.659  18.438  0.00  0.00    +0.000 C 
ATOM      8  C   UNL     1       4.702   3.590  18.880  0.00  0.00    +0.000 C 
ATOM      9  O   UNL     1       5.830   4.213  19.408  0.00  0.00    +0.000 OA
ATOM     10  C   UNL     1       6.353   5.318  18.815  0.00  0.00    +0.000 A 
ATOM     11  C   UNL     1       7.629   5.786  19.150  0.00  0.00    +0.000 A 
ATOM     12  C   UNL     1       8.148   6.912  18.499  0.00  0.00    +0.000 A 
ATOM     13  C   UNL     1       7.396   7.569  17.518  0.00  0.00    +0.000 A 
ATOM     14  C   UNL     1       6.110   7.118  17.198  0.00  0.00    +0.000 A 
ATOM     15  C   UNL     1       5.584   6.001  17.853  0.00  0.00    +0.000 A 
ATOM     16  O   UNL     1       4.328   5.556  17.588  0.00  0.00    +0.000 OA
ENDBRANCH   6   7
ENDBRANCH   5   6
ENDBRANCH   4   5
ENDBRANCH   1   4
BRANCH   1  17
ATOM     17  C   UNL     1       1.360   9.810  18.710  0.00  0.00    +0.000 C 
BRANCH  17  18
ATOM     18  N   UNL     1       0.091   9.897  19.488  0.00  0.00    +0.000 NA
ATOM     19  C   UNL     1      -1.036  10.514  18.732  0.00  0.00    +0.000 C 
ATOM     20  C   UNL     1      -1.159  12.012  19.011  0.00  0.00    +0.000 C 
ATOM     21  C   UNL     1      -1.545  12.093  20.453  0.00  0.00    +0.000 A 
ATOM     22  C   UNL     1      -2.671  12.806  20.876  0.00  0.00    +0.000 A 
ATOM     23  C   UNL     1      -3.044  12.767  22.219  0.00  0.00    +0.000 A 
ATOM     24  C   UNL     1      -2.309  12.006  23.134  0.00  0.00    +0.000 A 
ATOM     25  C   UNL     1      -1.187  11.279  22.707  0.00  0.00    +0.000 A 
ATOM     26  C   UNL     1      -0.804  11.328  21.358  0.00  0.00    +0.000 A 
ATOM     27  C   UNL     1       0.377  10.567  20.803  0.00  0.00    +0.000 C 
ENDBRANCH  17  18
ENDBRANCH   1  17
TORSDOF 7
ENDMDL
MODEL 7
REMARK VINA RESULT:      -7.6      6.072      9.736
REMARK  Name = 
REMARK  7 active torsions:
REMARK  status: ('A' for Active; 'I' for Inactive)
REMARK    1  A    between atoms: O_1  and  C_2
REMARK    2  A    between atoms: C_2  and  C_3
REMARK    3  A    between atoms: C_2  and  C_16
REMARK    4  A    between atoms: C_3  and  O_4
REMARK    5  A    between atoms: O_4  and  C_5
REMARK    6  A    between atoms: C_5  and  C_6
REMARK    7  A    between atoms: C_16  and  N_17
REMARK                            x       y       z     vdW  Elec       q    Type
REMARK                         _______ _______ _______ _____ _____    ______ ____
ROOT
ATOM      1  C   UNL     1       1.327   9.279  18.112  0.00  0.00    +0.000 C 
ENDROOT
BRANCH   1   2
ATOM      2  O   UNL     1       2.076  10.274  17.474  0.00  0.00    +0.000 OA
ATOM      3  H   UNL     1       3.034  10.078  17.644  0.00  0.00    +0.000 HD
ENDBRANCH   1   2
BRANCH   1   4
ATOM      4  C   UNL     1       1.976   7.919  17.748  0.00  0.00    +0.000 C 
BRANCH   4   5
ATOM      5  O   UNL     1       3.375   7.877  17.969  0.00  0.00    +0.000 OA
BRANCH   5   6
ATOM      6  C   UNL     1       3.924   6.686  17.441  0.00  0.00    +0.000 C 
BRANCH   6   7
ATOM      7  C   UNL     1       4.611   5.898  18.560  0.00  0.00    +0.000 C 
ATOM      8  C   UNL     1       5.237   4.617  17.974  0.00  0.00    +0.000 C 
ATOM      9  O   UNL     1       4.226   3.763  17.541  0.00  0.00    +0.000 OA
ATOM     10  C   UNL     1       3.102   3.586  18.283  0.00  0.00    +0.000 A 
ATOM     11  C   UNL     1       2.217   2.535  18.019  0.00  0.00    +0.000 A 
ATOM     12  C   UNL     1       1.081   2.366  18.821  0.00  0.00    +0.000 A 
ATOM     13  C   UNL     1       0.830   3.244  19.882  0.00  0.00    +0.000 A 
ATOM     14  C   UNL     1       1.701   4.311  20.135  0.00  0.00    +0.000 A 
ATOM     15  C   UNL     1       2.830   4.489  19.329  0.00  0.00    +0.000 A 
ATOM     16  O   UNL     1       3.679   5.531  19.527  0.00  0.00    +0.000 OA
ENDBRANCH   6   7
ENDBRANCH   5   6
ENDBRANCH   4   5
ENDBRANCH   1   4
BRANCH   1  17
ATOM     17  C   UNL     1       1.289   9.471  19.656  0.00  0.00    +0.000 C 
BRANCH  17  18
ATOM     18  N   UNL     1      -0.065   9.713  20.233  0.00  0.00    +0.000 NA
ATOM     19  C   UNL     1      -1.021  10.344  19.279  0.00  0.00    +0.000 C 
ATOM     20  C   UNL     1      -1.057  11.864  19.428  0.00  0.00    +0.000 C 
ATOM     21  C   UNL     1      -1.632  12.092  20.789  0.00  0.00    +0.000 A 
ATOM     22  C   UNL     1      -2.744  12.916  20.991  0.00  0.00    +0.000 A 
ATOM     23  C   UNL     1      -3.302  13.016  22.265  0.00  0.00    +0.000 A 
ATOM     24  C   UNL     1      -2.767  12.284  23.330  0.00  0.00    +0.000 A 
ATOM     25  C   UNL     1      -1.660  11.445  23.124  0.00  0.00    +0.000 A 
ATOM     26  C   UNL     1      -1.090  11.355  21.845  0.00  0.00    +0.000 A 
ATOM     27  C   UNL     1       0.090  10.468  21.524  0.00  0.00    +0.000 C 
ENDBRANCH  17  18
ENDBRANCH   1  17
TORSDOF 7
ENDMDL
MODEL 8
REMARK VINA RESULT:      -7.6      6.076      8.764
REMARK  Name = 
REMARK  7 active torsions:
REMARK  status: ('A' for Active; 'I' for Inactive)
REMARK    1  A    between atoms: O_1  and  C_2
REMARK    2  A    between atoms: C_2  and  C_3
REMARK    3  A    between atoms: C_2  and  C_16
REMARK    4  A    between atoms: C_3  and  O_4
REMARK    5  A    between atoms: O_4  and  C_5
REMARK    6  A    between atoms: C_5  and  C_6
REMARK    7  A    between atoms: C_16  and  N_17
REMARK                            x       y       z     vdW  Elec       q    Type
REMARK                         _______ _______ _______ _____ _____    ______ ____
ROOT
ATOM      1  C   UNL     1       1.596   8.917  18.185  0.00  0.00    +0.000 C 
ENDROOT
BRANCH   1   2
ATOM      2  O   UNL     1       1.831   9.966  17.289  0.00  0.00    +0.000 OA
ATOM      3  H   UNL     1       1.601   9.637  16.381  0.00  0.00    +0.000 HD
ENDBRANCH   1   2
BRANCH   1   4
ATOM      4  C   UNL     1       2.741   7.889  17.993  0.00  0.00    +0.000 C 
BRANCH   4   5
ATOM      5  O   UNL     1       2.320   6.540  18.100  0.00  0.00    +0.000 OA
BRANCH   5   6
ATOM      6  C   UNL     1       3.120   5.845  19.034  0.00  0.00    +0.000 C 
BRANCH   6   7
ATOM      7  C   UNL     1       3.193   4.365  18.647  0.00  0.00    +0.000 C 
ATOM      8  C   UNL     1       4.275   3.666  19.493  0.00  0.00    +0.000 C 
ATOM      9  O   UNL     1       5.528   4.162  19.144  0.00  0.00    +0.000 OA
ATOM     10  C   UNL     1       5.848   4.385  17.842  0.00  0.00    +0.000 A 
ATOM     11  C   UNL     1       7.172   4.604  17.447  0.00  0.00    +0.000 A 
ATOM     12  C   UNL     1       7.469   4.803  16.094  0.00  0.00    +0.000 A 
ATOM     13  C   UNL     1       6.447   4.785  15.137  0.00  0.00    +0.000 A 
ATOM     14  C   UNL     1       5.117   4.590  15.531  0.00  0.00    +0.000 A 
ATOM     15  C   UNL     1       4.817   4.401  16.883  0.00  0.00    +0.000 A 
ATOM     16  O   UNL     1       3.534   4.240  17.303  0.00  0.00    +0.000 OA
ENDBRANCH   6   7
ENDBRANCH   5   6
ENDBRANCH   4   5
ENDBRANCH   1   4
BRANCH   1  17
ATOM     17  C   UNL     1       1.541   9.406  19.661  0.00  0.00    +0.000 C 
BRANCH  17  18
ATOM     18  N   UNL     1       0.170   9.617  20.211  0.00  0.00    +0.000 NA
ATOM     19  C   UNL     1      -0.774  10.244  19.243  0.00  0.00    +0.000 C 
ATOM     20  C   UNL     1      -0.840  11.762  19.410  0.00  0.00    +0.000 C 
ATOM     21  C   UNL     1      -1.449  11.963  20.760  0.00  0.00    +0.000 A 
ATOM     22  C   UNL     1      -2.579  12.765  20.948  0.00  0.00    +0.000 A 
ATOM     23  C   UNL     1      -3.168  12.839  22.210  0.00  0.00    +0.000 A 
ATOM     24  C   UNL     1      -2.644  12.102  23.277  0.00  0.00    +0.000 A 
ATOM     25  C   UNL     1      -1.519  11.285  23.086  0.00  0.00    +0.000 A 
ATOM     26  C   UNL     1      -0.918  11.221  21.819  0.00  0.00    +0.000 A 
ATOM     27  C   UNL     1       0.283  10.358  21.514  0.00  0.00    +0.000 C 
ENDBRANCH  17  18
ENDBRANCH   1  17
TORSDOF 7
ENDMDL
MODEL 9
REMARK VINA RESULT:      -7.5      1.365      1.807
REMARK  Name = 
REMARK  7 active torsions:
REMARK  status: ('A' for Active; 'I' for Inactive)
REMARK    1  A    between atoms: O_1  and  C_2
REMARK    2  A    between atoms: C_2  and  C_3
REMARK    3  A    between atoms: C_2  and  C_16
REMARK    4  A    between atoms: C_3  and  O_4
REMARK    5  A    between atoms: O_4  and  C_5
REMARK    6  A    between atoms: C_5  and  C_6
REMARK    7  A    between atoms: C_16  and  N_17
REMARK                            x       y       z     vdW  Elec       q    Type
REMARK                         _______ _______ _______ _____ _____    ______ ____
ROOT
ATOM      1  C   UNL     1       7.337   6.462  17.538  0.00  0.00    +0.000 C 
ENDROOT
BRANCH   1   2
ATOM      2  O   UNL     1       7.824   6.638  16.238  0.00  0.00    +0.000 OA
ATOM      3  H   UNL     1       7.083   6.427  15.614  0.00  0.00    +0.000 HD
ENDBRANCH   1   2
BRANCH   1   4
ATOM      4  C   UNL     1       8.009   7.540  18.426  0.00  0.00    +0.000 C 
BRANCH   4   5
ATOM      5  O   UNL     1       8.373   8.714  17.719  0.00  0.00    +0.000 OA
BRANCH   5   6
ATOM      6  C   UNL     1       8.561   9.792  18.613  0.00  0.00    +0.000 C 
BRANCH   6   7
ATOM      7  C   UNL     1       9.644  10.727  18.070  0.00  0.00    +0.000 C 
ATOM      8  C   UNL     1      10.594  11.133  19.214  0.00  0.00    +0.000 C 
ATOM      9  O   UNL     1       9.904  11.922  20.130  0.00  0.00    +0.000 OA
ATOM     10  C   UNL     1       9.044  12.885  19.708  0.00  0.00    +0.000 A 
ATOM     11  C   UNL     1       8.566  13.867  20.583  0.00  0.00    +0.000 A 
ATOM     12  C   UNL     1       7.701  14.859  20.107  0.00  0.00    +0.000 A 
ATOM     13  C   UNL     1       7.313  14.871  18.761  0.00  0.00    +0.000 A 
ATOM     14  C   UNL     1       7.770  13.877  17.888  0.00  0.00    +0.000 A 
ATOM     15  C   UNL     1       8.626  12.878  18.363  0.00  0.00    +0.000 A 
ATOM     16  O   UNL     1       9.062  11.880  17.550  0.00  0.00    +0.000 OA
ENDBRANCH   6   7
ENDBRANCH   5   6
ENDBRANCH   4   5
ENDBRANCH   1   4
BRANCH   1  17
ATOM     17  C   UNL     1       5.787   6.584  17.607  0.00  0.00    +0.000 C 
BRANCH  17  18
ATOM     18  N   UNL     1       5.106   5.568  18.460  0.00  0.00    +0.000 NA
ATOM     19  C   UNL     1       5.107   4.196  17.878  0.00  0.00    +0.000 C 
ATOM     20  C   UNL     1       3.826   3.905  17.098  0.00  0.00    +0.000 C 
ATOM     21  C   UNL     1       2.749   3.904  18.135  0.00  0.00    +0.000 A 
ATOM     22  C   UNL     1       1.870   2.827  18.285  0.00  0.00    +0.000 A 
ATOM     23  C   UNL     1       0.949   2.833  19.331  0.00  0.00    +0.000 A 
ATOM     24  C   UNL     1       0.915   3.900  20.237  0.00  0.00    +0.000 A 
ATOM     25  C   UNL     1       1.808   4.973  20.095  0.00  0.00    +0.000 A 
ATOM     26  C   UNL     1       2.726   4.974  19.034  0.00  0.00    +0.000 A 
ATOM     27  C   UNL     1       3.735   6.076  18.811  0.00  0.00    +0.000 C 
ENDBRANCH  17  18
ENDBRANCH   1  17
TORSDOF 7
ENDMDL
