MODEL 1
REMARK VINA RESULT:      -5.4      0.000      0.000
REMARK  Name = 
REMARK  10 active torsions:
REMARK  status: ('A' for Active; 'I' for Inactive)
REMARK    1  A    between atoms: C_1  and  C_2
REMARK    2  A    between atoms: C_2  and  C_3
REMARK    3  A    between atoms: C_3  and  C_4
REMARK    4  A    between atoms: C_4  and  C_5
REMARK    5  A    between atoms: C_5  and  C_6
REMARK    6  A    between atoms: C_6  and  C_7
REMARK    7  A    between atoms: C_7  and  C_8
REMARK    8  A    between atoms: C_8  and  C_9
REMARK    9  A    between atoms: C_9  and  C_10
REMARK   10  A    between atoms: C_13  and  O_14
REMARK                            x       y       z     vdW  Elec       q    Type
REMARK                         _______ _______ _______ _____ _____    ______ ____
ROOT
ATOM      1  C   UNL     1       2.537   5.444  18.141  0.00  0.00    +0.000 C 
ENDROOT
BRANCH   1   2
ATOM      2  C   UNL     1       3.975   5.092  17.902  0.00  0.00    +0.000 A 
ATOM      3  C   UNL     1       4.945   5.404  18.866  0.00  0.00    +0.000 A 
ATOM      4  C   UNL     1       6.286   5.105  18.636  0.00  0.00    +0.000 A 
ATOM      5  C   UNL     1       6.651   4.501  17.440  0.00  0.00    +0.000 A 
ATOM      6  C   UNL     1       5.700   4.187  16.473  0.00  0.00    +0.000 A 
ATOM      7  C   UNL     1       4.362   4.485  16.703  0.00  0.00    +0.000 A 
BRANCH   5   8
ATOM      8  O   UNL     1       7.953   4.196  17.168  0.00  0.00    +0.000 OA
ATOM      9  H   UNL     1       7.966   3.530  16.464  0.00  0.00    +0.000 HD
ENDBRANCH   5   8
ENDBRANCH   1   2
BRANCH   1  10
ATOM     10  C   UNL     1       1.602   4.390  17.543  0.00  0.00    +0.000 C 
BRANCH  10  11
ATOM     11  C   UNL     1       1.101   3.405  18.597  0.00  0.00    +0.000 C 
BRANCH  11  12
ATOM     12  C   UNL     1       0.784   4.103  19.916  0.00  0.00    +0.000 C 
BRANCH  12  13
ATOM     13  C   UNL     1       1.249   3.281  21.106  0.00  0.00    +0.000 C 
BRANCH  13  14
ATOM     14  C   UNL     1       2.760   3.413  21.274  0.00  0.00    +0.000 C 
BRANCH  14  15
ATOM     15  C   UNL     1       3.434   2.061  21.084  0.00  0.00    +0.000 C 
BRANCH  15  17
ATOM     16  C   UNL     1       3.945   1.394  18.725  0.00  0.00    +0.000 C 
ATOM     17  C   UNL     1       4.462   2.113  19.958  0.00  0.00    +0.000 C 
ENDBRANCH  15  17
ENDBRANCH  14  15
ENDBRANCH  13  14
ENDBRANCH  12  13
ENDBRANCH  11  12
ENDBRANCH  10  11
ENDBRANCH   1  10
TORSDOF 9
ENDMDL
MODEL 2
REMARK VINA RESULT:      -5.4      1.394      3.014
REMARK  Name = 
REMARK  10 active torsions:
REMARK  status: ('A' for Active; 'I' for Inactive)
REMARK    1  A    between atoms: C_1  and  C_2
REMARK    2  A    between atoms: C_2  and  C_3
REMARK    3  A    between atoms: C_3  and  C_4
REMARK    4  A    between atoms: C_4  and  C_5
REMARK    5  A    between atoms: C_5  and  C_6
REMARK    6  A    between atoms: C_6  and  C_7
REMARK    7  A    between atoms: C_7  and  C_8
REMARK    8  A    between atoms: C_8  and  C_9
REMARK    9  A    between atoms: C_9  and  C_10
REMARK   10  A    between atoms: C_13  and  O_14
REMARK                            x       y       z     vdW  Elec       q    Type
REMARK                         _______ _______ _______ _____ _____    ______ ____
ROOT
ATOM      1  C   UNL     1       3.623   2.728  18.422  0.00  0.00    +0.000 C 
ENDROOT
BRANCH   1   2
ATOM      2  C   UNL     1       4.603   3.721  17.871  0.00  0.00    +0.000 A 
ATOM      3  C   UNL     1       4.600   4.028  16.503  0.00  0.00    +0.000 A 
ATOM      4  C   UNL     1       5.526   4.928  15.982  0.00  0.00    +0.000 A 
ATOM      5  C   UNL     1       6.456   5.513  16.831  0.00  0.00    +0.000 A 
ATOM      6  C   UNL     1       6.473   5.217  18.192  0.00  0.00    +0.000 A 
ATOM      7  C   UNL     1       5.548   4.319  18.712  0.00  0.00    +0.000 A 
BRANCH   5   8
ATOM      8  O   UNL     1       7.387   6.394  16.365  0.00  0.00    +0.000 OA
ATOM      9  H   UNL     1       7.961   5.924  15.740  0.00  0.00    +0.000 HD
ENDBRANCH   5   8
ENDBRANCH   1   2
BRANCH   1  10
ATOM     10  C   UNL     1       2.210   2.997  17.901  0.00  0.00    +0.000 C 
BRANCH  10  11
ATOM     11  C   UNL     1       1.210   3.200  19.038  0.00  0.00    +0.000 C 
BRANCH  11  12
ATOM     12  C   UNL     1       1.854   2.978  20.403  0.00  0.00    +0.000 C 
BRANCH  12  13
ATOM     13  C   UNL     1       2.221   4.294  21.067  0.00  0.00    +0.000 C 
BRANCH  13  14
ATOM     14  C   UNL     1       1.558   5.453  20.329  0.00  0.00    +0.000 C 
BRANCH  14  15
ATOM     15  C   UNL     1       2.614   6.394  19.765  0.00  0.00    +0.000 C 
BRANCH  15  17
ATOM     16  C   UNL     1       3.480   7.526  17.707  0.00  0.00    +0.000 C 
ATOM     17  C   UNL     1       2.362   6.679  18.288  0.00  0.00    +0.000 C 
ENDBRANCH  15  17
ENDBRANCH  14  15
ENDBRANCH  13  14
ENDBRANCH  12  13
ENDBRANCH  11  12
ENDBRANCH  10  11
ENDBRANCH   1  10
TORSDOF 9
ENDMDL
MODEL 3
REMARK VINA RESULT:      -5.3      1.030      2.016
REMARK  Name = 
REMARK  10 active torsions:
REMARK  status: ('A' for Active; 'I' for Inactive)
REMARK    1  A    between atoms: C_1  and  C_2
REMARK    2  A    between atoms: C_2  and  C_3
REMARK    3  A    between atoms: C_3  and  C_4
REMARK    4  A    between atoms: C_4  and  C_5
REMARK    5  A    between atoms: C_5  and  C_6
REMARK    6  A    between atoms: C_6  and  C_7
REMARK    7  A    between atoms: C_7  and  C_8
REMARK    8  A    between atoms: C_8  and  C_9
REMARK    9  A    between atoms: C_9  and  C_10
REMARK   10  A    between atoms: C_13  and  O_14
REMARK                            x       y       z     vdW  Elec       q    Type
REMARK                         _______ _______ _______ _____ _____    ______ ____
ROOT
ATOM      1  C   UNL     1       2.959   5.954  17.863  0.00  0.00    +0.000 C 
ENDROOT
BRANCH   1   2
ATOM      2  C   UNL     1       4.371   5.472  17.699  0.00  0.00    +0.000 A 
ATOM      3  C   UNL     1       4.746   4.775  16.542  0.00  0.00    +0.000 A 
ATOM      4  C   UNL     1       6.048   4.301  16.397  0.00  0.00    +0.000 A 
ATOM      5  C   UNL     1       6.967   4.522  17.414  0.00  0.00    +0.000 A 
ATOM      6  C   UNL     1       6.609   5.211  18.570  0.00  0.00    +0.000 A 
ATOM      7  C   UNL     1       5.310   5.685  18.714  0.00  0.00    +0.000 A 
BRANCH   5   8
ATOM      8  O   UNL     1       8.250   4.070  17.320  0.00  0.00    +0.000 OA
ATOM      9  H   UNL     1       8.819   4.821  17.089  0.00  0.00    +0.000 HD
ENDBRANCH   5   8
ENDBRANCH   1   2
BRANCH   1  10
ATOM     10  C   UNL     1       2.701   6.434  19.293  0.00  0.00    +0.000 C 
BRANCH  10  11
ATOM     11  C   UNL     1       2.544   5.270  20.268  0.00  0.00    +0.000 C 
BRANCH  11  12
ATOM     12  C   UNL     1       1.082   4.869  20.439  0.00  0.00    +0.000 C 
BRANCH  12  13
ATOM     13  C   UNL     1       0.914   3.360  20.439  0.00  0.00    +0.000 C 
BRANCH  13  14
ATOM     14  C   UNL     1       0.946   2.830  19.008  0.00  0.00    +0.000 C 
BRANCH  14  15
ATOM     15  C   UNL     1       1.912   1.659  18.899  0.00  0.00    +0.000 C 
BRANCH  15  17
ATOM     16  C   UNL     1       4.279   2.234  19.479  0.00  0.00    +0.000 C 
ATOM     17  C   UNL     1       3.264   2.113  18.357  0.00  0.00    +0.000 C 
ENDBRANCH  15  17
ENDBRANCH  14  15
ENDBRANCH  13  14
ENDBRANCH  12  13
ENDBRANCH  11  12
ENDBRANCH  10  11
ENDBRANCH   1  10
TORSDOF 9
ENDMDL
MODEL 4
REMARK VINA RESULT:      -5.3      1.628      2.617
REMARK  Name = 
REMARK  10 active torsions:
REMARK  status: ('A' for Active; 'I' for Inactive)
REMARK    1  A    between atoms: C_1  and  C_2
REMARK    2  A    between atoms: C_2  and  C_3
REMARK    3  A    between atoms: C_3  and  C_4
REMARK    4  A    between atoms: C_4  and  C_5
REMARK    5  A    between atoms: C_5  and  C_6
REMARK    6  A    between atoms: C_6  and  C_7
REMARK    7  A    between atoms: C_7  and  C_8
REMARK    8  A    between atoms: C_8  and  C_9
REMARK    9  A    between atoms: C_9  and  C_10
REMARK   10  A    between atoms: C_13  and  O_14
REMARK                            x       y       z     vdW  Elec       q    Type
REMARK                         _______ _______ _______ _____ _____    ______ ____
ROOT
ATOM      1  C   UNL     1       4.205   3.723  18.291  0.00  0.00    +0.000 C 
ENDROOT
BRANCH   1   2
ATOM      2  C   UNL     1       5.184   4.149  17.237  0.00  0.00    +0.000 A 
ATOM      3  C   UNL     1       6.452   4.623  17.604  0.00  0.00    +0.000 A 
ATOM      4  C   UNL     1       7.353   5.046  16.630  0.00  0.00    +0.000 A 
ATOM      5  C   UNL     1       6.980   4.999  15.293  0.00  0.00    +0.000 A 
ATOM      6  C   UNL     1       5.724   4.533  14.913  0.00  0.00    +0.000 A 
ATOM      7  C   UNL     1       4.825   4.110  15.885  0.00  0.00    +0.000 A 
BRANCH   5   8
ATOM      8  O   UNL     1       7.826   5.410  14.306  0.00  0.00    +0.000 OA
ATOM      9  H   UNL     1       7.331   5.989  13.705  0.00  0.00    +0.000 HD
ENDBRANCH   5   8
ENDBRANCH   1   2
BRANCH   1  10
ATOM     10  C   UNL     1       2.894   3.241  17.667  0.00  0.00    +0.000 C 
BRANCH  10  11
ATOM     11  C   UNL     1       2.346   2.002  18.372  0.00  0.00    +0.000 C 
BRANCH  11  12
ATOM     12  C   UNL     1       0.876   2.168  18.744  0.00  0.00    +0.000 C 
BRANCH  12  13
ATOM     13  C   UNL     1       0.660   3.381  19.632  0.00  0.00    +0.000 C 
BRANCH  13  14
ATOM     14  C   UNL     1       1.433   3.217  20.938  0.00  0.00    +0.000 C 
BRANCH  14  15
ATOM     15  C   UNL     1       2.261   4.463  21.222  0.00  0.00    +0.000 C 
BRANCH  15  17
ATOM     16  C   UNL     1       2.584   6.446  19.728  0.00  0.00    +0.000 C 
ATOM     17  C   UNL     1       1.607   5.704  20.624  0.00  0.00    +0.000 C 
ENDBRANCH  15  17
ENDBRANCH  14  15
ENDBRANCH  13  14
ENDBRANCH  12  13
ENDBRANCH  11  12
ENDBRANCH  10  11
ENDBRANCH   1  10
TORSDOF 9
ENDMDL
MODEL 5
REMARK VINA RESULT:      -5.3      1.461      1.950
REMARK  Name = 
REMARK  10 active torsions:
REMARK  status: ('A' for Active; 'I' for Inactive)
REMARK    1  A    between atoms: C_1  and  C_2
REMARK    2  A    between atoms: C_2  and  C_3
REMARK    3  A    between atoms: C_3  and  C_4
REMARK    4  A    between atoms: C_4  and  C_5
REMARK    5  A    between atoms: C_5  and  C_6
REMARK    6  A    between atoms: C_6  and  C_7
REMARK    7  A    between atoms: C_7  and  C_8
REMARK    8  A    between atoms: C_8  and  C_9
REMARK    9  A    between atoms: C_9  and  C_10
REMARK   10  A    between atoms: C_13  and  O_14
REMARK                            x       y       z     vdW  Elec       q    Type
REMARK                         _______ _______ _______ _____ _____    ______ ____
ROOT
ATOM      1  C   UNL     1       3.072   5.366  18.090  0.00  0.00    +0.000 C 
ENDROOT
BRANCH   1   2
ATOM      2  C   UNL     1       4.332   5.337  17.275  0.00  0.00    +0.000 A 
ATOM      3  C   UNL     1       5.292   6.347  17.428  0.00  0.00    +0.000 A 
ATOM      4  C   UNL     1       6.450   6.340  16.654  0.00  0.00    +0.000 A 
ATOM      5  C   UNL     1       6.638   5.325  15.725  0.00  0.00    +0.000 A 
ATOM      6  C   UNL     1       5.693   4.316  15.560  0.00  0.00    +0.000 A 
ATOM      7  C   UNL     1       4.538   4.323  16.333  0.00  0.00    +0.000 A 
BRANCH   5   8
ATOM      8  O   UNL     1       7.752   5.281  14.939  0.00  0.00    +0.000 OA
ATOM      9  H   UNL     1       7.560   4.718  14.173  0.00  0.00    +0.000 HD
ENDBRANCH   5   8
ENDBRANCH   1   2
BRANCH   1  10
ATOM     10  C   UNL     1       3.320   5.976  19.471  0.00  0.00    +0.000 C 
BRANCH  10  11
ATOM     11  C   UNL     1       2.021   6.180  20.248  0.00  0.00    +0.000 C 
BRANCH  11  12
ATOM     12  C   UNL     1       1.290   4.861  20.482  0.00  0.00    +0.000 C 
BRANCH  12  13
ATOM     13  C   UNL     1       2.096   3.928  21.370  0.00  0.00    +0.000 C 
BRANCH  13  14
ATOM     14  C   UNL     1       2.229   2.561  20.705  0.00  0.00    +0.000 C 
BRANCH  14  15
ATOM     15  C   UNL     1       1.279   2.454  19.520  0.00  0.00    +0.000 C 
BRANCH  15  17
ATOM     16  C   UNL     1       3.464   1.662  18.588  0.00  0.00    +0.000 C 
ATOM     17  C   UNL     1       2.014   1.981  18.270  0.00  0.00    +0.000 C 
ENDBRANCH  15  17
ENDBRANCH  14  15
ENDBRANCH  13  14
ENDBRANCH  12  13
ENDBRANCH  11  12
ENDBRANCH  10  11
ENDBRANCH   1  10
TORSDOF 9
ENDMDL
MODEL 6
REMARK VINA RESULT:      -5.2      1.901      4.303
REMARK  Name = 
REMARK  10 active torsions:
REMARK  status: ('A' for Active; 'I' for Inactive)
REMARK    1  A    between atoms: C_1  and  C_2
REMARK    2  A    between atoms: C_2  and  C_3
REMARK    3  A    between atoms: C_3  and  C_4
REMARK    4  A    between atoms: C_4  and  C_5
REMARK    5  A    between atoms: C_5  and  C_6
REMARK    6  A    between atoms: C_6  and  C_7
REMARK    7  A    between atoms: C_7  and  C_8
REMARK    8  A    between atoms: C_8  and  C_9
REMARK    9  A    between atoms: C_9  and  C_10
REMARK   10  A    between atoms: C_13  and  O_14
REMARK                            x       y       z     vdW  Elec       q    Type
REMARK                         _______ _______ _______ _____ _____    ______ ____
ROOT
ATOM      1  C   UNL     1       1.612   5.281  20.366  0.00  0.00    +0.000 C 
ENDROOT
BRANCH   1   2
ATOM      2  C   UNL     1       2.237   4.032  19.816  0.00  0.00    +0.000 A 
ATOM      3  C   UNL     1       3.408   3.519  20.391  0.00  0.00    +0.000 A 
ATOM      4  C   UNL     1       4.007   2.377  19.866  0.00  0.00    +0.000 A 
ATOM      5  C   UNL     1       3.434   1.756  18.763  0.00  0.00    +0.000 A 
ATOM      6  C   UNL     1       2.273   2.256  18.179  0.00  0.00    +0.000 A 
ATOM      7  C   UNL     1       1.675   3.395  18.704  0.00  0.00    +0.000 A 
BRANCH   5   8
ATOM      8  O   UNL     1       3.990   0.640  18.210  0.00  0.00    +0.000 OA
ATOM      9  H   UNL     1       4.941   0.797  18.104  0.00  0.00    +0.000 HD
ENDBRANCH   5   8
ENDBRANCH   1   2
BRANCH   1  10
ATOM     10  C   UNL     1       2.306   6.532  19.824  0.00  0.00    +0.000 C 
BRANCH  10  11
ATOM     11  C   UNL     1       2.415   6.512  18.301  0.00  0.00    +0.000 C 
BRANCH  11  12
ATOM     12  C   UNL     1       3.441   7.521  17.795  0.00  0.00    +0.000 C 
BRANCH  12  13
ATOM     13  C   UNL     1       4.550   6.841  17.010  0.00  0.00    +0.000 C 
BRANCH  13  14
ATOM     14  C   UNL     1       4.412   5.325  17.118  0.00  0.00    +0.000 C 
BRANCH  14  15
ATOM     15  C   UNL     1       5.719   4.707  17.596  0.00  0.00    +0.000 C 
BRANCH  15  17
ATOM     16  C   UNL     1       7.658   5.704  18.827  0.00  0.00    +0.000 C 
ATOM     17  C   UNL     1       6.184   5.347  18.900  0.00  0.00    +0.000 C 
ENDBRANCH  15  17
ENDBRANCH  14  15
ENDBRANCH  13  14
ENDBRANCH  12  13
ENDBRANCH  11  12
ENDBRANCH  10  11
ENDBRANCH   1  10
TORSDOF 9
ENDMDL
MODEL 7
REMARK VINA RESULT:      -5.2      1.563      2.893
REMARK  Name = 
REMARK  10 active torsions:
REMARK  status: ('A' for Active; 'I' for Inactive)
REMARK    1  A    between atoms: C_1  and  C_2
REMARK    2  A    between atoms: C_2  and  C_3
REMARK    3  A    between atoms: C_3  and  C_4
REMARK    4  A    between atoms: C_4  and  C_5
REMARK    5  A    between atoms: C_5  and  C_6
REMARK    6  A    between atoms: C_6  and  C_7
REMARK    7  A    between atoms: C_7  and  C_8
REMARK    8  A    between atoms: C_8  and  C_9
REMARK    9  A    between atoms: C_9  and  C_10
REMARK   10  A    between atoms: C_13  and  O_14
REMARK                            x       y       z     vdW  Elec       q    Type
REMARK                         _______ _______ _______ _____ _____    ______ ____
ROOT
ATOM      1  C   UNL     1       3.491   2.965  17.610  0.00  0.00    +0.000 C 
ENDROOT
BRANCH   1   2
ATOM      2  C   UNL     1       4.615   3.925  17.356  0.00  0.00    +0.000 A 
ATOM      3  C   UNL     1       5.423   4.359  18.417  0.00  0.00    +0.000 A 
ATOM      4  C   UNL     1       6.450   5.272  18.191  0.00  0.00    +0.000 A 
ATOM      5  C   UNL     1       6.660   5.752  16.905  0.00  0.00    +0.000 A 
ATOM      6  C   UNL     1       5.865   5.333  15.842  0.00  0.00    +0.000 A 
ATOM      7  C   UNL     1       4.841   4.421  16.068  0.00  0.00    +0.000 A 
BRANCH   5   8
ATOM      8  O   UNL     1       7.649   6.654  16.638  0.00  0.00    +0.000 OA
ATOM      9  H   UNL     1       8.482   6.167  16.536  0.00  0.00    +0.000 HD
ENDBRANCH   5   8
ENDBRANCH   1   2
BRANCH   1  10
ATOM     10  C   UNL     1       3.373   2.631  19.098  0.00  0.00    +0.000 C 
BRANCH  10  11
ATOM     11  C   UNL     1       1.985   2.106  19.459  0.00  0.00    +0.000 C 
BRANCH  11  12
ATOM     12  C   UNL     1       1.257   3.044  20.417  0.00  0.00    +0.000 C 
BRANCH  12  13
ATOM     13  C   UNL     1       2.173   4.145  20.921  0.00  0.00    +0.000 C 
BRANCH  13  14
ATOM     14  C   UNL     1       1.687   5.501  20.417  0.00  0.00    +0.000 C 
BRANCH  14  15
ATOM     15  C   UNL     1       2.842   6.285  19.811  0.00  0.00    +0.000 C 
BRANCH  15  17
ATOM     16  C   UNL     1       3.373   7.467  17.669  0.00  0.00    +0.000 C 
ATOM     17  C   UNL     1       2.342   7.278  18.767  0.00  0.00    +0.000 C 
ENDBRANCH  15  17
ENDBRANCH  14  15
ENDBRANCH  13  14
ENDBRANCH  12  13
ENDBRANCH  11  12
ENDBRANCH  10  11
ENDBRANCH   1  10
TORSDOF 9
ENDMDL
MODEL 8
REMARK VINA RESULT:      -5.2      2.581      3.872
REMARK  Name = 
REMARK  10 active torsions:
REMARK  status: ('A' for Active; 'I' for Inactive)
REMARK    1  A    between atoms: C_1  and  C_2
REMARK    2  A    between atoms: C_2  and  C_3
REMARK    3  A    between atoms: C_3  and  C_4
REMARK    4  A    between atoms: C_4  and  C_5
REMARK    5  A    between atoms: C_5  and  C_6
REMARK    6  A    between atoms: C_6  and  C_7
REMARK    7  A    between atoms: C_7  and  C_8
REMARK    8  A    between atoms: C_8  and  C_9
REMARK    9  A    between atoms: C_9  and  C_10
REMARK   10  A    between atoms: C_13  and  O_14
REMARK                            x       y       z     vdW  Elec       q    Type
REMARK                         _______ _______ _______ _____ _____    ______ ____
ROOT
ATOM      1  C   UNL     1       4.507   4.886  19.400  0.00  0.00    +0.000 C 
ENDROOT
BRANCH   1   2
ATOM      2  C   UNL     1       3.823   6.116  18.879  0.00  0.00    +0.000 A 
ATOM      3  C   UNL     1       2.751   6.677  19.587  0.00  0.00    +0.000 A 
ATOM      4  C   UNL     1       2.095   7.802  19.092  0.00  0.00    +0.000 A 
ATOM      5  C   UNL     1       2.511   8.356  17.889  0.00  0.00    +0.000 A 
ATOM      6  C   UNL     1       3.573   7.808  17.174  0.00  0.00    +0.000 A 
ATOM      7  C   UNL     1       4.228   6.687  17.668  0.00  0.00    +0.000 A 
BRANCH   5   8
ATOM      8  O   UNL     1       1.894   9.452  17.362  0.00  0.00    +0.000 OA
ATOM      9  H   UNL     1       2.577  10.044  17.010  0.00  0.00    +0.000 HD
ENDBRANCH   5   8
ENDBRANCH   1   2
BRANCH   1  10
ATOM     10  C   UNL     1       4.835   3.912  18.267  0.00  0.00    +0.000 C 
BRANCH  10  11
ATOM     11  C   UNL     1       3.762   2.837  18.109  0.00  0.00    +0.000 C 
BRANCH  11  12
ATOM     12  C   UNL     1       2.655   3.279  17.157  0.00  0.00    +0.000 C 
BRANCH  12  13
ATOM     13  C   UNL     1       1.358   3.551  17.899  0.00  0.00    +0.000 C 
BRANCH  13  14
ATOM     14  C   UNL     1       1.352   2.806  19.231  0.00  0.00    +0.000 C 
BRANCH  14  15
ATOM     15  C   UNL     1       0.880   3.724  20.349  0.00  0.00    +0.000 C 
BRANCH  15  17
ATOM     16  C   UNL     1       2.672   2.415  21.508  0.00  0.00    +0.000 C 
ATOM     17  C   UNL     1       1.842   3.685  21.533  0.00  0.00    +0.000 C 
ENDBRANCH  15  17
ENDBRANCH  14  15
ENDBRANCH  13  14
ENDBRANCH  12  13
ENDBRANCH  11  12
ENDBRANCH  10  11
ENDBRANCH   1  10
TORSDOF 9
ENDMDL
MODEL 9
REMARK VINA RESULT:      -5.2      3.755      6.693
REMARK  Name = 
REMARK  10 active torsions:
REMARK  status: ('A' for Active; 'I' for Inactive)
REMARK    1  A    between atoms: C_1  and  C_2
REMARK    2  A    between atoms: C_2  and  C_3
REMARK    3  A    between atoms: C_3  and  C_4
REMARK    4  A    between atoms: C_4  and  C_5
REMARK    5  A    between atoms: C_5  and  C_6
REMARK    6  A    between atoms: C_6  and  C_7
REMARK    7  A    between atoms: C_7  and  C_8
REMARK    8  A    between atoms: C_8  and  C_9
REMARK    9  A    between atoms: C_9  and  C_10
REMARK   10  A    between atoms: C_13  and  O_14
REMARK                            x       y       z     vdW  Elec       q    Type
REMARK                         _______ _______ _______ _____ _____    ______ ____
ROOT
ATOM      1  C   UNL     1       4.394   5.379  17.046  0.00  0.00    +0.000 C 
ENDROOT
BRANCH   1   2
ATOM      2  C   UNL     1       3.308   4.860  17.941  0.00  0.00    +0.000 A 
ATOM      3  C   UNL     1       3.210   5.314  19.265  0.00  0.00    +0.000 A 
ATOM      4  C   UNL     1       2.220   4.814  20.108  0.00  0.00    +0.000 A 
ATOM      5  C   UNL     1       1.337   3.858  19.625  0.00  0.00    +0.000 A 
ATOM      6  C   UNL     1       1.422   3.396  18.314  0.00  0.00    +0.000 A 
ATOM      7  C   UNL     1       2.409   3.896  17.472  0.00  0.00    +0.000 A 
BRANCH   5   8
ATOM      8  O   UNL     1       0.357   3.334  20.416  0.00  0.00    +0.000 OA
ATOM      9  H   UNL     1      -0.172   4.067  20.767  0.00  0.00    +0.000 HD
ENDBRANCH   5   8
ENDBRANCH   1   2
BRANCH   1  10
ATOM     10  C   UNL     1       5.012   4.252  16.216  0.00  0.00    +0.000 C 
BRANCH  10  11
ATOM     11  C   UNL     1       5.277   4.683  14.775  0.00  0.00    +0.000 C 
BRANCH  11  12
ATOM     12  C   UNL     1       6.445   3.916  14.161  0.00  0.00    +0.000 C 
BRANCH  12  13
ATOM     13  C   UNL     1       6.466   4.051  12.649  0.00  0.00    +0.000 C 
BRANCH  13  14
ATOM     14  C   UNL     1       6.534   2.670  12.002  0.00  0.00    +0.000 C 
BRANCH  14  15
ATOM     15  C   UNL     1       5.196   2.315  11.369  0.00  0.00    +0.000 C 
BRANCH  15  17
ATOM     16  C   UNL     1       3.224   3.425  10.299  0.00  0.00    +0.000 C 
ATOM     17  C   UNL     1       4.229   3.493  11.435  0.00  0.00    +0.000 C 
ENDBRANCH  15  17
ENDBRANCH  14  15
ENDBRANCH  13  14
ENDBRANCH  12  13
ENDBRANCH  11  12
ENDBRANCH  10  11
ENDBRANCH   1  10
TORSDOF 9
ENDMDL
