MODEL 1
REMARK VINA RESULT:      -6.3      0.000      0.000
REMARK  Name = 
REMARK  9 active torsions:
REMARK  status: ('A' for Active; 'I' for Inactive)
REMARK    1  A    between atoms: C_1  and  O_2
REMARK    2  A    between atoms: O_2  and  C_3
REMARK    3  A    between atoms: C_3  and  C_5
REMARK    4  A    between atoms: C_5  and  N_6
REMARK    5  A    between atoms: C_7  and  C_9
REMARK    6  A    between atoms: C_9  and  S_10
REMARK    7  A    between atoms: S_10  and  C_11
REMARK    8  A    between atoms: C_14  and  C_15
REMARK    9  A    between atoms: C_16  and  O_17
REMARK                            x       y       z     vdW  Elec       q    Type
REMARK                         _______ _______ _______ _____ _____    ______ ____
ROOT
ATOM      1  C   UNL     1       6.162   4.983  18.873  0.00  0.00    +0.000 C 
ENDROOT
BRANCH   1   3
ATOM      2  N   UNL     1       4.554   3.159  18.660  0.00  0.00    +0.000 N 
ATOM      3  C   UNL     1       4.784   4.412  19.183  0.00  0.00    +0.000 C 
ATOM      4  O   UNL     1       3.934   5.019  19.828  0.00  0.00    +0.000 OA
ATOM      5  H   UNL     1       5.353   2.598  18.371  0.00  0.00    +0.000 HD
BRANCH   2   6
ATOM      6  C   UNL     1       3.329   2.434  18.965  0.00  0.00    +0.000 C 
BRANCH   6   7
ATOM      7  C   UNL     1       2.146   2.835  18.087  0.00  0.00    +0.000 C 
ATOM      8  O   UNL     1       2.235   3.091  16.895  0.00  0.00    +0.000 OA
BRANCH   7  10
ATOM      9  C   UNL     1       1.175   2.838  20.224  0.00  0.00    +0.000 C 
ATOM     10  O   UNL     1       0.988   2.890  18.809  0.00  0.00    +0.000 OA
ENDBRANCH   7  10
ENDBRANCH   6   7
ENDBRANCH   2   6
ENDBRANCH   1   3
BRANCH   1  11
ATOM     11  S   UNL     1       6.074   6.370  17.703  0.00  0.00    +0.000 S 
BRANCH  11  12
ATOM     12  C   UNL     1       6.233   5.482  16.176  0.00  0.00    +0.000 A 
ATOM     13  N   UNL     1       5.285   4.567  15.883  0.00  0.00    +0.000 NA
ATOM     14  N   UNL     1       5.330   3.912  14.689  0.00  0.00    +0.000 NA
ATOM     15  C   UNL     1       6.323   4.201  13.828  0.00  0.00    +0.000 A 
ATOM     16  C   UNL     1       6.310   3.507  12.508  0.00  0.00    +0.000 C 
ATOM     17  C   UNL     1       7.280   5.128  14.198  0.00  0.00    +0.000 A 
ATOM     18  N   UNL     1       7.267   5.777  15.373  0.00  0.00    +0.000 NA
BRANCH  17  19
ATOM     19  O   UNL     1       8.314   5.510  13.394  0.00  0.00    +0.000 OA
ATOM     20  H   UNL     1       8.340   4.945  12.608  0.00  0.00    +0.000 HD
ENDBRANCH  17  19
ENDBRANCH  11  12
ENDBRANCH   1  11
TORSDOF 7
ENDMDL
MODEL 2
REMARK VINA RESULT:      -6.1      2.938      3.979
REMARK  Name = 
REMARK  9 active torsions:
REMARK  status: ('A' for Active; 'I' for Inactive)
REMARK    1  A    between atoms: C_1  and  O_2
REMARK    2  A    between atoms: O_2  and  C_3
REMARK    3  A    between atoms: C_3  and  C_5
REMARK    4  A    between atoms: C_5  and  N_6
REMARK    5  A    between atoms: C_7  and  C_9
REMARK    6  A    between atoms: C_9  and  S_10
REMARK    7  A    between atoms: S_10  and  C_11
REMARK    8  A    between atoms: C_14  and  C_15
REMARK    9  A    between atoms: C_16  and  O_17
REMARK                            x       y       z     vdW  Elec       q    Type
REMARK                         _______ _______ _______ _____ _____    ______ ____
ROOT
ATOM      1  C   UNL     1       4.006   4.221  16.530  0.00  0.00    +0.000 C 
ENDROOT
BRANCH   1   3
ATOM      2  N   UNL     1       2.218   4.305  18.189  0.00  0.00    +0.000 N 
ATOM      3  C   UNL     1       3.453   3.781  17.879  0.00  0.00    +0.000 C 
ATOM      4  O   UNL     1       4.059   3.037  18.644  0.00  0.00    +0.000 OA
ATOM      5  H   UNL     1       1.650   4.690  17.436  0.00  0.00    +0.000 HD
BRANCH   2   6
ATOM      6  C   UNL     1       1.508   3.890  19.391  0.00  0.00    +0.000 C 
BRANCH   6   7
ATOM      7  C   UNL     1       1.806   4.761  20.609  0.00  0.00    +0.000 C 
ATOM      8  O   UNL     1       1.755   5.982  20.606  0.00  0.00    +0.000 OA
BRANCH   7  10
ATOM      9  C   UNL     1       1.924   2.601  21.521  0.00  0.00    +0.000 C 
ATOM     10  O   UNL     1       2.155   4.000  21.688  0.00  0.00    +0.000 OA
ENDBRANCH   7  10
ENDBRANCH   6   7
ENDBRANCH   2   6
ENDBRANCH   1   3
BRANCH   1  11
ATOM     11  S   UNL     1       5.692   3.602  16.254  0.00  0.00    +0.000 S 
BRANCH  11  12
ATOM     12  C   UNL     1       6.617   4.912  17.010  0.00  0.00    +0.000 A 
ATOM     13  N   UNL     1       6.877   6.006  16.264  0.00  0.00    +0.000 NA
ATOM     14  N   UNL     1       7.525   7.065  16.827  0.00  0.00    +0.000 NA
ATOM     15  C   UNL     1       7.886   6.991  18.121  0.00  0.00    +0.000 A 
ATOM     16  C   UNL     1       8.541   8.189  18.720  0.00  0.00    +0.000 C 
ATOM     17  C   UNL     1       7.616   5.831  18.824  0.00  0.00    +0.000 A 
ATOM     18  N   UNL     1       6.993   4.769  18.290  0.00  0.00    +0.000 NA
BRANCH  17  19
ATOM     19  O   UNL     1       7.919   5.660  20.144  0.00  0.00    +0.000 OA
ATOM     20  H   UNL     1       8.610   4.986  20.234  0.00  0.00    +0.000 HD
ENDBRANCH  17  19
ENDBRANCH  11  12
ENDBRANCH   1  11
TORSDOF 7
ENDMDL
MODEL 3
REMARK VINA RESULT:      -6.1      2.161      6.485
REMARK  Name = 
REMARK  9 active torsions:
REMARK  status: ('A' for Active; 'I' for Inactive)
REMARK    1  A    between atoms: C_1  and  O_2
REMARK    2  A    between atoms: O_2  and  C_3
REMARK    3  A    between atoms: C_3  and  C_5
REMARK    4  A    between atoms: C_5  and  N_6
REMARK    5  A    between atoms: C_7  and  C_9
REMARK    6  A    between atoms: C_9  and  S_10
REMARK    7  A    between atoms: S_10  and  C_11
REMARK    8  A    between atoms: C_14  and  C_15
REMARK    9  A    between atoms: C_16  and  O_17
REMARK                            x       y       z     vdW  Elec       q    Type
REMARK                         _______ _______ _______ _____ _____    ______ ____
ROOT
ATOM      1  C   UNL     1       5.657   5.354  16.032  0.00  0.00    +0.000 C 
ENDROOT
BRANCH   1   3
ATOM      2  N   UNL     1       5.777   3.997  14.007  0.00  0.00    +0.000 N 
ATOM      3  C   UNL     1       6.438   4.906  14.803  0.00  0.00    +0.000 C 
ATOM      4  O   UNL     1       7.571   5.300  14.545  0.00  0.00    +0.000 OA
ATOM      5  H   UNL     1       4.768   3.904  14.108  0.00  0.00    +0.000 HD
BRANCH   2   6
ATOM      6  C   UNL     1       6.343   3.561  12.738  0.00  0.00    +0.000 C 
BRANCH   6   7
ATOM      7  C   UNL     1       5.324   2.914  11.803  0.00  0.00    +0.000 C 
ATOM      8  O   UNL     1       4.278   3.445  11.459  0.00  0.00    +0.000 OA
BRANCH   7  10
ATOM      9  C   UNL     1       7.095   1.579  11.032  0.00  0.00    +0.000 C 
ATOM     10  O   UNL     1       5.724   1.665  11.422  0.00  0.00    +0.000 OA
ENDBRANCH   7  10
ENDBRANCH   6   7
ENDBRANCH   2   6
ENDBRANCH   1   3
BRANCH   1  11
ATOM     11  S   UNL     1       6.292   4.589  17.553  0.00  0.00    +0.000 S 
BRANCH  11  12
ATOM     12  C   UNL     1       4.758   4.175  18.341  0.00  0.00    +0.000 A 
ATOM     13  N   UNL     1       4.274   5.037  19.260  0.00  0.00    +0.000 NA
ATOM     14  N   UNL     1       3.064   4.793  19.838  0.00  0.00    +0.000 NA
ATOM     15  C   UNL     1       2.380   3.694  19.471  0.00  0.00    +0.000 A 
ATOM     16  C   UNL     1       1.035   3.487  20.082  0.00  0.00    +0.000 C 
ATOM     17  C   UNL     1       2.943   2.835  18.545  0.00  0.00    +0.000 A 
ATOM     18  N   UNL     1       4.138   3.044  17.971  0.00  0.00    +0.000 NA
BRANCH  17  19
ATOM     19  O   UNL     1       2.326   1.706  18.088  0.00  0.00    +0.000 OA
ATOM     20  H   UNL     1       2.801   0.924  18.407  0.00  0.00    +0.000 HD
ENDBRANCH  17  19
ENDBRANCH  11  12
ENDBRANCH   1  11
TORSDOF 7
ENDMDL
MODEL 4
REMARK VINA RESULT:      -6.1      2.942      3.903
REMARK  Name = 
REMARK  9 active torsions:
REMARK  status: ('A' for Active; 'I' for Inactive)
REMARK    1  A    between atoms: C_1  and  O_2
REMARK    2  A    between atoms: O_2  and  C_3
REMARK    3  A    between atoms: C_3  and  C_5
REMARK    4  A    between atoms: C_5  and  N_6
REMARK    5  A    between atoms: C_7  and  C_9
REMARK    6  A    between atoms: C_9  and  S_10
REMARK    7  A    between atoms: S_10  and  C_11
REMARK    8  A    between atoms: C_14  and  C_15
REMARK    9  A    between atoms: C_16  and  O_17
REMARK                            x       y       z     vdW  Elec       q    Type
REMARK                         _______ _______ _______ _____ _____    ______ ____
ROOT
ATOM      1  C   UNL     1       3.409   3.857  16.817  0.00  0.00    +0.000 C 
ENDROOT
BRANCH   1   3
ATOM      2  N   UNL     1       2.313   2.700  18.664  0.00  0.00    +0.000 N 
ATOM      3  C   UNL     1       2.146   3.585  17.624  0.00  0.00    +0.000 C 
ATOM      4  O   UNL     1       1.059   4.093  17.364  0.00  0.00    +0.000 OA
ATOM      5  H   UNL     1       3.256   2.515  19.000  0.00  0.00    +0.000 HD
BRANCH   2   6
ATOM      6  C   UNL     1       1.228   2.425  19.597  0.00  0.00    +0.000 C 
BRANCH   6   7
ATOM      7  C   UNL     1       1.300   3.251  20.879  0.00  0.00    +0.000 C 
ATOM      8  O   UNL     1       1.713   2.821  21.947  0.00  0.00    +0.000 OA
BRANCH   7  10
ATOM      9  C   UNL     1       1.829   5.532  20.720  0.00  0.00    +0.000 C 
ATOM     10  O   UNL     1       0.827   4.516  20.681  0.00  0.00    +0.000 OA
ENDBRANCH   7  10
ENDBRANCH   6   7
ENDBRANCH   2   6
ENDBRANCH   1   3
BRANCH   1  11
ATOM     11  S   UNL     1       4.891   3.200  17.638  0.00  0.00    +0.000 S 
BRANCH  11  12
ATOM     12  C   UNL     1       5.896   4.660  17.654  0.00  0.00    +0.000 A 
ATOM     13  N   UNL     1       5.660   5.593  16.707  0.00  0.00    +0.000 NA
ATOM     14  N   UNL     1       6.361   6.761  16.725  0.00  0.00    +0.000 NA
ATOM     15  C   UNL     1       7.273   6.955  17.695  0.00  0.00    +0.000 A 
ATOM     16  C   UNL     1       7.981   8.267  17.718  0.00  0.00    +0.000 C 
ATOM     17  C   UNL     1       7.489   5.950  18.619  0.00  0.00    +0.000 A 
ATOM     18  N   UNL     1       6.823   4.785  18.616  0.00  0.00    +0.000 NA
BRANCH  17  19
ATOM     19  O   UNL     1       8.373   6.052  19.655  0.00  0.00    +0.000 OA
ATOM     20  H   UNL     1       8.011   6.641  20.333  0.00  0.00    +0.000 HD
ENDBRANCH  17  19
ENDBRANCH  11  12
ENDBRANCH   1  11
TORSDOF 7
ENDMDL
MODEL 5
REMARK VINA RESULT:      -6.1      1.280      1.352
REMARK  Name = 
REMARK  9 active torsions:
REMARK  status: ('A' for Active; 'I' for Inactive)
REMARK    1  A    between atoms: C_1  and  O_2
REMARK    2  A    between atoms: O_2  and  C_3
REMARK    3  A    between atoms: C_3  and  C_5
REMARK    4  A    between atoms: C_5  and  N_6
REMARK    5  A    between atoms: C_7  and  C_9
REMARK    6  A    between atoms: C_9  and  S_10
REMARK    7  A    between atoms: S_10  and  C_11
REMARK    8  A    between atoms: C_14  and  C_15
REMARK    9  A    between atoms: C_16  and  O_17
REMARK                            x       y       z     vdW  Elec       q    Type
REMARK                         _______ _______ _______ _____ _____    ______ ____
ROOT
ATOM      1  C   UNL     1       4.968   6.319  17.817  0.00  0.00    +0.000 C 
ENDROOT
BRANCH   1   3
ATOM      2  N   UNL     1       2.870   5.686  18.890  0.00  0.00    +0.000 N 
ATOM      3  C   UNL     1       4.219   5.423  18.794  0.00  0.00    +0.000 C 
ATOM      4  O   UNL     1       4.764   4.549  19.461  0.00  0.00    +0.000 OA
ATOM      5  H   UNL     1       2.424   6.221  18.147  0.00  0.00    +0.000 HD
BRANCH   2   6
ATOM      6  C   UNL     1       1.998   4.842  19.695  0.00  0.00    +0.000 C 
BRANCH   6   7
ATOM      7  C   UNL     1       1.434   3.644  18.934  0.00  0.00    +0.000 C 
ATOM      8  O   UNL     1       1.167   3.655  17.741  0.00  0.00    +0.000 OA
BRANCH   7  10
ATOM      9  C   UNL     1       1.334   2.884  21.153  0.00  0.00    +0.000 C 
ATOM     10  O   UNL     1       1.249   2.574  19.762  0.00  0.00    +0.000 OA
ENDBRANCH   7  10
ENDBRANCH   6   7
ENDBRANCH   2   6
ENDBRANCH   1   3
BRANCH   1  11
ATOM     11  S   UNL     1       6.718   5.848  17.672  0.00  0.00    +0.000 S 
BRANCH  11  12
ATOM     12  C   UNL     1       6.695   5.110  16.060  0.00  0.00    +0.000 A 
ATOM     13  N   UNL     1       5.859   4.070  15.860  0.00  0.00    +0.000 NA
ATOM     14  N   UNL     1       5.758   3.518  14.618  0.00  0.00    +0.000 NA
ATOM     15  C   UNL     1       6.498   4.032  13.618  0.00  0.00    +0.000 A 
ATOM     16  C   UNL     1       6.321   3.440  12.261  0.00  0.00    +0.000 C 
ATOM     17  C   UNL     1       7.357   5.080  13.893  0.00  0.00    +0.000 A 
ATOM     18  N   UNL     1       7.486   5.632  15.109  0.00  0.00    +0.000 NA
BRANCH  17  19
ATOM     19  O   UNL     1       8.134   5.688  12.950  0.00  0.00    +0.000 OA
ATOM     20  H   UNL     1       8.807   5.068  12.635  0.00  0.00    +0.000 HD
ENDBRANCH  17  19
ENDBRANCH  11  12
ENDBRANCH   1  11
TORSDOF 7
ENDMDL
MODEL 6
REMARK VINA RESULT:      -6.0      1.806      6.164
REMARK  Name = 
REMARK  9 active torsions:
REMARK  status: ('A' for Active; 'I' for Inactive)
REMARK    1  A    between atoms: C_1  and  O_2
REMARK    2  A    between atoms: O_2  and  C_3
REMARK    3  A    between atoms: C_3  and  C_5
REMARK    4  A    between atoms: C_5  and  N_6
REMARK    5  A    between atoms: C_7  and  C_9
REMARK    6  A    between atoms: C_9  and  S_10
REMARK    7  A    between atoms: S_10  and  C_11
REMARK    8  A    between atoms: C_14  and  C_15
REMARK    9  A    between atoms: C_16  and  O_17
REMARK                            x       y       z     vdW  Elec       q    Type
REMARK                         _______ _______ _______ _____ _____    ______ ____
ROOT
ATOM      1  C   UNL     1       7.575   4.823  17.790  0.00  0.00    +0.000 C 
ENDROOT
BRANCH   1   3
ATOM      2  N   UNL     1       7.183   4.577  15.394  0.00  0.00    +0.000 N 
ATOM      3  C   UNL     1       7.143   5.440  16.466  0.00  0.00    +0.000 C 
ATOM      4  O   UNL     1       6.804   6.614  16.350  0.00  0.00    +0.000 OA
ATOM      5  H   UNL     1       7.211   3.575  15.576  0.00  0.00    +0.000 HD
BRANCH   2   6
ATOM      6  C   UNL     1       6.692   4.985  14.085  0.00  0.00    +0.000 C 
BRANCH   6   7
ATOM      7  C   UNL     1       7.796   5.155  13.043  0.00  0.00    +0.000 C 
ATOM      8  O   UNL     1       8.834   5.769  13.241  0.00  0.00    +0.000 OA
BRANCH   7  10
ATOM      9  C   UNL     1       6.707   3.349  12.012  0.00  0.00    +0.000 C 
ATOM     10  O   UNL     1       7.461   4.552  11.864  0.00  0.00    +0.000 OA
ENDBRANCH   7  10
ENDBRANCH   6   7
ENDBRANCH   2   6
ENDBRANCH   1   3
BRANCH   1  11
ATOM     11  S   UNL     1       6.654   5.517  19.194  0.00  0.00    +0.000 S 
BRANCH  11  12
ATOM     12  C   UNL     1       5.119   4.651  19.001  0.00  0.00    +0.000 A 
ATOM     13  N   UNL     1       4.001   5.388  18.832  0.00  0.00    +0.000 NA
ATOM     14  N   UNL     1       2.811   4.763  18.611  0.00  0.00    +0.000 NA
ATOM     15  C   UNL     1       2.784   3.418  18.562  0.00  0.00    +0.000 A 
ATOM     16  C   UNL     1       1.475   2.769  18.261  0.00  0.00    +0.000 C 
ATOM     17  C   UNL     1       3.958   2.719  18.770  0.00  0.00    +0.000 A 
ATOM     18  N   UNL     1       5.140   3.309  19.005  0.00  0.00    +0.000 NA
BRANCH  17  19
ATOM     19  O   UNL     1       4.046   1.357  18.720  0.00  0.00    +0.000 OA
ATOM     20  H   UNL     1       4.681   1.098  18.036  0.00  0.00    +0.000 HD
ENDBRANCH  17  19
ENDBRANCH  11  12
ENDBRANCH   1  11
TORSDOF 7
ENDMDL
MODEL 7
REMARK VINA RESULT:      -5.9      2.869      3.937
REMARK  Name = 
REMARK  9 active torsions:
REMARK  status: ('A' for Active; 'I' for Inactive)
REMARK    1  A    between atoms: C_1  and  O_2
REMARK    2  A    between atoms: O_2  and  C_3
REMARK    3  A    between atoms: C_3  and  C_5
REMARK    4  A    between atoms: C_5  and  N_6
REMARK    5  A    between atoms: C_7  and  C_9
REMARK    6  A    between atoms: C_9  and  S_10
REMARK    7  A    between atoms: S_10  and  C_11
REMARK    8  A    between atoms: C_14  and  C_15
REMARK    9  A    between atoms: C_16  and  O_17
REMARK                            x       y       z     vdW  Elec       q    Type
REMARK                         _______ _______ _______ _____ _____    ______ ____
ROOT
ATOM      1  C   UNL     1       3.614   4.621  16.857  0.00  0.00    +0.000 C 
ENDROOT
BRANCH   1   3
ATOM      2  N   UNL     1       3.225   2.706  18.319  0.00  0.00    +0.000 N 
ATOM      3  C   UNL     1       2.941   4.035  18.092  0.00  0.00    +0.000 C 
ATOM      4  O   UNL     1       2.191   4.678  18.820  0.00  0.00    +0.000 OA
ATOM      5  H   UNL     1       4.036   2.296  17.861  0.00  0.00    +0.000 HD
BRANCH   2   6
ATOM      6  C   UNL     1       2.750   2.034  19.521  0.00  0.00    +0.000 C 
BRANCH   6   7
ATOM      7  C   UNL     1       3.683   2.192  20.719  0.00  0.00    +0.000 C 
ATOM      8  O   UNL     1       4.894   2.029  20.669  0.00  0.00    +0.000 OA
BRANCH   7  10
ATOM      9  C   UNL     1       1.595   2.747  21.637  0.00  0.00    +0.000 C 
ATOM     10  O   UNL     1       2.988   2.516  21.849  0.00  0.00    +0.000 OA
ENDBRANCH   7  10
ENDBRANCH   6   7
ENDBRANCH   2   6
ENDBRANCH   1   3
BRANCH   1  11
ATOM     11  S   UNL     1       5.221   3.840  16.526  0.00  0.00    +0.000 S 
BRANCH  11  12
ATOM     12  C   UNL     1       6.298   5.077  17.199  0.00  0.00    +0.000 A 
ATOM     13  N   UNL     1       6.529   6.179  16.455  0.00  0.00    +0.000 NA
ATOM     14  N   UNL     1       7.294   7.185  16.963  0.00  0.00    +0.000 NA
ATOM     15  C   UNL     1       7.798   7.053  18.204  0.00  0.00    +0.000 A 
ATOM     16  C   UNL     1       8.583   8.197  18.750  0.00  0.00    +0.000 C 
ATOM     17  C   UNL     1       7.549   5.887  18.905  0.00  0.00    +0.000 A 
ATOM     18  N   UNL     1       6.811   4.876  18.423  0.00  0.00    +0.000 NA
BRANCH  17  19
ATOM     19  O   UNL     1       7.993   5.660  20.176  0.00  0.00    +0.000 OA
ATOM     20  H   UNL     1       7.245   5.426  20.745  0.00  0.00    +0.000 HD
ENDBRANCH  17  19
ENDBRANCH  11  12
ENDBRANCH   1  11
TORSDOF 7
ENDMDL
MODEL 8
REMARK VINA RESULT:      -5.9      2.193      6.607
REMARK  Name = 
REMARK  9 active torsions:
REMARK  status: ('A' for Active; 'I' for Inactive)
REMARK    1  A    between atoms: C_1  and  O_2
REMARK    2  A    between atoms: O_2  and  C_3
REMARK    3  A    between atoms: C_3  and  C_5
REMARK    4  A    between atoms: C_5  and  N_6
REMARK    5  A    between atoms: C_7  and  C_9
REMARK    6  A    between atoms: C_9  and  S_10
REMARK    7  A    between atoms: S_10  and  C_11
REMARK    8  A    between atoms: C_14  and  C_15
REMARK    9  A    between atoms: C_16  and  O_17
REMARK                            x       y       z     vdW  Elec       q    Type
REMARK                         _______ _______ _______ _____ _____    ______ ____
ROOT
ATOM      1  C   UNL     1       5.557   5.231  16.211  0.00  0.00    +0.000 C 
ENDROOT
BRANCH   1   3
ATOM      2  N   UNL     1       5.763   3.967  14.134  0.00  0.00    +0.000 N 
ATOM      3  C   UNL     1       6.358   4.895  14.960  0.00  0.00    +0.000 C 
ATOM      4  O   UNL     1       7.453   5.388  14.708  0.00  0.00    +0.000 OA
ATOM      5  H   UNL     1       4.766   3.790  14.240  0.00  0.00    +0.000 HD
BRANCH   2   6
ATOM      6  C   UNL     1       6.349   3.626  12.845  0.00  0.00    +0.000 C 
BRANCH   6   7
ATOM      7  C   UNL     1       5.364   2.969  11.881  0.00  0.00    +0.000 C 
ATOM      8  O   UNL     1       4.312   3.479  11.524  0.00  0.00    +0.000 OA
BRANCH   7  10
ATOM      9  C   UNL     1       7.161   1.707  11.048  0.00  0.00    +0.000 C 
ATOM     10  O   UNL     1       5.803   1.736  11.489  0.00  0.00    +0.000 OA
ENDBRANCH   7  10
ENDBRANCH   6   7
ENDBRANCH   2   6
ENDBRANCH   1   3
BRANCH   1  11
ATOM     11  S   UNL     1       6.418   4.712  17.726  0.00  0.00    +0.000 S 
BRANCH  11  12
ATOM     12  C   UNL     1       5.020   4.397  18.769  0.00  0.00    +0.000 A 
ATOM     13  N   UNL     1       4.859   3.141  19.238  0.00  0.00    +0.000 NA
ATOM     14  N   UNL     1       3.838   2.871  20.100  0.00  0.00    +0.000 NA
ATOM     15  C   UNL     1       3.015   3.871  20.464  0.00  0.00    +0.000 A 
ATOM     16  C   UNL     1       1.944   3.552  21.451  0.00  0.00    +0.000 C 
ATOM     17  C   UNL     1       3.215   5.130  19.926  0.00  0.00    +0.000 A 
ATOM     18  N   UNL     1       4.203   5.419  19.066  0.00  0.00    +0.000 NA
BRANCH  17  19
ATOM     19  O   UNL     1       2.453   6.217  20.245  0.00  0.00    +0.000 OA
ATOM     20  H   UNL     1       2.985   6.849  20.750  0.00  0.00    +0.000 HD
ENDBRANCH  17  19
ENDBRANCH  11  12
ENDBRANCH   1  11
TORSDOF 7
ENDMDL
MODEL 9
REMARK VINA RESULT:      -5.9      2.081      5.643
REMARK  Name = 
REMARK  9 active torsions:
REMARK  status: ('A' for Active; 'I' for Inactive)
REMARK    1  A    between atoms: C_1  and  O_2
REMARK    2  A    between atoms: O_2  and  C_3
REMARK    3  A    between atoms: C_3  and  C_5
REMARK    4  A    between atoms: C_5  and  N_6
REMARK    5  A    between atoms: C_7  and  C_9
REMARK    6  A    between atoms: C_9  and  S_10
REMARK    7  A    between atoms: S_10  and  C_11
REMARK    8  A    between atoms: C_14  and  C_15
REMARK    9  A    between atoms: C_16  and  O_17
REMARK                            x       y       z     vdW  Elec       q    Type
REMARK                         _______ _______ _______ _____ _____    ______ ____
ROOT
ATOM      1  C   UNL     1       7.318   6.372  17.751  0.00  0.00    +0.000 C 
ENDROOT
BRANCH   1   3
ATOM      2  N   UNL     1       7.059   5.773  15.399  0.00  0.00    +0.000 N 
ATOM      3  C   UNL     1       7.489   5.348  16.637  0.00  0.00    +0.000 C 
ATOM      4  O   UNL     1       7.952   4.225  16.819  0.00  0.00    +0.000 OA
ATOM      5  H   UNL     1       6.935   6.771  15.244  0.00  0.00    +0.000 HD
BRANCH   2   6
ATOM      6  C   UNL     1       7.260   4.952  14.213  0.00  0.00    +0.000 C 
BRANCH   6   7
ATOM      7  C   UNL     1       6.067   4.061  13.876  0.00  0.00    +0.000 C 
ATOM      8  O   UNL     1       5.056   3.985  14.559  0.00  0.00    +0.000 OA
BRANCH   7  10
ATOM      9  C   UNL     1       5.137   3.210  11.897  0.00  0.00    +0.000 C 
ATOM     10  O   UNL     1       6.286   3.350  12.731  0.00  0.00    +0.000 OA
ENDBRANCH   7  10
ENDBRANCH   6   7
ENDBRANCH   2   6
ENDBRANCH   1   3
BRANCH   1  11
ATOM     11  S   UNL     1       7.041   5.579  19.363  0.00  0.00    +0.000 S 
BRANCH  11  12
ATOM     12  C   UNL     1       5.413   4.929  19.099  0.00  0.00    +0.000 A 
ATOM     13  N   UNL     1       4.458   5.784  18.674  0.00  0.00    +0.000 NA
ATOM     14  N   UNL     1       3.211   5.313  18.392  0.00  0.00    +0.000 NA
ATOM     15  C   UNL     1       2.966   3.998  18.542  0.00  0.00    +0.000 A 
ATOM     16  C   UNL     1       1.607   3.508  18.170  0.00  0.00    +0.000 C 
ATOM     17  C   UNL     1       3.977   3.178  19.008  0.00  0.00    +0.000 A 
ATOM     18  N   UNL     1       5.209   3.619  19.306  0.00  0.00    +0.000 NA
BRANCH  17  19
ATOM     19  O   UNL     1       3.842   1.831  19.174  0.00  0.00    +0.000 OA
ATOM     20  H   UNL     1       4.530   1.370  18.671  0.00  0.00    +0.000 HD
ENDBRANCH  17  19
ENDBRANCH  11  12
ENDBRANCH   1  11
TORSDOF 7
ENDMDL
