MODEL 1
REMARK VINA RESULT:      -7.3      0.000      0.000
REMARK  Name = 
REMARK  7 active torsions:
REMARK  status: ('A' for Active; 'I' for Inactive)
REMARK    1  A    between atoms: C_1  and  C_2
REMARK    2  A    between atoms: C_5  and  C_6
REMARK    3  A    between atoms: C_10  and  C_11
REMARK    4  A    between atoms: C_11  and  O_13
REMARK    5  A    between atoms: C_14  and  C_15
REMARK    6  A    between atoms: C_15  and  O_17
REMARK    7  A    between atoms: N_20  and  O_21
REMARK                            x       y       z     vdW  Elec       q    Type
REMARK                         _______ _______ _______ _____ _____    ______ ____
ROOT
ATOM      1  C   UNL     1       1.863   8.413  18.872  0.00  0.00    +0.000 A 
ATOM      2  C   UNL     1       2.184   7.581  17.802  0.00  0.00    +0.000 A 
ATOM      3  C   UNL     1       2.307   6.271  18.309  0.00  0.00    +0.000 A 
ATOM      4  C   UNL     1       2.182   4.994  17.761  0.00  0.00    +0.000 A 
ATOM      5  C   UNL     1       2.427   3.887  18.586  0.00  0.00    +0.000 A 
ATOM      6  C   UNL     1       3.057   4.063  19.832  0.00  0.00    +0.000 A 
ATOM      7  C   UNL     1       3.054   5.328  20.438  0.00  0.00    +0.000 A 
ATOM      8  C   UNL     1       2.530   6.392  19.673  0.00  0.00    +0.000 A 
ATOM      9  N   UNL     1       1.984   7.614  19.989  0.00  0.00    +0.000 N 
ENDROOT
BRANCH   1  14
ATOM     10  C   UNL     1      -0.248  13.803  18.660  0.00  0.00    +0.000 C 
ATOM     11  C   UNL     1       0.284  12.403  18.697  0.00  0.00    +0.000 A 
ATOM     12  C   UNL     1       1.629  12.151  18.434  0.00  0.00    +0.000 A 
ATOM     13  C   UNL     1       2.119  10.847  18.494  0.00  0.00    +0.000 A 
ATOM     14  C   UNL     1       1.294   9.758  18.817  0.00  0.00    +0.000 A 
ATOM     15  C   UNL     1      -0.063  10.021  19.067  0.00  0.00    +0.000 A 
ATOM     16  C   UNL     1      -0.561  11.329  19.001  0.00  0.00    +0.000 A 
ENDBRANCH   1  14
BRANCH   5  17
ATOM     17  C   UNL     1       1.608   2.685  18.267  0.00  0.00    +0.000 C 
ATOM     18  O   UNL     1       0.515   2.541  18.797  0.00  0.00    +0.000 OA
BRANCH  17  19
ATOM     19  O   UNL     1       2.122   1.767  17.436  0.00  0.00    +0.000 OA
ATOM     20  H   UNL     1       1.708   0.872  17.475  0.00  0.00    +0.000 HD
ENDBRANCH  17  19
ENDBRANCH   5  17
BRANCH   6  21
ATOM     21  C   UNL     1       3.856   2.927  20.353  0.00  0.00    +0.000 C 
ATOM     22  O   UNL     1       3.551   2.367  21.394  0.00  0.00    +0.000 OA
BRANCH  21  23
ATOM     23  O   UNL     1       4.903   2.523  19.610  0.00  0.00    +0.000 OA
ATOM     24  H   UNL     1       5.757   2.432  20.062  0.00  0.00    +0.000 HD
ENDBRANCH  21  23
ENDBRANCH   6  21
BRANCH   9  25
ATOM     25  O   UNL     1       1.188   7.774  21.123  0.00  0.00    +0.000 OA
ATOM     26  H   UNL     1       0.396   8.143  20.681  0.00  0.00    +0.000 HD
ENDBRANCH   9  25
TORSDOF 6
ENDMDL
MODEL 2
REMARK VINA RESULT:      -7.2      3.214      4.375
REMARK  Name = 
REMARK  7 active torsions:
REMARK  status: ('A' for Active; 'I' for Inactive)
REMARK    1  A    between atoms: C_1  and  C_2
REMARK    2  A    between atoms: C_5  and  C_6
REMARK    3  A    between atoms: C_10  and  C_11
REMARK    4  A    between atoms: C_11  and  O_13
REMARK    5  A    between atoms: C_14  and  C_15
REMARK    6  A    between atoms: C_15  and  O_17
REMARK    7  A    between atoms: N_20  and  O_21
REMARK                            x       y       z     vdW  Elec       q    Type
REMARK                         _______ _______ _______ _____ _____    ______ ____
ROOT
ATOM      1  C   UNL     1       2.397   7.425  19.244  0.00  0.00    +0.000 A 
ATOM      2  C   UNL     1       2.917   6.222  19.717  0.00  0.00    +0.000 A 
ATOM      3  C   UNL     1       4.009   5.883  18.892  0.00  0.00    +0.000 A 
ATOM      4  C   UNL     1       5.157   5.107  19.057  0.00  0.00    +0.000 A 
ATOM      5  C   UNL     1       6.023   4.957  17.965  0.00  0.00    +0.000 A 
ATOM      6  C   UNL     1       5.603   5.331  16.675  0.00  0.00    +0.000 A 
ATOM      7  C   UNL     1       4.531   6.223  16.527  0.00  0.00    +0.000 A 
ATOM      8  C   UNL     1       3.844   6.584  17.705  0.00  0.00    +0.000 A 
ATOM      9  N   UNL     1       3.069   7.662  18.065  0.00  0.00    +0.000 N 
ENDROOT
BRANCH   1  14
ATOM     10  C   UNL     1      -1.100  11.008  22.157  0.00  0.00    +0.000 C 
ATOM     11  C   UNL     1      -0.182  10.100  21.398  0.00  0.00    +0.000 A 
ATOM     12  C   UNL     1       0.524   9.096  22.058  0.00  0.00    +0.000 A 
ATOM     13  C   UNL     1       1.358   8.241  21.339  0.00  0.00    +0.000 A 
ATOM     14  C   UNL     1       1.514   8.353  19.948  0.00  0.00    +0.000 A 
ATOM     15  C   UNL     1       0.808   9.376  19.294  0.00  0.00    +0.000 A 
ATOM     16  C   UNL     1      -0.026  10.242  20.015  0.00  0.00    +0.000 A 
ENDBRANCH   1  14
BRANCH   5  17
ATOM     17  C   UNL     1       7.461   4.826  18.331  0.00  0.00    +0.000 C 
ATOM     18  O   UNL     1       7.912   5.487  19.256  0.00  0.00    +0.000 OA
BRANCH  17  19
ATOM     19  O   UNL     1       8.233   4.014  17.596  0.00  0.00    +0.000 OA
ATOM     20  H   UNL     1       7.936   3.074  17.538  0.00  0.00    +0.000 HD
ENDBRANCH  17  19
ENDBRANCH   5  17
BRANCH   6  21
ATOM     21  C   UNL     1       6.207   4.607  15.530  0.00  0.00    +0.000 C 
ATOM     22  O   UNL     1       6.779   5.209  14.634  0.00  0.00    +0.000 OA
BRANCH  21  23
ATOM     23  O   UNL     1       6.129   3.263  15.545  0.00  0.00    +0.000 OA
ATOM     24  H   UNL     1       5.618   2.859  16.264  0.00  0.00    +0.000 HD
ENDBRANCH  21  23
ENDBRANCH   6  21
BRANCH   9  25
ATOM     25  O   UNL     1       3.369   8.946  17.609  0.00  0.00    +0.000 OA
ATOM     26  H   UNL     1       4.325   8.944  17.824  0.00  0.00    +0.000 HD
ENDBRANCH   9  25
TORSDOF 6
ENDMDL
MODEL 3
REMARK VINA RESULT:      -7.2      3.249      4.383
REMARK  Name = 
REMARK  7 active torsions:
REMARK  status: ('A' for Active; 'I' for Inactive)
REMARK    1  A    between atoms: C_1  and  C_2
REMARK    2  A    between atoms: C_5  and  C_6
REMARK    3  A    between atoms: C_10  and  C_11
REMARK    4  A    between atoms: C_11  and  O_13
REMARK    5  A    between atoms: C_14  and  C_15
REMARK    6  A    between atoms: C_15  and  O_17
REMARK    7  A    between atoms: N_20  and  O_21
REMARK                            x       y       z     vdW  Elec       q    Type
REMARK                         _______ _______ _______ _____ _____    ______ ____
ROOT
ATOM      1  C   UNL     1       2.412   7.405  19.266  0.00  0.00    +0.000 A 
ATOM      2  C   UNL     1       2.993   6.234  19.746  0.00  0.00    +0.000 A 
ATOM      3  C   UNL     1       4.072   5.919  18.895  0.00  0.00    +0.000 A 
ATOM      4  C   UNL     1       5.255   5.193  19.041  0.00  0.00    +0.000 A 
ATOM      5  C   UNL     1       6.093   5.052  17.927  0.00  0.00    +0.000 A 
ATOM      6  C   UNL     1       5.620   5.381  16.643  0.00  0.00    +0.000 A 
ATOM      7  C   UNL     1       4.510   6.228  16.509  0.00  0.00    +0.000 A 
ATOM      8  C   UNL     1       3.844   6.587  17.700  0.00  0.00    +0.000 A 
ATOM      9  N   UNL     1       3.039   7.642  18.061  0.00  0.00    +0.000 N 
ENDROOT
BRANCH   1  14
ATOM     10  C   UNL     1      -1.127  11.110  21.968  0.00  0.00    +0.000 C 
ATOM     11  C   UNL     1      -0.228  10.135  21.272  0.00  0.00    +0.000 A 
ATOM     12  C   UNL     1       0.096  10.306  19.928  0.00  0.00    +0.000 A 
ATOM     13  C   UNL     1       0.953   9.406  19.296  0.00  0.00    +0.000 A 
ATOM     14  C   UNL     1       1.515   8.314  19.977  0.00  0.00    +0.000 A 
ATOM     15  C   UNL     1       1.172   8.142  21.328  0.00  0.00    +0.000 A 
ATOM     16  C   UNL     1       0.305   9.041  21.964  0.00  0.00    +0.000 A 
ENDBRANCH   1  14
BRANCH   5  17
ATOM     17  C   UNL     1       7.545   4.985  18.251  0.00  0.00    +0.000 C 
ATOM     18  O   UNL     1       8.041   5.831  18.981  0.00  0.00    +0.000 OA
BRANCH  17  19
ATOM     19  O   UNL     1       8.278   4.015  17.687  0.00  0.00    +0.000 OA
ATOM     20  H   UNL     1       8.367   3.183  18.211  0.00  0.00    +0.000 HD
ENDBRANCH  17  19
ENDBRANCH   5  17
BRANCH   6  21
ATOM     21  C   UNL     1       6.218   4.656  15.495  0.00  0.00    +0.000 C 
ATOM     22  O   UNL     1       6.753   5.259  14.578  0.00  0.00    +0.000 OA
BRANCH  21  23
ATOM     23  O   UNL     1       6.176   3.311  15.531  0.00  0.00    +0.000 OA
ATOM     24  H   UNL     1       6.948   2.836  15.185  0.00  0.00    +0.000 HD
ENDBRANCH  21  23
ENDBRANCH   6  21
BRANCH   9  25
ATOM     25  O   UNL     1       3.275   8.926  17.570  0.00  0.00    +0.000 OA
ATOM     26  H   UNL     1       4.209   9.008  17.852  0.00  0.00    +0.000 HD
ENDBRANCH   9  25
TORSDOF 6
ENDMDL
MODEL 4
REMARK VINA RESULT:      -7.2      2.925      4.043
REMARK  Name = 
REMARK  7 active torsions:
REMARK  status: ('A' for Active; 'I' for Inactive)
REMARK    1  A    between atoms: C_1  and  C_2
REMARK    2  A    between atoms: C_5  and  C_6
REMARK    3  A    between atoms: C_10  and  C_11
REMARK    4  A    between atoms: C_11  and  O_13
REMARK    5  A    between atoms: C_14  and  C_15
REMARK    6  A    between atoms: C_15  and  O_17
REMARK    7  A    between atoms: N_20  and  O_21
REMARK                            x       y       z     vdW  Elec       q    Type
REMARK                         _______ _______ _______ _____ _____    ______ ____
ROOT
ATOM      1  C   UNL     1       1.589   8.013  19.871  0.00  0.00    +0.000 A 
ATOM      2  C   UNL     1       1.964   6.718  20.223  0.00  0.00    +0.000 A 
ATOM      3  C   UNL     1       3.044   6.353  19.393  0.00  0.00    +0.000 A 
ATOM      4  C   UNL     1       4.099   5.446  19.501  0.00  0.00    +0.000 A 
ATOM      5  C   UNL     1       4.984   5.319  18.421  0.00  0.00    +0.000 A 
ATOM      6  C   UNL     1       4.651   5.869  17.170  0.00  0.00    +0.000 A 
ATOM      7  C   UNL     1       3.683   6.882  17.092  0.00  0.00    +0.000 A 
ATOM      8  C   UNL     1       2.995   7.188  18.285  0.00  0.00    +0.000 A 
ATOM      9  N   UNL     1       2.325   8.299  18.741  0.00  0.00    +0.000 N 
ENDROOT
BRANCH   1  14
ATOM     10  C   UNL     1      -1.589  11.638  23.081  0.00  0.00    +0.000 C 
ATOM     11  C   UNL     1      -0.755  10.719  22.243  0.00  0.00    +0.000 A 
ATOM     12  C   UNL     1       0.038   9.742  22.841  0.00  0.00    +0.000 A 
ATOM     13  C   UNL     1       0.793   8.876  22.052  0.00  0.00    +0.000 A 
ATOM     14  C   UNL     1       0.782   8.951  20.649  0.00  0.00    +0.000 A 
ATOM     15  C   UNL     1      -0.009   9.948  20.057  0.00  0.00    +0.000 A 
ATOM     16  C   UNL     1      -0.764  10.825  20.848  0.00  0.00    +0.000 A 
ENDBRANCH   1  14
BRANCH   5  17
ATOM     17  C   UNL     1       6.386   4.998  18.806  0.00  0.00    +0.000 C 
ATOM     18  O   UNL     1       6.879   5.528  19.792  0.00  0.00    +0.000 OA
BRANCH  17  19
ATOM     19  O   UNL     1       7.085   4.165  18.023  0.00  0.00    +0.000 OA
ATOM     20  H   UNL     1       6.945   4.268  17.051  0.00  0.00    +0.000 HD
ENDBRANCH  17  19
ENDBRANCH   5  17
BRANCH   6  21
ATOM     21  C   UNL     1       5.217   5.210  15.967  0.00  0.00    +0.000 C 
ATOM     22  O   UNL     1       5.842   5.847  15.134  0.00  0.00    +0.000 OA
BRANCH  21  23
ATOM     23  O   UNL     1       5.044   3.880  15.860  0.00  0.00    +0.000 OA
ATOM     24  H   UNL     1       4.309   3.489  16.359  0.00  0.00    +0.000 HD
ENDBRANCH  21  23
ENDBRANCH   6  21
BRANCH   9  25
ATOM     25  O   UNL     1       2.772   9.584  18.435  0.00  0.00    +0.000 OA
ATOM     26  H   UNL     1       2.902   9.903  19.352  0.00  0.00    +0.000 HD
ENDBRANCH   9  25
TORSDOF 6
ENDMDL
MODEL 5
REMARK VINA RESULT:      -7.2      0.570      1.140
REMARK  Name = 
REMARK  7 active torsions:
REMARK  status: ('A' for Active; 'I' for Inactive)
REMARK    1  A    between atoms: C_1  and  C_2
REMARK    2  A    between atoms: C_5  and  C_6
REMARK    3  A    between atoms: C_10  and  C_11
REMARK    4  A    between atoms: C_11  and  O_13
REMARK    5  A    between atoms: C_14  and  C_15
REMARK    6  A    between atoms: C_15  and  O_17
REMARK    7  A    between atoms: N_20  and  O_21
REMARK                            x       y       z     vdW  Elec       q    Type
REMARK                         _______ _______ _______ _____ _____    ______ ____
ROOT
ATOM      1  C   UNL     1       1.795   8.477  18.884  0.00  0.00    +0.000 A 
ATOM      2  C   UNL     1       1.852   7.661  17.757  0.00  0.00    +0.000 A 
ATOM      3  C   UNL     1       2.171   6.359  18.194  0.00  0.00    +0.000 A 
ATOM      4  C   UNL     1       1.963   5.076  17.686  0.00  0.00    +0.000 A 
ATOM      5  C   UNL     1       2.476   3.984  18.398  0.00  0.00    +0.000 A 
ATOM      6  C   UNL     1       3.413   4.192  19.428  0.00  0.00    +0.000 A 
ATOM      7  C   UNL     1       3.515   5.456  20.028  0.00  0.00    +0.000 A 
ATOM      8  C   UNL     1       2.751   6.492  19.448  0.00  0.00    +0.000 A 
ATOM      9  N   UNL     1       2.254   7.686  19.916  0.00  0.00    +0.000 N 
ENDROOT
BRANCH   1  14
ATOM     10  C   UNL     1      -0.825  13.618  19.388  0.00  0.00    +0.000 C 
ATOM     11  C   UNL     1      -0.131  12.296  19.272  0.00  0.00    +0.000 A 
ATOM     12  C   UNL     1      -0.747  11.132  19.726  0.00  0.00    +0.000 A 
ATOM     13  C   UNL     1      -0.102   9.903  19.593  0.00  0.00    +0.000 A 
ATOM     14  C   UNL     1       1.168   9.792  19.004  0.00  0.00    +0.000 A 
ATOM     15  C   UNL     1       1.786  10.972  18.561  0.00  0.00    +0.000 A 
ATOM     16  C   UNL     1       1.144  12.210  18.700  0.00  0.00    +0.000 A 
ENDBRANCH   1  14
BRANCH   5  17
ATOM     17  C   UNL     1       1.660   2.743  18.299  0.00  0.00    +0.000 C 
ATOM     18  O   UNL     1       0.661   2.619  18.994  0.00  0.00    +0.000 OA
BRANCH  17  19
ATOM     19  O   UNL     1       2.078   1.771  17.476  0.00  0.00    +0.000 OA
ATOM     20  H   UNL     1       1.376   1.328  16.942  0.00  0.00    +0.000 HD
ENDBRANCH  17  19
ENDBRANCH   5  17
BRANCH   6  21
ATOM     21  C   UNL     1       4.378   3.098  19.697  0.00  0.00    +0.000 C 
ATOM     22  O   UNL     1       4.099   2.185  20.459  0.00  0.00    +0.000 OA
BRANCH  21  23
ATOM     23  O   UNL     1       5.550   3.140  19.038  0.00  0.00    +0.000 OA
ATOM     24  H   UNL     1       6.247   3.703  19.411  0.00  0.00    +0.000 HD
ENDBRANCH  21  23
ENDBRANCH   6  21
BRANCH   9  25
ATOM     25  O   UNL     1       1.791   7.807  21.226  0.00  0.00    +0.000 OA
ATOM     26  H   UNL     1       2.110   8.717  21.397  0.00  0.00    +0.000 HD
ENDBRANCH   9  25
TORSDOF 6
ENDMDL
MODEL 6
REMARK VINA RESULT:      -7.1      0.379      1.256
REMARK  Name = 
REMARK  7 active torsions:
REMARK  status: ('A' for Active; 'I' for Inactive)
REMARK    1  A    between atoms: C_1  and  C_2
REMARK    2  A    between atoms: C_5  and  C_6
REMARK    3  A    between atoms: C_10  and  C_11
REMARK    4  A    between atoms: C_11  and  O_13
REMARK    5  A    between atoms: C_14  and  C_15
REMARK    6  A    between atoms: C_15  and  O_17
REMARK    7  A    between atoms: N_20  and  O_21
REMARK                            x       y       z     vdW  Elec       q    Type
REMARK                         _______ _______ _______ _____ _____    ______ ____
ROOT
ATOM      1  C   UNL     1       1.822   8.429  19.011  0.00  0.00    +0.000 A 
ATOM      2  C   UNL     1       2.290   7.601  17.994  0.00  0.00    +0.000 A 
ATOM      3  C   UNL     1       2.270   6.279  18.485  0.00  0.00    +0.000 A 
ATOM      4  C   UNL     1       2.190   5.017  17.896  0.00  0.00    +0.000 A 
ATOM      5  C   UNL     1       2.244   3.888  18.725  0.00  0.00    +0.000 A 
ATOM      6  C   UNL     1       2.656   4.017  20.065  0.00  0.00    +0.000 A 
ATOM      7  C   UNL     1       2.600   5.272  20.689  0.00  0.00    +0.000 A 
ATOM      8  C   UNL     1       2.259   6.369  19.870  0.00  0.00    +0.000 A 
ATOM      9  N   UNL     1       1.716   7.609  20.114  0.00  0.00    +0.000 N 
ENDROOT
BRANCH   1  14
ATOM     10  C   UNL     1      -0.291  13.800  18.521  0.00  0.00    +0.000 C 
ATOM     11  C   UNL     1       0.268  12.418  18.666  0.00  0.00    +0.000 A 
ATOM     12  C   UNL     1      -0.567  11.346  18.971  0.00  0.00    +0.000 A 
ATOM     13  C   UNL     1      -0.040  10.060  19.081  0.00  0.00    +0.000 A 
ATOM     14  C   UNL     1       1.326   9.799  18.890  0.00  0.00    +0.000 A 
ATOM     15  C   UNL     1       2.162  10.888  18.595  0.00  0.00    +0.000 A 
ATOM     16  C   UNL     1       1.637  12.184  18.491  0.00  0.00    +0.000 A 
ENDBRANCH   1  14
BRANCH   5  17
ATOM     17  C   UNL     1       1.444   2.728  18.243  0.00  0.00    +0.000 C 
ATOM     18  O   UNL     1       0.257   2.654  18.527  0.00  0.00    +0.000 OA
BRANCH  17  19
ATOM     19  O   UNL     1       2.070   1.769  17.547  0.00  0.00    +0.000 OA
ATOM     20  H   UNL     1       1.624   0.889  17.530  0.00  0.00    +0.000 HD
ENDBRANCH  17  19
ENDBRANCH   5  17
BRANCH   6  21
ATOM     21  C   UNL     1       3.307   2.840  20.690  0.00  0.00    +0.000 C 
ATOM     22  O   UNL     1       4.197   2.233  20.116  0.00  0.00    +0.000 OA
BRANCH  21  23
ATOM     23  O   UNL     1       2.899   2.500  21.927  0.00  0.00    +0.000 OA
ATOM     24  H   UNL     1       2.189   3.034  22.320  0.00  0.00    +0.000 HD
ENDBRANCH  21  23
ENDBRANCH   6  21
BRANCH   9  25
ATOM     25  O   UNL     1       0.744   7.787  21.098  0.00  0.00    +0.000 OA
ATOM     26  H   UNL     1       0.033   8.137  20.523  0.00  0.00    +0.000 HD
ENDBRANCH   9  25
TORSDOF 6
ENDMDL
MODEL 7
REMARK VINA RESULT:      -7.0      2.964      7.830
REMARK  Name = 
REMARK  7 active torsions:
REMARK  status: ('A' for Active; 'I' for Inactive)
REMARK    1  A    between atoms: C_1  and  C_2
REMARK    2  A    between atoms: C_5  and  C_6
REMARK    3  A    between atoms: C_10  and  C_11
REMARK    4  A    between atoms: C_11  and  O_13
REMARK    5  A    between atoms: C_14  and  C_15
REMARK    6  A    between atoms: C_15  and  O_17
REMARK    7  A    between atoms: N_20  and  O_21
REMARK                            x       y       z     vdW  Elec       q    Type
REMARK                         _______ _______ _______ _____ _____    ______ ____
ROOT
ATOM      1  C   UNL     1       2.099   8.010  18.484  0.00  0.00    +0.000 A 
ATOM      2  C   UNL     1       1.809   9.235  17.886  0.00  0.00    +0.000 A 
ATOM      3  C   UNL     1       1.356  10.102  18.901  0.00  0.00    +0.000 A 
ATOM      4  C   UNL     1       1.325  11.488  19.064  0.00  0.00    +0.000 A 
ATOM      5  C   UNL     1       0.738  12.011  20.224  0.00  0.00    +0.000 A 
ATOM      6  C   UNL     1      -0.047  11.185  21.050  0.00  0.00    +0.000 A 
ATOM      7  C   UNL     1       0.094   9.792  20.973  0.00  0.00    +0.000 A 
ATOM      8  C   UNL     1       0.933   9.299  19.951  0.00  0.00    +0.000 A 
ATOM      9  N   UNL     1       1.642   8.133  19.779  0.00  0.00    +0.000 N 
ENDROOT
BRANCH   1  14
ATOM     10  C   UNL     1       5.417   3.813  16.267  0.00  0.00    +0.000 C 
ATOM     11  C   UNL     1       4.562   4.889  16.862  0.00  0.00    +0.000 A 
ATOM     12  C   UNL     1       4.958   6.223  16.796  0.00  0.00    +0.000 A 
ATOM     13  C   UNL     1       4.144   7.220  17.332  0.00  0.00    +0.000 A 
ATOM     14  C   UNL     1       2.915   6.925  17.945  0.00  0.00    +0.000 A 
ATOM     15  C   UNL     1       2.531   5.575  18.017  0.00  0.00    +0.000 A 
ATOM     16  C   UNL     1       3.351   4.570  17.486  0.00  0.00    +0.000 A 
ENDBRANCH   1  14
BRANCH   5  17
ATOM     17  C   UNL     1       1.354  13.275  20.712  0.00  0.00    +0.000 C 
ATOM     18  O   UNL     1       2.396  13.232  21.352  0.00  0.00    +0.000 OA
BRANCH  17  19
ATOM     19  O   UNL     1       0.715  14.428  20.473  0.00  0.00    +0.000 OA
ATOM     20  H   UNL     1       0.036  14.691  21.139  0.00  0.00    +0.000 HD
ENDBRANCH  17  19
ENDBRANCH   5  17
BRANCH   6  21
ATOM     21  C   UNL     1      -1.125  11.838  21.833  0.00  0.00    +0.000 C 
ATOM     22  O   UNL     1      -2.150  12.224  21.294  0.00  0.00    +0.000 OA
BRANCH  21  23
ATOM     23  O   UNL     1      -0.936  11.949  23.161  0.00  0.00    +0.000 OA
ATOM     24  H   UNL     1      -0.505  12.757  23.480  0.00  0.00    +0.000 HD
ENDBRANCH  21  23
ENDBRANCH   6  21
BRANCH   9  25
ATOM     25  O   UNL     1       2.250   7.495  20.859  0.00  0.00    +0.000 OA
ATOM     26  H   UNL     1       1.886   6.599  20.709  0.00  0.00    +0.000 HD
ENDBRANCH   9  25
TORSDOF 6
ENDMDL
MODEL 8
REMARK VINA RESULT:      -7.0      2.893      4.009
REMARK  Name = 
REMARK  7 active torsions:
REMARK  status: ('A' for Active; 'I' for Inactive)
REMARK    1  A    between atoms: C_1  and  C_2
REMARK    2  A    between atoms: C_5  and  C_6
REMARK    3  A    between atoms: C_10  and  C_11
REMARK    4  A    between atoms: C_11  and  O_13
REMARK    5  A    between atoms: C_14  and  C_15
REMARK    6  A    between atoms: C_15  and  O_17
REMARK    7  A    between atoms: N_20  and  O_21
REMARK                            x       y       z     vdW  Elec       q    Type
REMARK                         _______ _______ _______ _____ _____    ______ ____
ROOT
ATOM      1  C   UNL     1       1.473   8.068  20.013  0.00  0.00    +0.000 A 
ATOM      2  C   UNL     1       1.850   6.769  20.344  0.00  0.00    +0.000 A 
ATOM      3  C   UNL     1       2.920   6.413  19.497  0.00  0.00    +0.000 A 
ATOM      4  C   UNL     1       3.975   5.503  19.582  0.00  0.00    +0.000 A 
ATOM      5  C   UNL     1       4.847   5.388  18.491  0.00  0.00    +0.000 A 
ATOM      6  C   UNL     1       4.501   5.956  17.250  0.00  0.00    +0.000 A 
ATOM      7  C   UNL     1       3.534   6.971  17.197  0.00  0.00    +0.000 A 
ATOM      8  C   UNL     1       2.860   7.262  18.401  0.00  0.00    +0.000 A 
ATOM      9  N   UNL     1       2.197   8.368  18.879  0.00  0.00    +0.000 N 
ENDROOT
BRANCH   1  14
ATOM     10  C   UNL     1      -1.690  11.846  23.058  0.00  0.00    +0.000 C 
ATOM     11  C   UNL     1      -0.886  10.852  22.278  0.00  0.00    +0.000 A 
ATOM     12  C   UNL     1      -0.813  10.936  20.889  0.00  0.00    +0.000 A 
ATOM     13  C   UNL     1      -0.043  10.020  20.174  0.00  0.00    +0.000 A 
ATOM     14  C   UNL     1       0.677   8.997  20.813  0.00  0.00    +0.000 A 
ATOM     15  C   UNL     1       0.586   8.913  22.212  0.00  0.00    +0.000 A 
ATOM     16  C   UNL     1      -0.193   9.828  22.933  0.00  0.00    +0.000 A 
ENDBRANCH   1  14
BRANCH   5  17
ATOM     17  C   UNL     1       6.253   5.060  18.855  0.00  0.00    +0.000 C 
ATOM     18  O   UNL     1       6.836   5.741  19.687  0.00  0.00    +0.000 OA
BRANCH  17  19
ATOM     19  O   UNL     1       6.855   4.046  18.218  0.00  0.00    +0.000 OA
ATOM     20  H   UNL     1       6.736   3.153  18.621  0.00  0.00    +0.000 HD
ENDBRANCH  17  19
ENDBRANCH   5  17
BRANCH   6  21
ATOM     21  C   UNL     1       5.053   5.311  16.033  0.00  0.00    +0.000 C 
ATOM     22  O   UNL     1       5.638   5.964  15.183  0.00  0.00    +0.000 OA
BRANCH  21  23
ATOM     23  O   UNL     1       4.913   3.976  15.930  0.00  0.00    +0.000 OA
ATOM     24  H   UNL     1       5.670   3.431  16.197  0.00  0.00    +0.000 HD
ENDBRANCH  21  23
ENDBRANCH   6  21
BRANCH   9  25
ATOM     25  O   UNL     1       2.643   9.657  18.585  0.00  0.00    +0.000 OA
ATOM     26  H   UNL     1       1.767  10.081  18.479  0.00  0.00    +0.000 HD
ENDBRANCH   9  25
TORSDOF 6
ENDMDL
MODEL 9
REMARK VINA RESULT:      -6.9      2.939      7.852
REMARK  Name = 
REMARK  7 active torsions:
REMARK  status: ('A' for Active; 'I' for Inactive)
REMARK    1  A    between atoms: C_1  and  C_2
REMARK    2  A    between atoms: C_5  and  C_6
REMARK    3  A    between atoms: C_10  and  C_11
REMARK    4  A    between atoms: C_11  and  O_13
REMARK    5  A    between atoms: C_14  and  C_15
REMARK    6  A    between atoms: C_15  and  O_17
REMARK    7  A    between atoms: N_20  and  O_21
REMARK                            x       y       z     vdW  Elec       q    Type
REMARK                         _______ _______ _______ _____ _____    ______ ____
ROOT
ATOM      1  C   UNL     1       2.167   7.993  18.406  0.00  0.00    +0.000 A 
ATOM      2  C   UNL     1       1.850   9.225  17.837  0.00  0.00    +0.000 A 
ATOM      3  C   UNL     1       1.359  10.052  18.869  0.00  0.00    +0.000 A 
ATOM      4  C   UNL     1       1.287  11.431  19.068  0.00  0.00    +0.000 A 
ATOM      5  C   UNL     1       0.671  11.906  20.233  0.00  0.00    +0.000 A 
ATOM      6  C   UNL     1      -0.100  11.037  21.027  0.00  0.00    +0.000 A 
ATOM      7  C   UNL     1       0.082   9.650  20.915  0.00  0.00    +0.000 A 
ATOM      8  C   UNL     1       0.947   9.209  19.892  0.00  0.00    +0.000 A 
ATOM      9  N   UNL     1       1.690   8.068  19.698  0.00  0.00    +0.000 N 
ENDROOT
BRANCH   1  14
ATOM     10  C   UNL     1       5.466   3.735  16.280  0.00  0.00    +0.000 C 
ATOM     11  C   UNL     1       4.610   4.844  16.808  0.00  0.00    +0.000 A 
ATOM     12  C   UNL     1       3.394   4.565  17.427  0.00  0.00    +0.000 A 
ATOM     13  C   UNL     1       2.615   5.604  17.936  0.00  0.00    +0.000 A 
ATOM     14  C   UNL     1       3.020   6.946  17.849  0.00  0.00    +0.000 A 
ATOM     15  C   UNL     1       4.241   7.217  17.212  0.00  0.00    +0.000 A 
ATOM     16  C   UNL     1       5.023   6.177  16.692  0.00  0.00    +0.000 A 
ENDBRANCH   1  14
BRANCH   5  17
ATOM     17  C   UNL     1       1.246  13.173  20.763  0.00  0.00    +0.000 C 
ATOM     18  O   UNL     1       2.355  13.165  21.278  0.00  0.00    +0.000 OA
BRANCH  17  19
ATOM     19  O   UNL     1       0.500  14.285  20.701  0.00  0.00    +0.000 OA
ATOM     20  H   UNL     1       0.872  15.079  21.154  0.00  0.00    +0.000 HD
ENDBRANCH  17  19
ENDBRANCH   5  17
BRANCH   6  21
ATOM     21  C   UNL     1      -1.206  11.639  21.813  0.00  0.00    +0.000 C 
ATOM     22  O   UNL     1      -2.003  12.404  21.294  0.00  0.00    +0.000 OA
BRANCH  21  23
ATOM     23  O   UNL     1      -1.309  11.272  23.103  0.00  0.00    +0.000 OA
ATOM     24  H   UNL     1      -0.985  10.388  23.339  0.00  0.00    +0.000 HD
ENDBRANCH  21  23
ENDBRANCH   6  21
BRANCH   9  25
ATOM     25  O   UNL     1       2.303   7.419  20.769  0.00  0.00    +0.000 OA
ATOM     26  H   UNL     1       3.172   7.257  20.348  0.00  0.00    +0.000 HD
ENDBRANCH   9  25
TORSDOF 6
ENDMDL
