MODEL 1
REMARK VINA RESULT:      -7.5      0.000      0.000
REMARK  Name = 
REMARK  13 active torsions:
REMARK  status: ('A' for Active; 'I' for Inactive)
REMARK    1  A    between atoms: C_1  and  O_2
REMARK    2  A    between atoms: O_2  and  C_3
REMARK    3  A    between atoms: C_3  and  C_4
REMARK    4  A    between atoms: C_4  and  C_5
REMARK    5  A    between atoms: C_5  and  N_6
REMARK    6  A    between atoms: C_7  and  C_9
REMARK    7  A    between atoms: C_12  and  O_13
REMARK    8  A    between atoms: O_13  and  C_14
REMARK    9  A    between atoms: C_15  and  O_16
REMARK   10  A    between atoms: O_16  and  C_17
REMARK   11  A    between atoms: N_20  and  C_21
REMARK   12  A    between atoms: C_21  and  C_22
REMARK   13  A    between atoms: C_21  and  C_23
REMARK                            x       y       z     vdW  Elec       q    Type
REMARK                         _______ _______ _______ _____ _____    ______ ____
ROOT
ATOM      1  C   UNL     1       2.220   6.430  20.034  0.00  0.00    +0.000 A 
ATOM      2  C   UNL     1       1.489   5.344  20.495  0.00  0.00    +0.000 A 
ATOM      3  C   UNL     1       1.973   4.051  20.252  0.00  0.00    +0.000 A 
ATOM      4  C   UNL     1       3.180   3.824  19.575  0.00  0.00    +0.000 A 
ATOM      5  C   UNL     1       3.922   4.921  19.100  0.00  0.00    +0.000 A 
ATOM      6  C   UNL     1       3.388   6.204  19.294  0.00  0.00    +0.000 A 
ENDROOT
BRANCH   1   8
ATOM      7  N   UNL     1       1.635   8.103  21.706  0.00  0.00    +0.000 N 
ATOM      8  C   UNL     1       1.760   7.810  20.362  0.00  0.00    +0.000 C 
ATOM      9  O   UNL     1       1.464   8.593  19.468  0.00  0.00    +0.000 OA
ATOM     10  H   UNL     1       1.747   7.378  22.398  0.00  0.00    +0.000 HD
BRANCH   7  11
ATOM     11  C   UNL     1       1.079   9.356  22.178  0.00  0.00    +0.000 C 
BRANCH  11  12
ATOM     12  C   UNL     1      -0.385   9.227  22.595  0.00  0.00    +0.000 C 
BRANCH  12  13
ATOM     13  C   UNL     1      -0.986  10.535  23.102  0.00  0.00    +0.000 C 
BRANCH  13  15
ATOM     14  C   UNL     1      -0.895  12.852  22.658  0.00  0.00    +0.000 C 
ATOM     15  O   UNL     1      -0.175  11.625  22.666  0.00  0.00    +0.000 OA
ENDBRANCH  13  15
ENDBRANCH  12  13
ENDBRANCH  11  12
ENDBRANCH   7  11
ENDBRANCH   1   8
BRANCH   4  16
ATOM     16  O   UNL     1       3.451   2.488  19.495  0.00  0.00    +0.000 OA
ATOM     17  C   UNL     1       3.196   1.803  18.280  0.00  0.00    +0.000 C 
ENDBRANCH   4  16
BRANCH   5  18
ATOM     18  O   UNL     1       5.123   4.766  18.423  0.00  0.00    +0.000 OA
BRANCH  18  19
ATOM     19  C   UNL     1       5.611   5.957  17.751  0.00  0.00    +0.000 C 
ATOM     20  C   UNL     1       4.864   6.266  16.450  0.00  0.00    +0.000 C 
ATOM     21  C   UNL     1       5.329   5.492  15.216  0.00  0.00    +0.000 C 
ATOM     22  N   UNL     1       6.787   5.452  15.012  0.00  0.00    +0.000 NA
ATOM     23  C   UNL     1       7.473   5.039  16.249  0.00  0.00    +0.000 C 
ATOM     24  C   UNL     1       7.108   5.855  17.486  0.00  0.00    +0.000 C 
BRANCH  22  25
ATOM     25  C   UNL     1       7.134   4.537  13.878  0.00  0.00    +0.000 C 
ATOM     26  C   UNL     1       5.914   3.805  13.289  0.00  0.00    +0.000 C 
ATOM     27  C   UNL     1       7.846   5.260  12.720  0.00  0.00    +0.000 C 
ENDBRANCH  22  25
ENDBRANCH  18  19
ENDBRANCH   5  18
TORSDOF 9
ENDMDL
MODEL 2
REMARK VINA RESULT:      -7.1      3.747      8.956
REMARK  Name = 
REMARK  13 active torsions:
REMARK  status: ('A' for Active; 'I' for Inactive)
REMARK    1  A    between atoms: C_1  and  O_2
REMARK    2  A    between atoms: O_2  and  C_3
REMARK    3  A    between atoms: C_3  and  C_4
REMARK    4  A    between atoms: C_4  and  C_5
REMARK    5  A    between atoms: C_5  and  N_6
REMARK    6  A    between atoms: C_7  and  C_9
REMARK    7  A    between atoms: C_12  and  O_13
REMARK    8  A    between atoms: O_13  and  C_14
REMARK    9  A    between atoms: C_15  and  O_16
REMARK   10  A    between atoms: O_16  and  C_17
REMARK   11  A    between atoms: N_20  and  C_21
REMARK   12  A    between atoms: C_21  and  C_22
REMARK   13  A    between atoms: C_21  and  C_23
REMARK                            x       y       z     vdW  Elec       q    Type
REMARK                         _______ _______ _______ _____ _____    ______ ____
ROOT
ATOM      1  C   UNL     1       6.806   4.954  15.203  0.00  0.00    +0.000 A 
ATOM      2  C   UNL     1       7.416   6.053  15.791  0.00  0.00    +0.000 A 
ATOM      3  C   UNL     1       7.288   6.238  17.174  0.00  0.00    +0.000 A 
ATOM      4  C   UNL     1       6.578   5.337  17.982  0.00  0.00    +0.000 A 
ATOM      5  C   UNL     1       5.952   4.225  17.390  0.00  0.00    +0.000 A 
ATOM      6  C   UNL     1       6.036   4.093  15.995  0.00  0.00    +0.000 A 
ENDROOT
BRANCH   1   8
ATOM      7  N   UNL     1       6.394   3.574  13.238  0.00  0.00    +0.000 N 
ATOM      8  C   UNL     1       7.009   4.700  13.747  0.00  0.00    +0.000 C 
ATOM      9  O   UNL     1       7.730   5.436  13.084  0.00  0.00    +0.000 OA
ATOM     10  H   UNL     1       5.936   2.920  13.855  0.00  0.00    +0.000 HD
BRANCH   7  11
ATOM     11  C   UNL     1       6.601   3.126  11.875  0.00  0.00    +0.000 C 
BRANCH  11  12
ATOM     12  C   UNL     1       5.340   2.520  11.260  0.00  0.00    +0.000 C 
BRANCH  12  13
ATOM     13  C   UNL     1       4.069   3.290  11.605  0.00  0.00    +0.000 C 
BRANCH  13  15
ATOM     14  C   UNL     1       3.142   4.065   9.577  0.00  0.00    +0.000 C 
ATOM     15  O   UNL     1       3.092   3.067  10.588  0.00  0.00    +0.000 OA
ENDBRANCH  13  15
ENDBRANCH  12  13
ENDBRANCH  11  12
ENDBRANCH   7  11
ENDBRANCH   1   8
BRANCH   4  16
ATOM     16  O   UNL     1       6.626   5.715  19.293  0.00  0.00    +0.000 OA
ATOM     17  C   UNL     1       7.869   5.681  19.976  0.00  0.00    +0.000 C 
ENDBRANCH   4  16
BRANCH   5  18
ATOM     18  O   UNL     1       5.236   3.297  18.132  0.00  0.00    +0.000 OA
BRANCH  18  19
ATOM     19  C   UNL     1       4.016   2.818  17.507  0.00  0.00    +0.000 C 
ATOM     20  C   UNL     1       2.979   3.922  17.278  0.00  0.00    +0.000 C 
ATOM     21  C   UNL     1       2.111   4.280  18.486  0.00  0.00    +0.000 C 
ATOM     22  N   UNL     1       1.536   3.132  19.207  0.00  0.00    +0.000 NA
ATOM     23  C   UNL     1       2.578   2.137  19.517  0.00  0.00    +0.000 C 
ATOM     24  C   UNL     1       3.402   1.681  18.316  0.00  0.00    +0.000 C 
BRANCH  22  25
ATOM     25  C   UNL     1       0.846   3.589  20.457  0.00  0.00    +0.000 C 
ATOM     26  C   UNL     1       1.322   2.850  21.721  0.00  0.00    +0.000 C 
ATOM     27  C   UNL     1       1.007   5.098  20.713  0.00  0.00    +0.000 C 
ENDBRANCH  22  25
ENDBRANCH  18  19
ENDBRANCH   5  18
TORSDOF 9
ENDMDL
MODEL 3
REMARK VINA RESULT:      -6.9      1.920      1.954
REMARK  Name = 
REMARK  13 active torsions:
REMARK  status: ('A' for Active; 'I' for Inactive)
REMARK    1  A    between atoms: C_1  and  O_2
REMARK    2  A    between atoms: O_2  and  C_3
REMARK    3  A    between atoms: C_3  and  C_4
REMARK    4  A    between atoms: C_4  and  C_5
REMARK    5  A    between atoms: C_5  and  N_6
REMARK    6  A    between atoms: C_7  and  C_9
REMARK    7  A    between atoms: C_12  and  O_13
REMARK    8  A    between atoms: O_13  and  C_14
REMARK    9  A    between atoms: C_15  and  O_16
REMARK   10  A    between atoms: O_16  and  C_17
REMARK   11  A    between atoms: N_20  and  C_21
REMARK   12  A    between atoms: C_21  and  C_22
REMARK   13  A    between atoms: C_21  and  C_23
REMARK                            x       y       z     vdW  Elec       q    Type
REMARK                         _______ _______ _______ _____ _____    ______ ____
ROOT
ATOM      1  C   UNL     1       2.110   6.480  20.125  0.00  0.00    +0.000 A 
ATOM      2  C   UNL     1       1.426   5.409  20.684  0.00  0.00    +0.000 A 
ATOM      3  C   UNL     1       1.935   4.115  20.505  0.00  0.00    +0.000 A 
ATOM      4  C   UNL     1       3.120   3.874  19.794  0.00  0.00    +0.000 A 
ATOM      5  C   UNL     1       3.813   4.955  19.220  0.00  0.00    +0.000 A 
ATOM      6  C   UNL     1       3.253   6.235  19.353  0.00  0.00    +0.000 A 
ENDROOT
BRANCH   1   8
ATOM      7  N   UNL     1       1.424   8.654  19.266  0.00  0.00    +0.000 N 
ATOM      8  C   UNL     1       1.626   7.867  20.382  0.00  0.00    +0.000 C 
ATOM      9  O   UNL     1       1.481   8.270  21.530  0.00  0.00    +0.000 OA
ATOM     10  H   UNL     1       1.700   8.325  18.353  0.00  0.00    +0.000 HD
BRANCH   7  11
ATOM     11  C   UNL     1       1.078  10.059  19.360  0.00  0.00    +0.000 C 
BRANCH  11  12
ATOM     12  C   UNL     1      -0.430  10.285  19.465  0.00  0.00    +0.000 C 
BRANCH  12  13
ATOM     13  C   UNL     1      -1.010  11.050  18.278  0.00  0.00    +0.000 C 
BRANCH  13  15
ATOM     14  C   UNL     1      -3.327  11.489  18.383  0.00  0.00    +0.000 C 
ATOM     15  O   UNL     1      -2.026  11.938  18.741  0.00  0.00    +0.000 OA
ENDBRANCH  13  15
ENDBRANCH  12  13
ENDBRANCH  11  12
ENDBRANCH   7  11
ENDBRANCH   1   8
BRANCH   4  16
ATOM     16  O   UNL     1       3.423   2.542  19.789  0.00  0.00    +0.000 OA
ATOM     17  C   UNL     1       3.184   1.784  18.615  0.00  0.00    +0.000 C 
ENDBRANCH   4  16
BRANCH   5  18
ATOM     18  O   UNL     1       4.990   4.785  18.506  0.00  0.00    +0.000 OA
BRANCH  18  19
ATOM     19  C   UNL     1       5.504   5.984  17.869  0.00  0.00    +0.000 C 
ATOM     20  C   UNL     1       4.814   6.307  16.541  0.00  0.00    +0.000 C 
ATOM     21  C   UNL     1       5.334   5.547  15.319  0.00  0.00    +0.000 C 
ATOM     22  N   UNL     1       6.799   5.513  15.179  0.00  0.00    +0.000 NA
ATOM     23  C   UNL     1       7.432   5.087  16.440  0.00  0.00    +0.000 C 
ATOM     24  C   UNL     1       7.012   5.888  17.668  0.00  0.00    +0.000 C 
BRANCH  22  25
ATOM     25  C   UNL     1       7.198   4.611  14.051  0.00  0.00    +0.000 C 
ATOM     26  C   UNL     1       6.014   3.837  13.441  0.00  0.00    +0.000 C 
ATOM     27  C   UNL     1       7.903   5.359  12.905  0.00  0.00    +0.000 C 
ENDBRANCH  22  25
ENDBRANCH  18  19
ENDBRANCH   5  18
TORSDOF 9
ENDMDL
MODEL 4
REMARK VINA RESULT:      -6.8      4.184      8.876
REMARK  Name = 
REMARK  13 active torsions:
REMARK  status: ('A' for Active; 'I' for Inactive)
REMARK    1  A    between atoms: C_1  and  O_2
REMARK    2  A    between atoms: O_2  and  C_3
REMARK    3  A    between atoms: C_3  and  C_4
REMARK    4  A    between atoms: C_4  and  C_5
REMARK    5  A    between atoms: C_5  and  N_6
REMARK    6  A    between atoms: C_7  and  C_9
REMARK    7  A    between atoms: C_12  and  O_13
REMARK    8  A    between atoms: O_13  and  C_14
REMARK    9  A    between atoms: C_15  and  O_16
REMARK   10  A    between atoms: O_16  and  C_17
REMARK   11  A    between atoms: N_20  and  C_21
REMARK   12  A    between atoms: C_21  and  C_22
REMARK   13  A    between atoms: C_21  and  C_23
REMARK                            x       y       z     vdW  Elec       q    Type
REMARK                         _______ _______ _______ _____ _____    ______ ____
ROOT
ATOM      1  C   UNL     1       6.664   4.858  15.223  0.00  0.00    +0.000 A 
ATOM      2  C   UNL     1       7.745   4.747  16.086  0.00  0.00    +0.000 A 
ATOM      3  C   UNL     1       7.524   4.866  17.465  0.00  0.00    +0.000 A 
ATOM      4  C   UNL     1       6.243   5.076  17.998  0.00  0.00    +0.000 A 
ATOM      5  C   UNL     1       5.145   5.196  17.126  0.00  0.00    +0.000 A 
ATOM      6  C   UNL     1       5.396   5.140  15.746  0.00  0.00    +0.000 A 
ENDROOT
BRANCH   1   8
ATOM      7  N   UNL     1       6.205   3.576  13.202  0.00  0.00    +0.000 N 
ATOM      8  C   UNL     1       6.875   4.646  13.762  0.00  0.00    +0.000 C 
ATOM      9  O   UNL     1       7.646   5.364  13.136  0.00  0.00    +0.000 OA
ATOM     10  H   UNL     1       5.701   2.928  13.788  0.00  0.00    +0.000 HD
BRANCH   7  11
ATOM     11  C   UNL     1       6.407   3.168  11.826  0.00  0.00    +0.000 C 
BRANCH  11  12
ATOM     12  C   UNL     1       5.360   2.160  11.354  0.00  0.00    +0.000 C 
BRANCH  12  13
ATOM     13  C   UNL     1       3.949   2.740  11.291  0.00  0.00    +0.000 C 
BRANCH  13  15
ATOM     14  C   UNL     1       3.024   4.209   9.692  0.00  0.00    +0.000 C 
ATOM     15  O   UNL     1       4.002   4.043  10.711  0.00  0.00    +0.000 OA
ENDBRANCH  13  15
ENDBRANCH  12  13
ENDBRANCH  11  12
ENDBRANCH   7  11
ENDBRANCH   1   8
BRANCH   4  16
ATOM     16  O   UNL     1       6.283   5.122  19.361  0.00  0.00    +0.000 OA
ATOM     17  C   UNL     1       7.475   5.544  20.003  0.00  0.00    +0.000 C 
ENDBRANCH   4  16
BRANCH   5  18
ATOM     18  O   UNL     1       3.853   5.403  17.587  0.00  0.00    +0.000 OA
BRANCH  18  19
ATOM     19  C   UNL     1       2.886   4.398  17.185  0.00  0.00    +0.000 C 
ATOM     20  C   UNL     1       1.545   4.521  17.915  0.00  0.00    +0.000 C 
ATOM     21  C   UNL     1       1.484   3.890  19.307  0.00  0.00    +0.000 C 
ATOM     22  N   UNL     1       2.034   2.527  19.402  0.00  0.00    +0.000 NA
ATOM     23  C   UNL     1       3.375   2.464  18.794  0.00  0.00    +0.000 C 
ATOM     24  C   UNL     1       3.454   2.995  17.366  0.00  0.00    +0.000 C 
BRANCH  22  25
ATOM     25  C   UNL     1       2.073   2.076  20.830  0.00  0.00    +0.000 C 
ATOM     26  C   UNL     1       3.488   2.093  21.437  0.00  0.00    +0.000 C 
ATOM     27  C   UNL     1       1.164   2.911  21.749  0.00  0.00    +0.000 C 
ENDBRANCH  22  25
ENDBRANCH  18  19
ENDBRANCH   5  18
TORSDOF 9
ENDMDL
MODEL 5
REMARK VINA RESULT:      -6.8      2.672      8.675
REMARK  Name = 
REMARK  13 active torsions:
REMARK  status: ('A' for Active; 'I' for Inactive)
REMARK    1  A    between atoms: C_1  and  O_2
REMARK    2  A    between atoms: O_2  and  C_3
REMARK    3  A    between atoms: C_3  and  C_4
REMARK    4  A    between atoms: C_4  and  C_5
REMARK    5  A    between atoms: C_5  and  N_6
REMARK    6  A    between atoms: C_7  and  C_9
REMARK    7  A    between atoms: C_12  and  O_13
REMARK    8  A    between atoms: O_13  and  C_14
REMARK    9  A    between atoms: C_15  and  O_16
REMARK   10  A    between atoms: O_16  and  C_17
REMARK   11  A    between atoms: N_20  and  C_21
REMARK   12  A    between atoms: C_21  and  C_22
REMARK   13  A    between atoms: C_21  and  C_23
REMARK                            x       y       z     vdW  Elec       q    Type
REMARK                         _______ _______ _______ _____ _____    ______ ____
ROOT
ATOM      1  C   UNL     1       4.495   4.195  17.101  0.00  0.00    +0.000 A 
ATOM      2  C   UNL     1       4.084   2.927  17.488  0.00  0.00    +0.000 A 
ATOM      3  C   UNL     1       2.887   2.793  18.204  0.00  0.00    +0.000 A 
ATOM      4  C   UNL     1       2.084   3.899  18.524  0.00  0.00    +0.000 A 
ATOM      5  C   UNL     1       2.499   5.187  18.140  0.00  0.00    +0.000 A 
ATOM      6  C   UNL     1       3.734   5.308  17.483  0.00  0.00    +0.000 A 
ENDROOT
BRANCH   1   8
ATOM      7  N   UNL     1       5.585   4.017  14.930  0.00  0.00    +0.000 N 
ATOM      8  C   UNL     1       5.722   4.340  16.266  0.00  0.00    +0.000 C 
ATOM      9  O   UNL     1       6.784   4.673  16.776  0.00  0.00    +0.000 OA
ATOM     10  H   UNL     1       4.730   3.605  14.590  0.00  0.00    +0.000 HD
BRANCH   7  11
ATOM     11  C   UNL     1       6.714   3.986  14.020  0.00  0.00    +0.000 C 
BRANCH  11  12
ATOM     12  C   UNL     1       6.285   4.014  12.554  0.00  0.00    +0.000 C 
BRANCH  12  13
ATOM     13  C   UNL     1       6.483   2.678  11.842  0.00  0.00    +0.000 C 
BRANCH  13  15
ATOM     14  C   UNL     1       4.234   3.186  11.335  0.00  0.00    +0.000 C 
ATOM     15  O   UNL     1       5.212   2.160  11.451  0.00  0.00    +0.000 OA
ENDBRANCH  13  15
ENDBRANCH  12  13
ENDBRANCH  11  12
ENDBRANCH   7  11
ENDBRANCH   1   8
BRANCH   4  16
ATOM     16  O   UNL     1       0.959   3.507  19.190  0.00  0.00    +0.000 OA
ATOM     17  C   UNL     1       1.069   3.068  20.534  0.00  0.00    +0.000 C 
ENDBRANCH   4  16
BRANCH   5  18
ATOM     18  O   UNL     1       1.753   6.321  18.425  0.00  0.00    +0.000 OA
BRANCH  18  19
ATOM     19  C   UNL     1       2.499   7.417  19.017  0.00  0.00    +0.000 C 
ATOM     20  C   UNL     1       1.862   7.960  20.299  0.00  0.00    +0.000 C 
ATOM     21  C   UNL     1       0.722   8.963  20.104  0.00  0.00    +0.000 C 
ATOM     22  N   UNL     1       0.991  10.035  19.131  0.00  0.00    +0.000 NA
ATOM     23  C   UNL     1       1.495   9.474  17.864  0.00  0.00    +0.000 C 
ATOM     24  C   UNL     1       2.696   8.544  18.011  0.00  0.00    +0.000 C 
BRANCH  22  25
ATOM     25  C   UNL     1      -0.242  10.854  18.899  0.00  0.00    +0.000 C 
ATOM     26  C   UNL     1      -1.316  10.121  18.075  0.00  0.00    +0.000 C 
ATOM     27  C   UNL     1      -0.902  11.327  20.206  0.00  0.00    +0.000 C 
ENDBRANCH  22  25
ENDBRANCH  18  19
ENDBRANCH   5  18
TORSDOF 9
ENDMDL
MODEL 6
REMARK VINA RESULT:      -6.8      2.588      8.580
REMARK  Name = 
REMARK  13 active torsions:
REMARK  status: ('A' for Active; 'I' for Inactive)
REMARK    1  A    between atoms: C_1  and  O_2
REMARK    2  A    between atoms: O_2  and  C_3
REMARK    3  A    between atoms: C_3  and  C_4
REMARK    4  A    between atoms: C_4  and  C_5
REMARK    5  A    between atoms: C_5  and  N_6
REMARK    6  A    between atoms: C_7  and  C_9
REMARK    7  A    between atoms: C_12  and  O_13
REMARK    8  A    between atoms: O_13  and  C_14
REMARK    9  A    between atoms: C_15  and  O_16
REMARK   10  A    between atoms: O_16  and  C_17
REMARK   11  A    between atoms: N_20  and  C_21
REMARK   12  A    between atoms: C_21  and  C_22
REMARK   13  A    between atoms: C_21  and  C_23
REMARK                            x       y       z     vdW  Elec       q    Type
REMARK                         _______ _______ _______ _____ _____    ______ ____
ROOT
ATOM      1  C   UNL     1       4.520   4.994  16.767  0.00  0.00    +0.000 A 
ATOM      2  C   UNL     1       4.431   3.652  17.112  0.00  0.00    +0.000 A 
ATOM      3  C   UNL     1       3.432   3.250  18.009  0.00  0.00    +0.000 A 
ATOM      4  C   UNL     1       2.512   4.159  18.554  0.00  0.00    +0.000 A 
ATOM      5  C   UNL     1       2.603   5.521  18.213  0.00  0.00    +0.000 A 
ATOM      6  C   UNL     1       3.650   5.914  17.366  0.00  0.00    +0.000 A 
ENDROOT
BRANCH   1   8
ATOM      7  N   UNL     1       6.267   4.407  15.173  0.00  0.00    +0.000 N 
ATOM      8  C   UNL     1       5.522   5.418  15.747  0.00  0.00    +0.000 C 
ATOM      9  O   UNL     1       5.688   6.606  15.498  0.00  0.00    +0.000 OA
ATOM     10  H   UNL     1       6.197   3.462  15.520  0.00  0.00    +0.000 HD
BRANCH   7  11
ATOM     11  C   UNL     1       7.364   4.672  14.262  0.00  0.00    +0.000 C 
BRANCH  11  12
ATOM     12  C   UNL     1       6.918   4.699  12.801  0.00  0.00    +0.000 C 
BRANCH  12  13
ATOM     13  C   UNL     1       6.248   3.403  12.351  0.00  0.00    +0.000 C 
BRANCH  13  15
ATOM     14  C   UNL     1       4.194   3.056  11.241  0.00  0.00    +0.000 C 
ATOM     15  O   UNL     1       4.831   3.562  12.407  0.00  0.00    +0.000 OA
ENDBRANCH  13  15
ENDBRANCH  12  13
ENDBRANCH  11  12
ENDBRANCH   7  11
ENDBRANCH   1   8
BRANCH   4  16
ATOM     16  O   UNL     1       1.622   3.521  19.370  0.00  0.00    +0.000 OA
ATOM     17  C   UNL     1       0.845   2.458  18.845  0.00  0.00    +0.000 C 
ENDBRANCH   4  16
BRANCH   5  18
ATOM     18  O   UNL     1       1.726   6.470  18.716  0.00  0.00    +0.000 OA
BRANCH  18  19
ATOM     19  C   UNL     1       2.340   7.717  19.135  0.00  0.00    +0.000 C 
ATOM     20  C   UNL     1       1.795   8.244  20.466  0.00  0.00    +0.000 C 
ATOM     21  C   UNL     1       0.482   9.024  20.385  0.00  0.00    +0.000 C 
ATOM     22  N   UNL     1       0.425  10.049  19.329  0.00  0.00    +0.000 NA
ATOM     23  C   UNL     1       0.844   9.484  18.034  0.00  0.00    +0.000 C 
ATOM     24  C   UNL     1       2.199   8.781  18.052  0.00  0.00    +0.000 C 
BRANCH  22  25
ATOM     25  C   UNL     1      -0.952  10.631  19.236  0.00  0.00    +0.000 C 
ATOM     26  C   UNL     1      -0.965  12.171  19.237  0.00  0.00    +0.000 C 
ATOM     27  C   UNL     1      -1.720  10.161  17.987  0.00  0.00    +0.000 C 
ENDBRANCH  22  25
ENDBRANCH  18  19
ENDBRANCH   5  18
TORSDOF 9
ENDMDL
MODEL 7
REMARK VINA RESULT:      -6.7      1.138      1.139
REMARK  Name = 
REMARK  13 active torsions:
REMARK  status: ('A' for Active; 'I' for Inactive)
REMARK    1  A    between atoms: C_1  and  O_2
REMARK    2  A    between atoms: O_2  and  C_3
REMARK    3  A    between atoms: C_3  and  C_4
REMARK    4  A    between atoms: C_4  and  C_5
REMARK    5  A    between atoms: C_5  and  N_6
REMARK    6  A    between atoms: C_7  and  C_9
REMARK    7  A    between atoms: C_12  and  O_13
REMARK    8  A    between atoms: O_13  and  C_14
REMARK    9  A    between atoms: C_15  and  O_16
REMARK   10  A    between atoms: O_16  and  C_17
REMARK   11  A    between atoms: N_20  and  C_21
REMARK   12  A    between atoms: C_21  and  C_22
REMARK   13  A    between atoms: C_21  and  C_23
REMARK                            x       y       z     vdW  Elec       q    Type
REMARK                         _______ _______ _______ _____ _____    ______ ____
ROOT
ATOM      1  C   UNL     1       2.178   6.392  19.979  0.00  0.00    +0.000 A 
ATOM      2  C   UNL     1       1.530   5.373  20.663  0.00  0.00    +0.000 A 
ATOM      3  C   UNL     1       1.948   4.050  20.460  0.00  0.00    +0.000 A 
ATOM      4  C   UNL     1       3.011   3.729  19.602  0.00  0.00    +0.000 A 
ATOM      5  C   UNL     1       3.667   4.758  18.902  0.00  0.00    +0.000 A 
ATOM      6  C   UNL     1       3.191   6.068  19.067  0.00  0.00    +0.000 A 
ENDROOT
BRANCH   1   8
ATOM      7  N   UNL     1       1.382   8.085  21.540  0.00  0.00    +0.000 N 
ATOM      8  C   UNL     1       1.800   7.808  20.253  0.00  0.00    +0.000 C 
ATOM      9  O   UNL     1       1.816   8.639  19.353  0.00  0.00    +0.000 OA
ATOM     10  H   UNL     1       1.243   7.337  22.203  0.00  0.00    +0.000 HD
BRANCH   7  11
ATOM     11  C   UNL     1       0.863   9.383  21.925  0.00  0.00    +0.000 C 
BRANCH  11  12
ATOM     12  C   UNL     1      -0.351   9.798  21.094  0.00  0.00    +0.000 C 
BRANCH  12  13
ATOM     13  C   UNL     1      -0.456  11.307  20.891  0.00  0.00    +0.000 C 
BRANCH  13  15
ATOM     14  C   UNL     1      -1.671  12.799  19.523  0.00  0.00    +0.000 C 
ATOM     15  O   UNL     1      -1.723  11.617  20.313  0.00  0.00    +0.000 OA
ENDBRANCH  13  15
ENDBRANCH  12  13
ENDBRANCH  11  12
ENDBRANCH   7  11
ENDBRANCH   1   8
BRANCH   4  16
ATOM     16  O   UNL     1       3.248   2.385  19.601  0.00  0.00    +0.000 OA
ATOM     17  C   UNL     1       4.472   1.899  20.126  0.00  0.00    +0.000 C 
ENDBRANCH   4  16
BRANCH   5  18
ATOM     18  O   UNL     1       4.724   4.509  18.040  0.00  0.00    +0.000 OA
BRANCH  18  19
ATOM     19  C   UNL     1       5.482   5.681  17.638  0.00  0.00    +0.000 C 
ATOM     20  C   UNL     1       4.989   6.301  16.327  0.00  0.00    +0.000 C 
ATOM     21  C   UNL     1       5.504   5.643  15.045  0.00  0.00    +0.000 C 
ATOM     22  N   UNL     1       6.953   5.379  15.014  0.00  0.00    +0.000 NA
ATOM     23  C   UNL     1       7.380   4.678  16.238  0.00  0.00    +0.000 C 
ATOM     24  C   UNL     1       6.968   5.358  17.541  0.00  0.00    +0.000 C 
BRANCH  22  25
ATOM     25  C   UNL     1       7.317   4.590  13.793  0.00  0.00    +0.000 C 
ATOM     26  C   UNL     1       6.152   3.748  13.241  0.00  0.00    +0.000 C 
ATOM     27  C   UNL     1       7.839   5.471  12.644  0.00  0.00    +0.000 C 
ENDBRANCH  22  25
ENDBRANCH  18  19
ENDBRANCH   5  18
TORSDOF 9
ENDMDL
MODEL 8
REMARK VINA RESULT:      -6.6      3.236      7.498
REMARK  Name = 
REMARK  13 active torsions:
REMARK  status: ('A' for Active; 'I' for Inactive)
REMARK    1  A    between atoms: C_1  and  O_2
REMARK    2  A    between atoms: O_2  and  C_3
REMARK    3  A    between atoms: C_3  and  C_4
REMARK    4  A    between atoms: C_4  and  C_5
REMARK    5  A    between atoms: C_5  and  N_6
REMARK    6  A    between atoms: C_7  and  C_9
REMARK    7  A    between atoms: C_12  and  O_13
REMARK    8  A    between atoms: O_13  and  C_14
REMARK    9  A    between atoms: C_15  and  O_16
REMARK   10  A    between atoms: O_16  and  C_17
REMARK   11  A    between atoms: N_20  and  C_21
REMARK   12  A    between atoms: C_21  and  C_22
REMARK   13  A    between atoms: C_21  and  C_23
REMARK                            x       y       z     vdW  Elec       q    Type
REMARK                         _______ _______ _______ _____ _____    ______ ____
ROOT
ATOM      1  C   UNL     1       5.155   5.342  17.793  0.00  0.00    +0.000 A 
ATOM      2  C   UNL     1       4.854   4.093  17.268  0.00  0.00    +0.000 A 
ATOM      3  C   UNL     1       3.525   3.649  17.296  0.00  0.00    +0.000 A 
ATOM      4  C   UNL     1       2.489   4.437  17.821  0.00  0.00    +0.000 A 
ATOM      5  C   UNL     1       2.789   5.701  18.360  0.00  0.00    +0.000 A 
ATOM      6  C   UNL     1       4.135   6.100  18.384  0.00  0.00    +0.000 A 
ENDROOT
BRANCH   1   8
ATOM      7  N   UNL     1       6.683   7.233  17.626  0.00  0.00    +0.000 N 
ATOM      8  C   UNL     1       6.549   5.859  17.690  0.00  0.00    +0.000 C 
ATOM      9  O   UNL     1       7.494   5.083  17.612  0.00  0.00    +0.000 OA
ATOM     10  H   UNL     1       5.867   7.820  17.543  0.00  0.00    +0.000 HD
BRANCH   7  11
ATOM     11  C   UNL     1       7.960   7.878  17.397  0.00  0.00    +0.000 C 
BRANCH  11  12
ATOM     12  C   UNL     1       7.987   9.320  17.903  0.00  0.00    +0.000 C 
BRANCH  12  13
ATOM     13  C   UNL     1       9.088   9.579  18.928  0.00  0.00    +0.000 C 
BRANCH  13  15
ATOM     14  C   UNL     1       8.956  11.733  17.971  0.00  0.00    +0.000 C 
ATOM     15  O   UNL     1       9.806  10.757  18.561  0.00  0.00    +0.000 OA
ENDBRANCH  13  15
ENDBRANCH  12  13
ENDBRANCH  11  12
ENDBRANCH   7  11
ENDBRANCH   1   8
BRANCH   4  16
ATOM     16  O   UNL     1       1.286   3.802  17.702  0.00  0.00    +0.000 OA
ATOM     17  C   UNL     1       0.958   2.769  18.616  0.00  0.00    +0.000 C 
ENDBRANCH   4  16
BRANCH   5  18
ATOM     18  O   UNL     1       1.812   6.529  18.894  0.00  0.00    +0.000 OA
BRANCH  18  19
ATOM     19  C   UNL     1       2.278   7.836  19.322  0.00  0.00    +0.000 C 
ATOM     20  C   UNL     1       1.564   8.352  20.575  0.00  0.00    +0.000 C 
ATOM     21  C   UNL     1       0.206   9.016  20.340  0.00  0.00    +0.000 C 
ATOM     22  N   UNL     1       0.170  10.001  19.246  0.00  0.00    +0.000 NA
ATOM     23  C   UNL     1       0.760   9.436  18.019  0.00  0.00    +0.000 C 
ATOM     24  C   UNL     1       2.158   8.852  18.193  0.00  0.00    +0.000 C 
BRANCH  22  25
ATOM     25  C   UNL     1      -1.235  10.461  19.000  0.00  0.00    +0.000 C 
ATOM     26  C   UNL     1      -1.418  11.980  19.174  0.00  0.00    +0.000 C 
ATOM     27  C   UNL     1      -1.751  10.089  17.598  0.00  0.00    +0.000 C 
ENDBRANCH  22  25
ENDBRANCH  18  19
ENDBRANCH   5  18
TORSDOF 9
ENDMDL
MODEL 9
REMARK VINA RESULT:      -6.5      3.585      9.469
REMARK  Name = 
REMARK  13 active torsions:
REMARK  status: ('A' for Active; 'I' for Inactive)
REMARK    1  A    between atoms: C_1  and  O_2
REMARK    2  A    between atoms: O_2  and  C_3
REMARK    3  A    between atoms: C_3  and  C_4
REMARK    4  A    between atoms: C_4  and  C_5
REMARK    5  A    between atoms: C_5  and  N_6
REMARK    6  A    between atoms: C_7  and  C_9
REMARK    7  A    between atoms: C_12  and  O_13
REMARK    8  A    between atoms: O_13  and  C_14
REMARK    9  A    between atoms: C_15  and  O_16
REMARK   10  A    between atoms: O_16  and  C_17
REMARK   11  A    between atoms: N_20  and  C_21
REMARK   12  A    between atoms: C_21  and  C_22
REMARK   13  A    between atoms: C_21  and  C_23
REMARK                            x       y       z     vdW  Elec       q    Type
REMARK                         _______ _______ _______ _____ _____    ______ ____
ROOT
ATOM      1  C   UNL     1       2.312   7.119  19.453  0.00  0.00    +0.000 A 
ATOM      2  C   UNL     1       2.864   7.660  18.300  0.00  0.00    +0.000 A 
ATOM      3  C   UNL     1       2.432   8.923  17.872  0.00  0.00    +0.000 A 
ATOM      4  C   UNL     1       1.473   9.661  18.582  0.00  0.00    +0.000 A 
ATOM      5  C   UNL     1       0.905   9.114  19.747  0.00  0.00    +0.000 A 
ATOM      6  C   UNL     1       1.302   7.822  20.123  0.00  0.00    +0.000 A 
ENDROOT
BRANCH   1   8
ATOM      7  N   UNL     1       2.002   5.143  20.844  0.00  0.00    +0.000 N 
ATOM      8  C   UNL     1       2.827   5.817  19.965  0.00  0.00    +0.000 C 
ATOM      9  O   UNL     1       3.943   5.423  19.648  0.00  0.00    +0.000 OA
ATOM     10  H   UNL     1       1.160   5.580  21.189  0.00  0.00    +0.000 HD
BRANCH   7  11
ATOM     11  C   UNL     1       2.416   3.931  21.523  0.00  0.00    +0.000 C 
BRANCH  11  12
ATOM     12  C   UNL     1       1.445   2.773  21.298  0.00  0.00    +0.000 C 
BRANCH  12  13
ATOM     13  C   UNL     1       1.305   2.379  19.830  0.00  0.00    +0.000 C 
BRANCH  13  15
ATOM     14  C   UNL     1       2.502   2.424  17.796  0.00  0.00    +0.000 C 
ATOM     15  O   UNL     1       2.593   2.393  19.215  0.00  0.00    +0.000 OA
ENDBRANCH  13  15
ENDBRANCH  12  13
ENDBRANCH  11  12
ENDBRANCH   7  11
ENDBRANCH   1   8
BRANCH   4  16
ATOM     16  O   UNL     1       1.247  10.868  17.985  0.00  0.00    +0.000 OA
ATOM     17  C   UNL     1       2.189  11.913  18.161  0.00  0.00    +0.000 C 
ENDBRANCH   4  16
BRANCH   5  18
ATOM     18  O   UNL     1      -0.046   9.792  20.495  0.00  0.00    +0.000 OA
BRANCH  18  19
ATOM     19  C   UNL     1       0.474  10.534  21.629  0.00  0.00    +0.000 C 
ATOM     20  C   UNL     1      -0.254  10.225  22.941  0.00  0.00    +0.000 C 
ATOM     21  C   UNL     1      -1.565  10.979  23.167  0.00  0.00    +0.000 C 
ATOM     22  N   UNL     1      -1.511  12.426  22.901  0.00  0.00    +0.000 NA
ATOM     23  C   UNL     1      -0.910  12.690  21.581  0.00  0.00    +0.000 C 
ATOM     24  C   UNL     1       0.448  12.033  21.355  0.00  0.00    +0.000 C 
BRANCH  22  25
ATOM     25  C   UNL     1      -2.879  13.029  22.995  0.00  0.00    +0.000 C 
ATOM     26  C   UNL     1      -3.701  12.884  21.701  0.00  0.00    +0.000 C 
ATOM     27  C   UNL     1      -3.716  12.441  24.145  0.00  0.00    +0.000 C 
ENDBRANCH  22  25
ENDBRANCH  18  19
ENDBRANCH   5  18
TORSDOF 9
ENDMDL
