MODEL 1
REMARK VINA RESULT:      -8.4      0.000      0.000
REMARK  Name = 
REMARK  8 active torsions:
REMARK  status: ('A' for Active; 'I' for Inactive)
REMARK    1  A    between atoms: C_1  and  O_2
REMARK    2  A    between atoms: O_2  and  C_3
REMARK    3  A    between atoms: C_6  and  C_7
REMARK    4  A    between atoms: C_7  and  C_8
REMARK    5  A    between atoms: C_13  and  C_14
REMARK    6  A    between atoms: C_14  and  O_16
REMARK    7  A    between atoms: C_21  and  O_22
REMARK    8  A    between atoms: O_22  and  C_23
REMARK                            x       y       z     vdW  Elec       q    Type
REMARK                         _______ _______ _______ _____ _____    ______ ____
ROOT
ATOM      1  C   UNL     1       1.390   9.977  18.774  0.00  0.00    +0.000 A 
ATOM      2  C   UNL     1       2.059   9.266  17.766  0.00  0.00    +0.000 A 
ATOM      3  C   UNL     1       2.485   7.956  17.968  0.00  0.00    +0.000 A 
ATOM      4  C   UNL     1       2.284   7.315  19.199  0.00  0.00    +0.000 A 
ATOM      5  C   UNL     1       1.762   8.094  20.240  0.00  0.00    +0.000 A 
ATOM      6  C   UNL     1       1.322   9.417  20.049  0.00  0.00    +0.000 A 
ENDROOT
BRANCH   4   7
ATOM      7  C   UNL     1       2.573   5.818  19.309  0.00  0.00    +0.000 C 
ATOM      8  C   UNL     1       2.021   5.274  20.660  0.00  0.00    +0.000 C 
ATOM      9  C   UNL     1       1.596   3.834  20.408  0.00  0.00    +0.000 C 
ATOM     10  C   UNL     1       2.717   2.797  20.417  0.00  0.00    +0.000 C 
ATOM     11  C   UNL     1       2.379   1.798  19.303  0.00  0.00    +0.000 C 
ATOM     12  C   UNL     1       1.225   2.420  18.496  0.00  0.00    +0.000 C 
ATOM     13  C   UNL     1       1.082   3.855  18.983  0.00  0.00    +0.000 C 
ATOM     14  C   UNL     1       1.957   4.871  18.237  0.00  0.00    +0.000 C 
BRANCH   7  15
ATOM     15  C   UNL     1       4.056   5.637  19.275  0.00  0.00    +0.000 C 
ATOM     16  N   UNL     1       5.203   5.477  19.206  0.00  0.00    +0.000 NA
ENDBRANCH   7  15
BRANCH  11  17
ATOM     17  C   UNL     1       3.596   1.479  18.450  0.00  0.00    +0.000 C 
ATOM     18  O   UNL     1       3.935   2.092  17.451  0.00  0.00    +0.000 OA
BRANCH  17  19
ATOM     19  O   UNL     1       4.271   0.389  18.886  0.00  0.00    +0.000 OA
ATOM     20  H   UNL     1       4.781   0.530  19.705  0.00  0.00    +0.000 HD
ENDBRANCH  17  19
ENDBRANCH  11  17
ENDBRANCH   4   7
BRANCH   1  22
ATOM     21  C   UNL     1       1.752  12.282  18.528  0.00  0.00    +0.000 C 
ATOM     22  O   UNL     1       0.819  11.195  18.510  0.00  0.00    +0.000 OA
ENDBRANCH   1  22
BRANCH   6  23
ATOM     23  O   UNL     1       0.899   9.961  21.226  0.00  0.00    +0.000 OA
BRANCH  23  24
ATOM     24  C   UNL     1      -0.454  10.302  21.497  0.00  0.00    +0.000 C 
ATOM     25  C   UNL     1      -0.791  10.088  22.969  0.00  0.00    +0.000 C 
ATOM     26  C   UNL     1      -1.671  11.256  23.377  0.00  0.00    +0.000 C 
ATOM     27  C   UNL     1      -1.236  12.423  22.509  0.00  0.00    +0.000 C 
ATOM     28  C   UNL     1      -0.564  11.820  21.282  0.00  0.00    +0.000 C 
ENDBRANCH  23  24
ENDBRANCH   6  23
TORSDOF 7
ENDMDL
MODEL 2
REMARK VINA RESULT:      -7.9      4.570      8.299
REMARK  Name = 
REMARK  8 active torsions:
REMARK  status: ('A' for Active; 'I' for Inactive)
REMARK    1  A    between atoms: C_1  and  O_2
REMARK    2  A    between atoms: O_2  and  C_3
REMARK    3  A    between atoms: C_6  and  C_7
REMARK    4  A    between atoms: C_7  and  C_8
REMARK    5  A    between atoms: C_13  and  C_14
REMARK    6  A    between atoms: C_14  and  O_16
REMARK    7  A    between atoms: C_21  and  O_22
REMARK    8  A    between atoms: O_22  and  C_23
REMARK                            x       y       z     vdW  Elec       q    Type
REMARK                         _______ _______ _______ _____ _____    ______ ____
ROOT
ATOM      1  C   UNL     1       7.211   5.168  14.674  0.00  0.00    +0.000 A 
ATOM      2  C   UNL     1       6.921   6.184  15.597  0.00  0.00    +0.000 A 
ATOM      3  C   UNL     1       5.925   6.026  16.556  0.00  0.00    +0.000 A 
ATOM      4  C   UNL     1       5.157   4.854  16.611  0.00  0.00    +0.000 A 
ATOM      5  C   UNL     1       5.351   3.922  15.582  0.00  0.00    +0.000 A 
ATOM      6  C   UNL     1       6.358   4.067  14.609  0.00  0.00    +0.000 A 
ENDROOT
BRANCH   4   7
ATOM      7  C   UNL     1       4.226   4.634  17.803  0.00  0.00    +0.000 C 
ATOM      8  C   UNL     1       3.213   5.814  17.903  0.00  0.00    +0.000 C 
ATOM      9  C   UNL     1       1.927   5.235  18.473  0.00  0.00    +0.000 C 
ATOM     10  C   UNL     1       1.895   5.043  19.988  0.00  0.00    +0.000 C 
ATOM     11  C   UNL     1       1.150   3.726  20.234  0.00  0.00    +0.000 C 
ATOM     12  C   UNL     1       1.005   3.046  18.860  0.00  0.00    +0.000 C 
ATOM     13  C   UNL     1       1.873   3.836  17.893  0.00  0.00    +0.000 C 
ATOM     14  C   UNL     1       3.330   3.361  17.811  0.00  0.00    +0.000 C 
BRANCH   7  15
ATOM     15  C   UNL     1       5.068   4.603  19.038  0.00  0.00    +0.000 C 
ATOM     16  N   UNL     1       5.759   4.587  19.969  0.00  0.00    +0.000 NA
ENDBRANCH   7  15
BRANCH  11  17
ATOM     17  C   UNL     1       1.870   2.858  21.254  0.00  0.00    +0.000 C 
ATOM     18  O   UNL     1       1.348   2.330  22.222  0.00  0.00    +0.000 OA
BRANCH  17  19
ATOM     19  O   UNL     1       3.198   2.753  21.009  0.00  0.00    +0.000 OA
ATOM     20  H   UNL     1       3.440   2.798  20.066  0.00  0.00    +0.000 HD
ENDBRANCH  17  19
ENDBRANCH  11  17
ENDBRANCH   4   7
BRANCH   1  22
ATOM     21  C   UNL     1       8.036   5.921  12.611  0.00  0.00    +0.000 C 
ATOM     22  O   UNL     1       8.304   5.259  13.853  0.00  0.00    +0.000 OA
ENDBRANCH   1  22
BRANCH   6  23
ATOM     23  O   UNL     1       6.306   3.048  13.704  0.00  0.00    +0.000 OA
BRANCH  23  24
ATOM     24  C   UNL     1       6.068   3.237  12.316  0.00  0.00    +0.000 C 
ATOM     25  C   UNL     1       5.851   1.903  11.608  0.00  0.00    +0.000 C 
ATOM     26  C   UNL     1       4.731   2.131  10.607  0.00  0.00    +0.000 C 
ATOM     27  C   UNL     1       3.849   3.207  11.213  0.00  0.00    +0.000 C 
ATOM     28  C   UNL     1       4.718   3.966  12.210  0.00  0.00    +0.000 C 
ENDBRANCH  23  24
ENDBRANCH   6  23
TORSDOF 7
ENDMDL
MODEL 3
REMARK VINA RESULT:      -7.6      2.607      8.033
REMARK  Name = 
REMARK  8 active torsions:
REMARK  status: ('A' for Active; 'I' for Inactive)
REMARK    1  A    between atoms: C_1  and  O_2
REMARK    2  A    between atoms: O_2  and  C_3
REMARK    3  A    between atoms: C_6  and  C_7
REMARK    4  A    between atoms: C_7  and  C_8
REMARK    5  A    between atoms: C_13  and  C_14
REMARK    6  A    between atoms: C_14  and  O_16
REMARK    7  A    between atoms: C_21  and  O_22
REMARK    8  A    between atoms: O_22  and  C_23
REMARK                            x       y       z     vdW  Elec       q    Type
REMARK                         _______ _______ _______ _____ _____    ______ ____
ROOT
ATOM      1  C   UNL     1       3.343   6.989  18.275  0.00  0.00    +0.000 A 
ATOM      2  C   UNL     1       2.946   8.091  17.503  0.00  0.00    +0.000 A 
ATOM      3  C   UNL     1       2.037   9.025  17.992  0.00  0.00    +0.000 A 
ATOM      4  C   UNL     1       1.467   8.878  19.265  0.00  0.00    +0.000 A 
ATOM      5  C   UNL     1       1.752   7.690  19.951  0.00  0.00    +0.000 A 
ATOM      6  C   UNL     1       2.672   6.739  19.471  0.00  0.00    +0.000 A 
ENDROOT
BRANCH   4   7
ATOM      7  C   UNL     1       0.644  10.029  19.844  0.00  0.00    +0.000 C 
ATOM      8  C   UNL     1       1.162  11.383  19.275  0.00  0.00    +0.000 C 
ATOM      9  C   UNL     1      -0.043  12.308  19.187  0.00  0.00    +0.000 C 
ATOM     10  C   UNL     1      -0.462  12.983  20.491  0.00  0.00    +0.000 C 
ATOM     11  C   UNL     1      -1.995  12.998  20.489  0.00  0.00    +0.000 C 
ATOM     12  C   UNL     1      -2.437  12.092  19.325  0.00  0.00    +0.000 C 
ATOM     13  C   UNL     1      -1.186  11.376  18.836  0.00  0.00    +0.000 C 
ATOM     14  C   UNL     1      -0.886  10.055  19.557  0.00  0.00    +0.000 C 
BRANCH   7  15
ATOM     15  C   UNL     1       0.827  10.016  21.327  0.00  0.00    +0.000 C 
ATOM     16  N   UNL     1       0.989  10.049  22.475  0.00  0.00    +0.000 NA
ENDBRANCH   7  15
BRANCH  11  17
ATOM     17  C   UNL     1      -2.560  12.558  21.831  0.00  0.00    +0.000 C 
ATOM     18  O   UNL     1      -3.700  12.761  22.214  0.00  0.00    +0.000 OA
BRANCH  17  19
ATOM     19  O   UNL     1      -1.642  11.937  22.608  0.00  0.00    +0.000 OA
ATOM     20  H   UNL     1      -0.812  12.433  22.729  0.00  0.00    +0.000 HD
ENDBRANCH  17  19
ENDBRANCH  11  17
ENDBRANCH   4   7
BRANCH   1  22
ATOM     21  C   UNL     1       4.896   6.531  16.578  0.00  0.00    +0.000 C 
ATOM     22  O   UNL     1       4.366   6.176  17.860  0.00  0.00    +0.000 OA
ENDBRANCH   1  22
BRANCH   6  23
ATOM     23  O   UNL     1       2.734   5.662  20.305  0.00  0.00    +0.000 OA
BRANCH  23  24
ATOM     24  C   UNL     1       1.635   4.800  20.563  0.00  0.00    +0.000 C 
ATOM     25  C   UNL     1       1.256   4.005  19.318  0.00  0.00    +0.000 C 
ATOM     26  C   UNL     1       0.922   2.602  19.795  0.00  0.00    +0.000 C 
ATOM     27  C   UNL     1       1.780   2.370  21.026  0.00  0.00    +0.000 C 
ATOM     28  C   UNL     1       2.141   3.749  21.565  0.00  0.00    +0.000 C 
ENDBRANCH  23  24
ENDBRANCH   6  23
TORSDOF 7
ENDMDL
MODEL 4
REMARK VINA RESULT:      -7.6      1.198      1.749
REMARK  Name = 
REMARK  8 active torsions:
REMARK  status: ('A' for Active; 'I' for Inactive)
REMARK    1  A    between atoms: C_1  and  O_2
REMARK    2  A    between atoms: O_2  and  C_3
REMARK    3  A    between atoms: C_6  and  C_7
REMARK    4  A    between atoms: C_7  and  C_8
REMARK    5  A    between atoms: C_13  and  C_14
REMARK    6  A    between atoms: C_14  and  O_16
REMARK    7  A    between atoms: C_21  and  O_22
REMARK    8  A    between atoms: O_22  and  C_23
REMARK                            x       y       z     vdW  Elec       q    Type
REMARK                         _______ _______ _______ _____ _____    ______ ____
ROOT
ATOM      1  C   UNL     1       1.468   9.971  18.652  0.00  0.00    +0.000 A 
ATOM      2  C   UNL     1       2.111   9.326  17.584  0.00  0.00    +0.000 A 
ATOM      3  C   UNL     1       2.512   7.996  17.681  0.00  0.00    +0.000 A 
ATOM      4  C   UNL     1       2.313   7.267  18.862  0.00  0.00    +0.000 A 
ATOM      5  C   UNL     1       1.819   7.975  19.966  0.00  0.00    +0.000 A 
ATOM      6  C   UNL     1       1.403   9.318  19.882  0.00  0.00    +0.000 A 
ENDROOT
BRANCH   4   7
ATOM      7  C   UNL     1       2.573   5.761  18.854  0.00  0.00    +0.000 C 
ATOM      8  C   UNL     1       1.535   5.054  17.932  0.00  0.00    +0.000 C 
ATOM      9  C   UNL     1       2.240   3.848  17.329  0.00  0.00    +0.000 C 
ATOM     10  C   UNL     1       2.330   2.613  18.221  0.00  0.00    +0.000 C 
ATOM     11  C   UNL     1       3.716   2.005  17.967  0.00  0.00    +0.000 C 
ATOM     12  C   UNL     1       4.501   3.044  17.146  0.00  0.00    +0.000 C 
ATOM     13  C   UNL     1       3.670   4.318  17.152  0.00  0.00    +0.000 C 
ATOM     14  C   UNL     1       3.951   5.256  18.333  0.00  0.00    +0.000 C 
BRANCH   7  15
ATOM     15  C   UNL     1       2.407   5.263  20.254  0.00  0.00    +0.000 C 
ATOM     16  N   UNL     1       2.252   4.841  21.323  0.00  0.00    +0.000 NA
ENDBRANCH   7  15
BRANCH  11  17
ATOM     17  C   UNL     1       4.408   1.629  19.267  0.00  0.00    +0.000 C 
ATOM     18  O   UNL     1       4.602   2.386  20.205  0.00  0.00    +0.000 OA
BRANCH  17  19
ATOM     19  O   UNL     1       4.844   0.348  19.278  0.00  0.00    +0.000 OA
ATOM     20  H   UNL     1       4.136  -0.321  19.299  0.00  0.00    +0.000 HD
ENDBRANCH  17  19
ENDBRANCH  11  17
ENDBRANCH   4   7
BRANCH   1  22
ATOM     21  C   UNL     1       1.859  12.284  18.656  0.00  0.00    +0.000 C 
ATOM     22  O   UNL     1       0.919  11.216  18.488  0.00  0.00    +0.000 OA
ENDBRANCH   1  22
BRANCH   6  23
ATOM     23  O   UNL     1       1.005   9.778  21.102  0.00  0.00    +0.000 OA
BRANCH  23  24
ATOM     24  C   UNL     1      -0.356   9.929  21.482  0.00  0.00    +0.000 C 
ATOM     25  C   UNL     1      -0.513   9.869  22.999  0.00  0.00    +0.000 C 
ATOM     26  C   UNL     1      -1.544  10.925  23.360  0.00  0.00    +0.000 C 
ATOM     27  C   UNL     1      -1.402  12.015  22.314  0.00  0.00    +0.000 C 
ATOM     28  C   UNL     1      -0.750  11.365  21.099  0.00  0.00    +0.000 C 
ENDBRANCH  23  24
ENDBRANCH   6  23
TORSDOF 7
ENDMDL
MODEL 5
REMARK VINA RESULT:      -7.4      0.519      1.057
REMARK  Name = 
REMARK  8 active torsions:
REMARK  status: ('A' for Active; 'I' for Inactive)
REMARK    1  A    between atoms: C_1  and  O_2
REMARK    2  A    between atoms: O_2  and  C_3
REMARK    3  A    between atoms: C_6  and  C_7
REMARK    4  A    between atoms: C_7  and  C_8
REMARK    5  A    between atoms: C_13  and  C_14
REMARK    6  A    between atoms: C_14  and  O_16
REMARK    7  A    between atoms: C_21  and  O_22
REMARK    8  A    between atoms: O_22  and  C_23
REMARK                            x       y       z     vdW  Elec       q    Type
REMARK                         _______ _______ _______ _____ _____    ______ ____
ROOT
ATOM      1  C   UNL     1       1.266  10.059  18.637  0.00  0.00    +0.000 A 
ATOM      2  C   UNL     1       2.339   9.463  17.957  0.00  0.00    +0.000 A 
ATOM      3  C   UNL     1       2.750   8.166  18.252  0.00  0.00    +0.000 A 
ATOM      4  C   UNL     1       2.121   7.423  19.261  0.00  0.00    +0.000 A 
ATOM      5  C   UNL     1       1.162   8.091  20.034  0.00  0.00    +0.000 A 
ATOM      6  C   UNL     1       0.733   9.401  19.744  0.00  0.00    +0.000 A 
ENDROOT
BRANCH   4   7
ATOM      7  C   UNL     1       2.459   5.939  19.406  0.00  0.00    +0.000 C 
ATOM      8  C   UNL     1       1.837   5.385  20.723  0.00  0.00    +0.000 C 
ATOM      9  C   UNL     1       1.486   3.929  20.458  0.00  0.00    +0.000 C 
ATOM     10  C   UNL     1       2.642   2.936  20.554  0.00  0.00    +0.000 C 
ATOM     11  C   UNL     1       2.419   1.915  19.431  0.00  0.00    +0.000 C 
ATOM     12  C   UNL     1       1.300   2.485  18.541  0.00  0.00    +0.000 C 
ATOM     13  C   UNL     1       1.070   3.917  19.001  0.00  0.00    +0.000 C 
ATOM     14  C   UNL     1       1.954   4.960  18.305  0.00  0.00    +0.000 C 
BRANCH   7  15
ATOM     15  C   UNL     1       3.946   5.816  19.475  0.00  0.00    +0.000 C 
ATOM     16  N   UNL     1       5.105   5.765  19.513  0.00  0.00    +0.000 NA
ENDBRANCH   7  15
BRANCH  11  17
ATOM     17  C   UNL     1       3.703   1.636  18.666  0.00  0.00    +0.000 C 
ATOM     18  O   UNL     1       4.072   0.536  18.288  0.00  0.00    +0.000 OA
BRANCH  17  19
ATOM     19  O   UNL     1       4.450   2.749  18.472  0.00  0.00    +0.000 OA
ATOM     20  H   UNL     1       3.934   3.560  18.311  0.00  0.00    +0.000 HD
ENDBRANCH  17  19
ENDBRANCH  11  17
ENDBRANCH   4   7
BRANCH   1  22
ATOM     21  C   UNL     1       1.687  12.346  18.325  0.00  0.00    +0.000 C 
ATOM     22  O   UNL     1       0.755  11.262  18.222  0.00  0.00    +0.000 OA
ENDBRANCH   1  22
BRANCH   6  23
ATOM     23  O   UNL     1      -0.172   9.829  20.671  0.00  0.00    +0.000 OA
BRANCH  23  24
ATOM     24  C   UNL     1       0.136  10.754  21.704  0.00  0.00    +0.000 C 
ATOM     25  C   UNL     1      -0.203  12.181  21.284  0.00  0.00    +0.000 C 
ATOM     26  C   UNL     1      -0.805  12.852  22.507  0.00  0.00    +0.000 C 
ATOM     27  C   UNL     1      -1.491  11.746  23.288  0.00  0.00    +0.000 C 
ATOM     28  C   UNL     1      -0.830  10.442  22.859  0.00  0.00    +0.000 C 
ENDBRANCH  23  24
ENDBRANCH   6  23
TORSDOF 7
ENDMDL
MODEL 6
REMARK VINA RESULT:      -7.2      2.562      8.168
REMARK  Name = 
REMARK  8 active torsions:
REMARK  status: ('A' for Active; 'I' for Inactive)
REMARK    1  A    between atoms: C_1  and  O_2
REMARK    2  A    between atoms: O_2  and  C_3
REMARK    3  A    between atoms: C_6  and  C_7
REMARK    4  A    between atoms: C_7  and  C_8
REMARK    5  A    between atoms: C_13  and  C_14
REMARK    6  A    between atoms: C_14  and  O_16
REMARK    7  A    between atoms: C_21  and  O_22
REMARK    8  A    between atoms: O_22  and  C_23
REMARK                            x       y       z     vdW  Elec       q    Type
REMARK                         _______ _______ _______ _____ _____    ______ ____
ROOT
ATOM      1  C   UNL     1       3.112   6.997  18.210  0.00  0.00    +0.000 A 
ATOM      2  C   UNL     1       2.755   8.094  17.412  0.00  0.00    +0.000 A 
ATOM      3  C   UNL     1       1.978   9.132  17.918  0.00  0.00    +0.000 A 
ATOM      4  C   UNL     1       1.501   9.099  19.237  0.00  0.00    +0.000 A 
ATOM      5  C   UNL     1       1.731   7.923  19.963  0.00  0.00    +0.000 A 
ATOM      6  C   UNL     1       2.520   6.868  19.466  0.00  0.00    +0.000 A 
ENDROOT
BRANCH   4   7
ATOM      7  C   UNL     1       0.836  10.348  19.814  0.00  0.00    +0.000 C 
ATOM      8  C   UNL     1      -0.665  10.385  19.397  0.00  0.00    +0.000 C 
ATOM      9  C   UNL     1      -1.416  11.065  20.533  0.00  0.00    +0.000 C 
ATOM     10  C   UNL     1      -1.355  12.590  20.554  0.00  0.00    +0.000 C 
ATOM     11  C   UNL     1      -1.240  12.991  22.030  0.00  0.00    +0.000 C 
ATOM     12  C   UNL     1      -0.961  11.694  22.811  0.00  0.00    +0.000 C 
ATOM     13  C   UNL     1      -0.670  10.619  21.774  0.00  0.00    +0.000 C 
ATOM     14  C   UNL     1       0.805  10.514  21.363  0.00  0.00    +0.000 C 
BRANCH   7  15
ATOM     15  C   UNL     1       1.534  11.540  19.245  0.00  0.00    +0.000 C 
ATOM     16  N   UNL     1       2.038  12.492  18.814  0.00  0.00    +0.000 NA
ENDBRANCH   7  15
BRANCH  11  17
ATOM     17  C   UNL     1      -0.171  14.052  22.239  0.00  0.00    +0.000 C 
ATOM     18  O   UNL     1       1.024  13.892  22.054  0.00  0.00    +0.000 OA
BRANCH  17  19
ATOM     19  O   UNL     1      -0.674  15.218  22.707  0.00  0.00    +0.000 OA
ATOM     20  H   UNL     1      -0.609  15.328  23.673  0.00  0.00    +0.000 HD
ENDBRANCH  17  19
ENDBRANCH  11  17
ENDBRANCH   4   7
BRANCH   1  22
ATOM     21  C   UNL     1       4.776   6.513  16.629  0.00  0.00    +0.000 C 
ATOM     22  O   UNL     1       4.020   6.072  17.763  0.00  0.00    +0.000 OA
ENDBRANCH   1  22
BRANCH   6  23
ATOM     23  O   UNL     1       2.551   5.829  20.350  0.00  0.00    +0.000 OA
BRANCH  23  24
ATOM     24  C   UNL     1       1.511   4.870  20.476  0.00  0.00    +0.000 C 
ATOM     25  C   UNL     1       1.306   4.107  19.171  0.00  0.00    +0.000 C 
ATOM     26  C   UNL     1       1.054   2.660  19.561  0.00  0.00    +0.000 C 
ATOM     27  C   UNL     1       1.823   2.441  20.851  0.00  0.00    +0.000 C 
ATOM     28  C   UNL     1       2.020   3.817  21.475  0.00  0.00    +0.000 C 
ENDBRANCH  23  24
ENDBRANCH   6  23
TORSDOF 7
ENDMDL
MODEL 7
REMARK VINA RESULT:      -7.2      0.793      1.220
REMARK  Name = 
REMARK  8 active torsions:
REMARK  status: ('A' for Active; 'I' for Inactive)
REMARK    1  A    between atoms: C_1  and  O_2
REMARK    2  A    between atoms: O_2  and  C_3
REMARK    3  A    between atoms: C_6  and  C_7
REMARK    4  A    between atoms: C_7  and  C_8
REMARK    5  A    between atoms: C_13  and  C_14
REMARK    6  A    between atoms: C_14  and  O_16
REMARK    7  A    between atoms: C_21  and  O_22
REMARK    8  A    between atoms: O_22  and  C_23
REMARK                            x       y       z     vdW  Elec       q    Type
REMARK                         _______ _______ _______ _____ _____    ______ ____
ROOT
ATOM      1  C   UNL     1       1.632  10.137  18.601  0.00  0.00    +0.000 A 
ATOM      2  C   UNL     1       2.451   9.430  17.708  0.00  0.00    +0.000 A 
ATOM      3  C   UNL     1       2.806   8.105  17.948  0.00  0.00    +0.000 A 
ATOM      4  C   UNL     1       2.379   7.444  19.109  0.00  0.00    +0.000 A 
ATOM      5  C   UNL     1       1.700   8.214  20.062  0.00  0.00    +0.000 A 
ATOM      6  C   UNL     1       1.330   9.553  19.831  0.00  0.00    +0.000 A 
ENDROOT
BRANCH   4   7
ATOM      7  C   UNL     1       2.611   5.938  19.229  0.00  0.00    +0.000 C 
ATOM      8  C   UNL     1       2.043   5.425  20.586  0.00  0.00    +0.000 C 
ATOM      9  C   UNL     1       1.562   4.002  20.347  0.00  0.00    +0.000 C 
ATOM     10  C   UNL     1       2.642   2.922  20.360  0.00  0.00    +0.000 C 
ATOM     11  C   UNL     1       2.262   1.928  19.256  0.00  0.00    +0.000 C 
ATOM     12  C   UNL     1       1.130   2.588  18.447  0.00  0.00    +0.000 C 
ATOM     13  C   UNL     1       1.044   4.031  18.924  0.00  0.00    +0.000 C 
ATOM     14  C   UNL     1       1.955   5.007  18.166  0.00  0.00    +0.000 C 
BRANCH   7  15
ATOM     15  C   UNL     1       4.086   5.699  19.191  0.00  0.00    +0.000 C 
ATOM     16  N   UNL     1       5.233   5.528  19.208  0.00  0.00    +0.000 NA
ENDBRANCH   7  15
BRANCH  11  17
ATOM     17  C   UNL     1       3.463   1.556  18.401  0.00  0.00    +0.000 C 
ATOM     18  O   UNL     1       3.886   2.208  17.460  0.00  0.00    +0.000 OA
BRANCH  17  19
ATOM     19  O   UNL     1       4.016   0.374  18.760  0.00  0.00    +0.000 OA
ATOM     20  H   UNL     1       4.384  -0.142  18.019  0.00  0.00    +0.000 HD
ENDBRANCH  17  19
ENDBRANCH  11  17
ENDBRANCH   4   7
BRANCH   1  22
ATOM     21  C   UNL     1       2.041  12.447  18.587  0.00  0.00    +0.000 C 
ATOM     22  O   UNL     1       1.144  11.375  18.273  0.00  0.00    +0.000 OA
ENDBRANCH   1  22
BRANCH   6  23
ATOM     23  O   UNL     1       0.720  10.083  20.930  0.00  0.00    +0.000 OA
BRANCH  23  24
ATOM     24  C   UNL     1      -0.659  10.422  20.979  0.00  0.00    +0.000 C 
ATOM     25  C   UNL     1      -0.850  11.932  21.084  0.00  0.00    +0.000 C 
ATOM     26  C   UNL     1      -2.031  12.273  20.191  0.00  0.00    +0.000 C 
ATOM     27  C   UNL     1      -2.015  11.244  19.076  0.00  0.00    +0.000 C 
ATOM     28  C   UNL     1      -1.242  10.043  19.608  0.00  0.00    +0.000 C 
ENDBRANCH  23  24
ENDBRANCH   6  23
TORSDOF 7
ENDMDL
MODEL 8
REMARK VINA RESULT:      -7.1      2.686      8.239
REMARK  Name = 
REMARK  8 active torsions:
REMARK  status: ('A' for Active; 'I' for Inactive)
REMARK    1  A    between atoms: C_1  and  O_2
REMARK    2  A    between atoms: O_2  and  C_3
REMARK    3  A    between atoms: C_6  and  C_7
REMARK    4  A    between atoms: C_7  and  C_8
REMARK    5  A    between atoms: C_13  and  C_14
REMARK    6  A    between atoms: C_14  and  O_16
REMARK    7  A    between atoms: C_21  and  O_22
REMARK    8  A    between atoms: O_22  and  C_23
REMARK                            x       y       z     vdW  Elec       q    Type
REMARK                         _______ _______ _______ _____ _____    ______ ____
ROOT
ATOM      1  C   UNL     1       3.345   6.951  18.253  0.00  0.00    +0.000 A 
ATOM      2  C   UNL     1       2.993   8.006  17.397  0.00  0.00    +0.000 A 
ATOM      3  C   UNL     1       2.070   8.973  17.784  0.00  0.00    +0.000 A 
ATOM      4  C   UNL     1       1.439   8.907  19.035  0.00  0.00    +0.000 A 
ATOM      5  C   UNL     1       1.682   7.762  19.806  0.00  0.00    +0.000 A 
ATOM      6  C   UNL     1       2.617   6.779  19.430  0.00  0.00    +0.000 A 
ENDROOT
BRANCH   4   7
ATOM      7  C   UNL     1       0.599  10.095  19.503  0.00  0.00    +0.000 C 
ATOM      8  C   UNL     1       0.041   9.814  20.931  0.00  0.00    +0.000 C 
ATOM      9  C   UNL     1      -0.048  11.160  21.635  0.00  0.00    +0.000 C 
ATOM     10  C   UNL     1      -1.269  12.011  21.295  0.00  0.00    +0.000 C 
ATOM     11  C   UNL     1      -0.773  13.461  21.232  0.00  0.00    +0.000 C 
ATOM     12  C   UNL     1       0.765  13.395  21.265  0.00  0.00    +0.000 C 
ATOM     13  C   UNL     1       1.139  11.930  21.092  0.00  0.00    +0.000 C 
ATOM     14  C   UNL     1       1.297  11.481  19.633  0.00  0.00    +0.000 C 
BRANCH   7  15
ATOM     15  C   UNL     1      -0.542  10.250  18.551  0.00  0.00    +0.000 C 
ATOM     16  N   UNL     1      -1.399  10.357  17.776  0.00  0.00    +0.000 NA
ENDBRANCH   7  15
BRANCH  11  17
ATOM     17  C   UNL     1      -1.311  14.183  20.007  0.00  0.00    +0.000 C 
ATOM     18  O   UNL     1      -0.668  14.435  19.001  0.00  0.00    +0.000 OA
BRANCH  17  19
ATOM     19  O   UNL     1      -2.598  14.574  20.152  0.00  0.00    +0.000 OA
ATOM     20  H   UNL     1      -2.724  15.341  20.741  0.00  0.00    +0.000 HD
ENDBRANCH  17  19
ENDBRANCH  11  17
ENDBRANCH   4   7
BRANCH   1  22
ATOM     21  C   UNL     1       4.891   6.300  16.613  0.00  0.00    +0.000 C 
ATOM     22  O   UNL     1       4.380   6.110  17.938  0.00  0.00    +0.000 OA
ENDBRANCH   1  22
BRANCH   6  23
ATOM     23  O   UNL     1       2.631   5.755  20.330  0.00  0.00    +0.000 OA
BRANCH  23  24
ATOM     24  C   UNL     1       1.553   4.847  20.509  0.00  0.00    +0.000 C 
ATOM     25  C   UNL     1       1.281   4.058  19.232  0.00  0.00    +0.000 C 
ATOM     26  C   UNL     1       0.975   2.636  19.669  0.00  0.00    +0.000 C 
ATOM     27  C   UNL     1       1.767   2.418  20.945  0.00  0.00    +0.000 C 
ATOM     28  C   UNL     1       2.040   3.800  21.525  0.00  0.00    +0.000 C 
ENDBRANCH  23  24
ENDBRANCH   6  23
TORSDOF 7
ENDMDL
MODEL 9
REMARK VINA RESULT:      -7.0      2.379      8.080
REMARK  Name = 
REMARK  8 active torsions:
REMARK  status: ('A' for Active; 'I' for Inactive)
REMARK    1  A    between atoms: C_1  and  O_2
REMARK    2  A    between atoms: O_2  and  C_3
REMARK    3  A    between atoms: C_6  and  C_7
REMARK    4  A    between atoms: C_7  and  C_8
REMARK    5  A    between atoms: C_13  and  C_14
REMARK    6  A    between atoms: C_14  and  O_16
REMARK    7  A    between atoms: C_21  and  O_22
REMARK    8  A    between atoms: O_22  and  C_23
REMARK                            x       y       z     vdW  Elec       q    Type
REMARK                         _______ _______ _______ _____ _____    ______ ____
ROOT
ATOM      1  C   UNL     1       3.530   6.168  18.835  0.00  0.00    +0.000 A 
ATOM      2  C   UNL     1       3.548   7.062  17.753  0.00  0.00    +0.000 A 
ATOM      3  C   UNL     1       2.728   8.187  17.734  0.00  0.00    +0.000 A 
ATOM      4  C   UNL     1       1.835   8.447  18.783  0.00  0.00    +0.000 A 
ATOM      5  C   UNL     1       1.717   7.461  19.771  0.00  0.00    +0.000 A 
ATOM      6  C   UNL     1       2.543   6.321  19.807  0.00  0.00    +0.000 A 
ENDROOT
BRANCH   4   7
ATOM      7  C   UNL     1       1.113   9.794  18.824  0.00  0.00    +0.000 C 
ATOM      8  C   UNL     1      -0.190   9.717  17.974  0.00  0.00    +0.000 C 
ATOM      9  C   UNL     1      -1.197  10.645  18.638  0.00  0.00    +0.000 C 
ATOM     10  C   UNL     1      -1.044  12.131  18.320  0.00  0.00    +0.000 C 
ATOM     11  C   UNL     1      -1.345  12.878  19.625  0.00  0.00    +0.000 C 
ATOM     12  C   UNL     1      -1.397  11.812  20.734  0.00  0.00    +0.000 C 
ATOM     13  C   UNL     1      -0.884  10.520  20.115  0.00  0.00    +0.000 C 
ATOM     14  C   UNL     1       0.636  10.329  20.207  0.00  0.00    +0.000 C 
BRANCH   7  15
ATOM     15  C   UNL     1       2.027  10.818  18.232  0.00  0.00    +0.000 C 
ATOM     16  N   UNL     1       2.769  11.599  17.803  0.00  0.00    +0.000 NA
ENDBRANCH   7  15
BRANCH  11  17
ATOM     17  C   UNL     1      -0.318  13.967  19.895  0.00  0.00    +0.000 C 
ATOM     18  O   UNL     1      -0.493  14.934  20.618  0.00  0.00    +0.000 OA
BRANCH  17  19
ATOM     19  O   UNL     1       0.833  13.785  19.206  0.00  0.00    +0.000 OA
ATOM     20  H   UNL     1       1.212  12.891  19.280  0.00  0.00    +0.000 HD
ENDBRANCH  17  19
ENDBRANCH  11  17
ENDBRANCH   4   7
BRANCH   1  22
ATOM     21  C   UNL     1       4.798   4.575  17.669  0.00  0.00    +0.000 C 
ATOM     22  O   UNL     1       4.461   5.167  18.930  0.00  0.00    +0.000 OA
ENDBRANCH   1  22
BRANCH   6  23
ATOM     23  O   UNL     1       2.195   5.504  20.843  0.00  0.00    +0.000 OA
BRANCH  23  24
ATOM     24  C   UNL     1       1.515   4.268  20.678  0.00  0.00    +0.000 C 
ATOM     25  C   UNL     1       1.127   4.044  19.219  0.00  0.00    +0.000 C 
ATOM     26  C   UNL     1       1.373   2.572  18.935  0.00  0.00    +0.000 C 
ATOM     27  C   UNL     1       2.522   2.165  19.840  0.00  0.00    +0.000 C 
ATOM     28  C   UNL     1       2.546   3.168  20.986  0.00  0.00    +0.000 C 
ENDBRANCH  23  24
ENDBRANCH   6  23
TORSDOF 7
ENDMDL
