MODEL 1
REMARK VINA RESULT:      -8.2      0.000      0.000
REMARK  Name = 
REMARK  9 active torsions:
REMARK  status: ('A' for Active; 'I' for Inactive)
REMARK    1  A    between atoms: C_2  and  C_3
REMARK    2  A    between atoms: N_5  and  C_6
REMARK    3  A    between atoms: C_9  and  C_10
REMARK    4  A    between atoms: C_10  and  O_12
REMARK    5  A    between atoms: C_13  and  O_14
REMARK    6  A    between atoms: C_17  and  C_18
REMARK    7  A    between atoms: C_21  and  C_22
REMARK    8  A    between atoms: C_22  and  O_23
REMARK    9  A    between atoms: O_23  and  C_24
REMARK                            x       y       z     vdW  Elec       q    Type
REMARK                         _______ _______ _______ _____ _____    ______ ____
ROOT
ATOM      1  C   UNL     1       0.910  12.113  19.478  0.00  0.00    +0.000 A 
ATOM      2  C   UNL     1      -0.125  12.830  20.056  0.00  0.00    +0.000 A 
ATOM      3  N   UNL     1      -0.969  11.950  20.697  0.00  0.00    +0.000 N 
ATOM      4  C   UNL     1      -0.496  10.675  20.464  0.00  0.00    +0.000 A 
ATOM      5  C   UNL     1       0.664  10.730  19.713  0.00  0.00    +0.000 A 
ENDROOT
BRANCH   3   6
ATOM      6  C   UNL     1      -2.124  12.264  21.463  0.00  0.00    +0.000 A 
ATOM      7  C   UNL     1      -2.135  11.962  22.832  0.00  0.00    +0.000 A 
ATOM      8  C   UNL     1      -3.259  12.243  23.608  0.00  0.00    +0.000 A 
ATOM      9  C   UNL     1      -4.403  12.799  23.028  0.00  0.00    +0.000 A 
ATOM     10  C   UNL     1      -4.392  13.072  21.654  0.00  0.00    +0.000 A 
ATOM     11  C   UNL     1      -3.253  12.847  20.872  0.00  0.00    +0.000 A 
BRANCH   9  12
ATOM     12  C   UNL     1      -5.567  13.041  23.922  0.00  0.00    +0.000 C 
ATOM     13  O   UNL     1      -6.168  12.136  24.475  0.00  0.00    +0.000 OA
BRANCH  12  14
ATOM     14  O   UNL     1      -5.917  14.336  24.060  0.00  0.00    +0.000 OA
ATOM     15  H   UNL     1      -6.817  14.538  23.724  0.00  0.00    +0.000 HD
ENDBRANCH  12  14
ENDBRANCH   9  12
BRANCH  10  16
ATOM     16  O   UNL     1      -5.509  13.544  21.016  0.00  0.00    +0.000 OA
ATOM     17  H   UNL     1      -5.805  14.330  21.524  0.00  0.00    +0.000 HD
ENDBRANCH  10  16
ENDBRANCH   3   6
BRANCH   5  18
ATOM     18  C   UNL     1       1.373   9.527  19.290  0.00  0.00    +0.000 A 
ATOM     19  C   UNL     1       1.575   8.461  20.183  0.00  0.00    +0.000 A 
ATOM     20  C   UNL     1       2.173   7.272  19.759  0.00  0.00    +0.000 A 
ATOM     21  C   UNL     1       2.577   7.122  18.429  0.00  0.00    +0.000 A 
ATOM     22  C   UNL     1       2.431   8.203  17.551  0.00  0.00    +0.000 A 
ATOM     23  C   UNL     1       1.841   9.395  17.979  0.00  0.00    +0.000 A 
BRANCH  21  24
ATOM     24  C   UNL     1       3.088   5.800  17.919  0.00  0.00    +0.000 C 
BRANCH  24  25
ATOM     25  O   UNL     1       2.042   4.833  18.072  0.00  0.00    +0.000 OA
BRANCH  25  26
ATOM     26  C   UNL     1       2.196   4.011  19.155  0.00  0.00    +0.000 A 
ATOM     27  C   UNL     1       1.063   3.812  19.947  0.00  0.00    +0.000 A 
ATOM     28  C   UNL     1       1.152   3.052  21.116  0.00  0.00    +0.000 A 
ATOM     29  C   UNL     1       2.367   2.474  21.480  0.00  0.00    +0.000 A 
ATOM     30  C   UNL     1       3.481   2.618  20.656  0.00  0.00    +0.000 A 
ATOM     31  C   UNL     1       3.392   3.373  19.487  0.00  0.00    +0.000 A 
ENDBRANCH  25  26
ENDBRANCH  24  25
ENDBRANCH  21  24
ENDBRANCH   5  18
BRANCH   1  33
ATOM     32  N   UNL     1       2.893  13.197  18.202  0.00  0.00    +0.000 NA
ATOM     33  C   UNL     1       2.003  12.724  18.766  0.00  0.00    +0.000 C 
ENDBRANCH   1  33
TORSDOF 9
ENDMDL
MODEL 2
REMARK VINA RESULT:      -8.1      4.687      6.753
REMARK  Name = 
REMARK  9 active torsions:
REMARK  status: ('A' for Active; 'I' for Inactive)
REMARK    1  A    between atoms: C_2  and  C_3
REMARK    2  A    between atoms: N_5  and  C_6
REMARK    3  A    between atoms: C_9  and  C_10
REMARK    4  A    between atoms: C_10  and  O_12
REMARK    5  A    between atoms: C_13  and  O_14
REMARK    6  A    between atoms: C_17  and  C_18
REMARK    7  A    between atoms: C_21  and  C_22
REMARK    8  A    between atoms: C_22  and  O_23
REMARK    9  A    between atoms: O_23  and  C_24
REMARK                            x       y       z     vdW  Elec       q    Type
REMARK                         _______ _______ _______ _____ _____    ______ ____
ROOT
ATOM      1  C   UNL     1       2.322   5.334  19.997  0.00  0.00    +0.000 A 
ATOM      2  C   UNL     1       1.621   6.218  20.802  0.00  0.00    +0.000 A 
ATOM      3  N   UNL     1       1.694   7.476  20.246  0.00  0.00    +0.000 N 
ATOM      4  C   UNL     1       2.496   7.391  19.127  0.00  0.00    +0.000 A 
ATOM      5  C   UNL     1       2.907   6.084  18.936  0.00  0.00    +0.000 A 
ENDROOT
BRANCH   3   6
ATOM      6  C   UNL     1       1.074   8.665  20.716  0.00  0.00    +0.000 A 
ATOM      7  C   UNL     1       1.031   9.787  19.876  0.00  0.00    +0.000 A 
ATOM      8  C   UNL     1       0.443  10.974  20.312  0.00  0.00    +0.000 A 
ATOM      9  C   UNL     1      -0.083  11.073  21.604  0.00  0.00    +0.000 A 
ATOM     10  C   UNL     1      -0.011   9.955  22.445  0.00  0.00    +0.000 A 
ATOM     11  C   UNL     1       0.526   8.740  22.003  0.00  0.00    +0.000 A 
BRANCH   9  12
ATOM     12  C   UNL     1      -0.667  12.384  21.998  0.00  0.00    +0.000 C 
ATOM     13  O   UNL     1      -0.381  12.941  23.044  0.00  0.00    +0.000 OA
BRANCH  12  14
ATOM     14  O   UNL     1      -1.551  12.899  21.119  0.00  0.00    +0.000 OA
ATOM     15  H   UNL     1      -2.463  12.556  21.232  0.00  0.00    +0.000 HD
ENDBRANCH  12  14
ENDBRANCH   9  12
BRANCH  10  16
ATOM     16  O   UNL     1      -0.439  10.017  23.745  0.00  0.00    +0.000 OA
ATOM     17  H   UNL     1      -1.419  10.073  23.710  0.00  0.00    +0.000 HD
ENDBRANCH  10  16
ENDBRANCH   3   6
BRANCH   5  18
ATOM     18  C   UNL     1       3.791   5.699  17.841  0.00  0.00    +0.000 A 
ATOM     19  C   UNL     1       4.598   6.655  17.201  0.00  0.00    +0.000 A 
ATOM     20  C   UNL     1       5.512   6.278  16.213  0.00  0.00    +0.000 A 
ATOM     21  C   UNL     1       5.641   4.934  15.849  0.00  0.00    +0.000 A 
ATOM     22  C   UNL     1       4.797   3.988  16.442  0.00  0.00    +0.000 A 
ATOM     23  C   UNL     1       3.877   4.368  17.423  0.00  0.00    +0.000 A 
BRANCH  21  24
ATOM     24  C   UNL     1       6.718   4.491  14.895  0.00  0.00    +0.000 C 
BRANCH  24  25
ATOM     25  O   UNL     1       6.322   4.875  13.572  0.00  0.00    +0.000 OA
BRANCH  25  26
ATOM     26  C   UNL     1       6.322   3.846  12.669  0.00  0.00    +0.000 A 
ATOM     27  C   UNL     1       5.075   3.306  12.347  0.00  0.00    +0.000 A 
ATOM     28  C   UNL     1       4.990   2.203  11.495  0.00  0.00    +0.000 A 
ATOM     29  C   UNL     1       6.149   1.653  10.950  0.00  0.00    +0.000 A 
ATOM     30  C   UNL     1       7.387   2.232  11.219  0.00  0.00    +0.000 A 
ATOM     31  C   UNL     1       7.472   3.336  12.066  0.00  0.00    +0.000 A 
ENDBRANCH  25  26
ENDBRANCH  24  25
ENDBRANCH  21  24
ENDBRANCH   5  18
BRANCH   1  33
ATOM     32  N   UNL     1       2.482   2.782  20.440  0.00  0.00    +0.000 NA
ATOM     33  C   UNL     1       2.412   3.920  20.255  0.00  0.00    +0.000 C 
ENDBRANCH   1  33
TORSDOF 9
ENDMDL
MODEL 3
REMARK VINA RESULT:      -8.1      4.191      6.122
REMARK  Name = 
REMARK  9 active torsions:
REMARK  status: ('A' for Active; 'I' for Inactive)
REMARK    1  A    between atoms: C_2  and  C_3
REMARK    2  A    between atoms: N_5  and  C_6
REMARK    3  A    between atoms: C_9  and  C_10
REMARK    4  A    between atoms: C_10  and  O_12
REMARK    5  A    between atoms: C_13  and  O_14
REMARK    6  A    between atoms: C_17  and  C_18
REMARK    7  A    between atoms: C_21  and  C_22
REMARK    8  A    between atoms: C_22  and  O_23
REMARK    9  A    between atoms: O_23  and  C_24
REMARK                            x       y       z     vdW  Elec       q    Type
REMARK                         _______ _______ _______ _____ _____    ______ ____
ROOT
ATOM      1  C   UNL     1       1.657   5.521  20.305  0.00  0.00    +0.000 A 
ATOM      2  C   UNL     1       0.794   6.353  21.000  0.00  0.00    +0.000 A 
ATOM      3  N   UNL     1       1.192   7.659  20.812  0.00  0.00    +0.000 N 
ATOM      4  C   UNL     1       2.343   7.638  20.052  0.00  0.00    +0.000 A 
ATOM      5  C   UNL     1       2.667   6.336  19.718  0.00  0.00    +0.000 A 
ENDROOT
BRANCH   3   6
ATOM      6  C   UNL     1       0.558   8.833  21.299  0.00  0.00    +0.000 A 
ATOM      7  C   UNL     1       0.087   8.854  22.620  0.00  0.00    +0.000 A 
ATOM      8  C   UNL     1      -0.554   9.985  23.124  0.00  0.00    +0.000 A 
ATOM      9  C   UNL     1      -0.766  11.103  22.312  0.00  0.00    +0.000 A 
ATOM     10  C   UNL     1      -0.316  11.062  20.985  0.00  0.00    +0.000 A 
ATOM     11  C   UNL     1       0.377   9.956  20.481  0.00  0.00    +0.000 A 
BRANCH   9  12
ATOM     12  C   UNL     1      -1.482  12.257  22.920  0.00  0.00    +0.000 C 
ATOM     13  O   UNL     1      -0.964  13.352  23.056  0.00  0.00    +0.000 OA
BRANCH  12  14
ATOM     14  O   UNL     1      -2.741  11.993  23.325  0.00  0.00    +0.000 OA
ATOM     15  H   UNL     1      -3.284  11.536  22.648  0.00  0.00    +0.000 HD
ENDBRANCH  12  14
ENDBRANCH   9  12
BRANCH  10  16
ATOM     16  O   UNL     1      -0.565  12.096  20.121  0.00  0.00    +0.000 OA
ATOM     17  H   UNL     1      -0.749  12.883  20.678  0.00  0.00    +0.000 HD
ENDBRANCH  10  16
ENDBRANCH   3   6
BRANCH   5  18
ATOM     18  C   UNL     1       3.856   6.006  18.939  0.00  0.00    +0.000 A 
ATOM     19  C   UNL     1       4.791   5.073  19.418  0.00  0.00    +0.000 A 
ATOM     20  C   UNL     1       5.885   4.686  18.638  0.00  0.00    +0.000 A 
ATOM     21  C   UNL     1       6.062   5.223  17.359  0.00  0.00    +0.000 A 
ATOM     22  C   UNL     1       5.166   6.196  16.904  0.00  0.00    +0.000 A 
ATOM     23  C   UNL     1       4.078   6.589  17.688  0.00  0.00    +0.000 A 
BRANCH  21  24
ATOM     24  C   UNL     1       7.148   4.712  16.450  0.00  0.00    +0.000 C 
BRANCH  24  25
ATOM     25  O   UNL     1       7.204   5.569  15.304  0.00  0.00    +0.000 OA
BRANCH  25  26
ATOM     26  C   UNL     1       6.957   4.932  14.118  0.00  0.00    +0.000 A 
ATOM     27  C   UNL     1       5.857   4.071  14.096  0.00  0.00    +0.000 A 
ATOM     28  C   UNL     1       5.579   3.320  12.952  0.00  0.00    +0.000 A 
ATOM     29  C   UNL     1       6.388   3.446  11.823  0.00  0.00    +0.000 A 
ATOM     30  C   UNL     1       7.445   4.353  11.822  0.00  0.00    +0.000 A 
ATOM     31  C   UNL     1       7.720   5.106  12.963  0.00  0.00    +0.000 A 
ENDBRANCH  25  26
ENDBRANCH  24  25
ENDBRANCH  21  24
ENDBRANCH   5  18
BRANCH   1  33
ATOM     32  N   UNL     1       1.383   2.942  20.216  0.00  0.00    +0.000 NA
ATOM     33  C   UNL     1       1.507   4.090  20.244  0.00  0.00    +0.000 C 
ENDBRANCH   1  33
TORSDOF 9
ENDMDL
MODEL 4
REMARK VINA RESULT:      -8.0      4.788      6.835
REMARK  Name = 
REMARK  9 active torsions:
REMARK  status: ('A' for Active; 'I' for Inactive)
REMARK    1  A    between atoms: C_2  and  C_3
REMARK    2  A    between atoms: N_5  and  C_6
REMARK    3  A    between atoms: C_9  and  C_10
REMARK    4  A    between atoms: C_10  and  O_12
REMARK    5  A    between atoms: C_13  and  O_14
REMARK    6  A    between atoms: C_17  and  C_18
REMARK    7  A    between atoms: C_21  and  C_22
REMARK    8  A    between atoms: C_22  and  O_23
REMARK    9  A    between atoms: O_23  and  C_24
REMARK                            x       y       z     vdW  Elec       q    Type
REMARK                         _______ _______ _______ _____ _____    ______ ____
ROOT
ATOM      1  C   UNL     1       2.613   5.191  19.791  0.00  0.00    +0.000 A 
ATOM      2  C   UNL     1       1.868   6.054  20.578  0.00  0.00    +0.000 A 
ATOM      3  N   UNL     1       1.863   7.299  19.987  0.00  0.00    +0.000 N 
ATOM      4  C   UNL     1       2.660   7.229  18.863  0.00  0.00    +0.000 A 
ATOM      5  C   UNL     1       3.145   5.944  18.705  0.00  0.00    +0.000 A 
ENDROOT
BRANCH   3   6
ATOM      6  C   UNL     1       1.177   8.462  20.429  0.00  0.00    +0.000 A 
ATOM      7  C   UNL     1       0.690   8.506  21.743  0.00  0.00    +0.000 A 
ATOM      8  C   UNL     1      -0.001   9.626  22.203  0.00  0.00    +0.000 A 
ATOM      9  C   UNL     1      -0.247  10.708  21.353  0.00  0.00    +0.000 A 
ATOM     10  C   UNL     1       0.220  10.643  20.033  0.00  0.00    +0.000 A 
ATOM     11  C   UNL     1       0.963   9.550  19.573  0.00  0.00    +0.000 A 
BRANCH   9  12
ATOM     12  C   UNL     1      -1.016  11.851  21.916  0.00  0.00    +0.000 C 
ATOM     13  O   UNL     1      -1.660  12.615  21.217  0.00  0.00    +0.000 OA
BRANCH  12  14
ATOM     14  O   UNL     1      -0.932  11.988  23.255  0.00  0.00    +0.000 OA
ATOM     15  H   UNL     1      -0.881  12.921  23.552  0.00  0.00    +0.000 HD
ENDBRANCH  12  14
ENDBRANCH   9  12
BRANCH  10  16
ATOM     16  O   UNL     1      -0.059  11.638  19.133  0.00  0.00    +0.000 OA
ATOM     17  H   UNL     1      -0.790  11.303  18.571  0.00  0.00    +0.000 HD
ENDBRANCH  10  16
ENDBRANCH   3   6
BRANCH   5  18
ATOM     18  C   UNL     1       4.042   5.580  17.612  0.00  0.00    +0.000 A 
ATOM     19  C   UNL     1       4.805   6.560  16.955  0.00  0.00    +0.000 A 
ATOM     20  C   UNL     1       5.731   6.207  15.970  0.00  0.00    +0.000 A 
ATOM     21  C   UNL     1       5.917   4.865  15.626  0.00  0.00    +0.000 A 
ATOM     22  C   UNL     1       5.116   3.893  16.236  0.00  0.00    +0.000 A 
ATOM     23  C   UNL     1       4.184   4.248  17.215  0.00  0.00    +0.000 A 
BRANCH  21  24
ATOM     24  C   UNL     1       7.010   4.454  14.674  0.00  0.00    +0.000 C 
BRANCH  24  25
ATOM     25  O   UNL     1       6.598   4.809  13.349  0.00  0.00    +0.000 OA
BRANCH  25  26
ATOM     26  C   UNL     1       6.470   3.742  12.501  0.00  0.00    +0.000 A 
ATOM     27  C   UNL     1       5.166   3.315  12.236  0.00  0.00    +0.000 A 
ATOM     28  C   UNL     1       4.948   2.185  11.445  0.00  0.00    +0.000 A 
ATOM     29  C   UNL     1       6.031   1.495  10.902  0.00  0.00    +0.000 A 
ATOM     30  C   UNL     1       7.327   1.959  11.112  0.00  0.00    +0.000 A 
ATOM     31  C   UNL     1       7.546   3.090  11.898  0.00  0.00    +0.000 A 
ENDBRANCH  25  26
ENDBRANCH  24  25
ENDBRANCH  21  24
ENDBRANCH   5  18
BRANCH   1  33
ATOM     32  N   UNL     1       2.951   2.673  20.321  0.00  0.00    +0.000 NA
ATOM     33  C   UNL     1       2.788   3.792  20.087  0.00  0.00    +0.000 C 
ENDBRANCH   1  33
TORSDOF 9
ENDMDL
MODEL 5
REMARK VINA RESULT:      -8.0      4.125      6.273
REMARK  Name = 
REMARK  9 active torsions:
REMARK  status: ('A' for Active; 'I' for Inactive)
REMARK    1  A    between atoms: C_2  and  C_3
REMARK    2  A    between atoms: N_5  and  C_6
REMARK    3  A    between atoms: C_9  and  C_10
REMARK    4  A    between atoms: C_10  and  O_12
REMARK    5  A    between atoms: C_13  and  O_14
REMARK    6  A    between atoms: C_17  and  C_18
REMARK    7  A    between atoms: C_21  and  C_22
REMARK    8  A    between atoms: C_22  and  O_23
REMARK    9  A    between atoms: O_23  and  C_24
REMARK                            x       y       z     vdW  Elec       q    Type
REMARK                         _______ _______ _______ _____ _____    ______ ____
ROOT
ATOM      1  C   UNL     1       1.910   5.807  20.612  0.00  0.00    +0.000 A 
ATOM      2  C   UNL     1       1.071   6.765  21.157  0.00  0.00    +0.000 A 
ATOM      3  N   UNL     1       1.238   7.945  20.468  0.00  0.00    +0.000 N 
ATOM      4  C   UNL     1       2.231   7.742  19.531  0.00  0.00    +0.000 A 
ATOM      5  C   UNL     1       2.675   6.434  19.587  0.00  0.00    +0.000 A 
ENDROOT
BRANCH   3   6
ATOM      6  C   UNL     1       0.537   9.166  20.662  0.00  0.00    +0.000 A 
ATOM      7  C   UNL     1       0.327  10.011  19.563  0.00  0.00    +0.000 A 
ATOM      8  C   UNL     1      -0.343  11.223  19.722  0.00  0.00    +0.000 A 
ATOM      9  C   UNL     1      -0.787  11.630  20.984  0.00  0.00    +0.000 A 
ATOM     10  C   UNL     1      -0.547  10.790  22.081  0.00  0.00    +0.000 A 
ATOM     11  C   UNL     1       0.074   9.546  21.928  0.00  0.00    +0.000 A 
BRANCH   9  12
ATOM     12  C   UNL     1      -1.468  12.950  21.071  0.00  0.00    +0.000 C 
ATOM     13  O   UNL     1      -2.290  13.318  20.250  0.00  0.00    +0.000 OA
BRANCH  12  14
ATOM     14  O   UNL     1      -1.095  13.713  22.118  0.00  0.00    +0.000 OA
ATOM     15  H   UNL     1      -0.824  13.195  22.906  0.00  0.00    +0.000 HD
ENDBRANCH  12  14
ENDBRANCH   9  12
BRANCH  10  16
ATOM     16  O   UNL     1      -0.889  11.171  23.353  0.00  0.00    +0.000 OA
ATOM     17  H   UNL     1      -1.057  10.342  23.852  0.00  0.00    +0.000 HD
ENDBRANCH  10  16
ENDBRANCH   3   6
BRANCH   5  18
ATOM     18  C   UNL     1       3.745   5.939  18.727  0.00  0.00    +0.000 A 
ATOM     19  C   UNL     1       4.174   6.683  17.615  0.00  0.00    +0.000 A 
ATOM     20  C   UNL     1       5.257   6.259  16.841  0.00  0.00    +0.000 A 
ATOM     21  C   UNL     1       5.938   5.083  17.168  0.00  0.00    +0.000 A 
ATOM     22  C   UNL     1       5.477   4.309  18.238  0.00  0.00    +0.000 A 
ATOM     23  C   UNL     1       4.388   4.729  19.006  0.00  0.00    +0.000 A 
BRANCH  21  24
ATOM     24  C   UNL     1       7.194   4.687  16.436  0.00  0.00    +0.000 C 
BRANCH  24  25
ATOM     25  O   UNL     1       7.330   5.543  15.296  0.00  0.00    +0.000 OA
BRANCH  25  26
ATOM     26  C   UNL     1       7.051   4.932  14.103  0.00  0.00    +0.000 A 
ATOM     27  C   UNL     1       5.970   4.047  14.099  0.00  0.00    +0.000 A 
ATOM     28  C   UNL     1       5.666   3.321  12.946  0.00  0.00    +0.000 A 
ATOM     29  C   UNL     1       6.428   3.496  11.791  0.00  0.00    +0.000 A 
ATOM     30  C   UNL     1       7.463   4.426  11.776  0.00  0.00    +0.000 A 
ATOM     31  C   UNL     1       7.766   5.154  12.926  0.00  0.00    +0.000 A 
ENDBRANCH  25  26
ENDBRANCH  24  25
ENDBRANCH  21  24
ENDBRANCH   5  18
BRANCH   1  33
ATOM     32  N   UNL     1       1.980   3.347  21.436  0.00  0.00    +0.000 NA
ATOM     33  C   UNL     1       1.957   4.439  21.061  0.00  0.00    +0.000 C 
ENDBRANCH   1  33
TORSDOF 9
ENDMDL
MODEL 6
REMARK VINA RESULT:      -8.0      2.397      3.418
REMARK  Name = 
REMARK  9 active torsions:
REMARK  status: ('A' for Active; 'I' for Inactive)
REMARK    1  A    between atoms: C_2  and  C_3
REMARK    2  A    between atoms: N_5  and  C_6
REMARK    3  A    between atoms: C_9  and  C_10
REMARK    4  A    between atoms: C_10  and  O_12
REMARK    5  A    between atoms: C_13  and  O_14
REMARK    6  A    between atoms: C_17  and  C_18
REMARK    7  A    between atoms: C_21  and  C_22
REMARK    8  A    between atoms: C_22  and  O_23
REMARK    9  A    between atoms: O_23  and  C_24
REMARK                            x       y       z     vdW  Elec       q    Type
REMARK                         _______ _______ _______ _____ _____    ______ ____
ROOT
ATOM      1  C   UNL     1       0.546  11.950  18.742  0.00  0.00    +0.000 A 
ATOM      2  C   UNL     1      -0.656  12.637  18.697  0.00  0.00    +0.000 A 
ATOM      3  N   UNL     1      -1.682  11.753  18.947  0.00  0.00    +0.000 N 
ATOM      4  C   UNL     1      -1.125  10.498  19.084  0.00  0.00    +0.000 A 
ATOM      5  C   UNL     1       0.250  10.574  18.964  0.00  0.00    +0.000 A 
ENDROOT
BRANCH   3   6
ATOM      6  C   UNL     1      -3.069  12.045  19.048  0.00  0.00    +0.000 A 
ATOM      7  C   UNL     1      -3.550  12.668  20.208  0.00  0.00    +0.000 A 
ATOM      8  C   UNL     1      -4.908  12.954  20.346  0.00  0.00    +0.000 A 
ATOM      9  C   UNL     1      -5.815  12.595  19.344  0.00  0.00    +0.000 A 
ATOM     10  C   UNL     1      -5.328  11.947  18.200  0.00  0.00    +0.000 A 
ATOM     11  C   UNL     1      -3.962  11.703  18.024  0.00  0.00    +0.000 A 
BRANCH   9  12
ATOM     12  C   UNL     1      -7.249  12.912  19.582  0.00  0.00    +0.000 C 
ATOM     13  O   UNL     1      -7.785  12.747  20.665  0.00  0.00    +0.000 OA
BRANCH  12  14
ATOM     14  O   UNL     1      -7.914  13.378  18.506  0.00  0.00    +0.000 OA
ATOM     15  H   UNL     1      -7.327  13.628  17.760  0.00  0.00    +0.000 HD
ENDBRANCH  12  14
ENDBRANCH   9  12
BRANCH  10  16
ATOM     16  O   UNL     1      -6.178  11.502  17.222  0.00  0.00    +0.000 OA
ATOM     17  H   UNL     1      -6.253  12.231  16.570  0.00  0.00    +0.000 HD
ENDBRANCH  10  16
ENDBRANCH   3   6
BRANCH   5  18
ATOM     18  C   UNL     1       1.103   9.392  19.037  0.00  0.00    +0.000 A 
ATOM     19  C   UNL     1       1.276   8.706  20.251  0.00  0.00    +0.000 A 
ATOM     20  C   UNL     1       2.019   7.524  20.309  0.00  0.00    +0.000 A 
ATOM     21  C   UNL     1       2.600   7.000  19.151  0.00  0.00    +0.000 A 
ATOM     22  C   UNL     1       2.480   7.712  17.952  0.00  0.00    +0.000 A 
ATOM     23  C   UNL     1       1.745   8.899  17.897  0.00  0.00    +0.000 A 
BRANCH  21  24
ATOM     24  C   UNL     1       3.279   5.656  19.165  0.00  0.00    +0.000 C 
BRANCH  24  25
ATOM     25  O   UNL     1       3.474   5.245  17.807  0.00  0.00    +0.000 OA
BRANCH  25  26
ATOM     26  C   UNL     1       4.776   4.961  17.492  0.00  0.00    +0.000 A 
ATOM     27  C   UNL     1       5.724   5.230  18.481  0.00  0.00    +0.000 A 
ATOM     28  C   UNL     1       7.083   5.045  18.216  0.00  0.00    +0.000 A 
ATOM     29  C   UNL     1       7.491   4.570  16.971  0.00  0.00    +0.000 A 
ATOM     30  C   UNL     1       6.541   4.239  16.007  0.00  0.00    +0.000 A 
ATOM     31  C   UNL     1       5.184   4.421  16.273  0.00  0.00    +0.000 A 
ENDBRANCH  25  26
ENDBRANCH  24  25
ENDBRANCH  21  24
ENDBRANCH   5  18
BRANCH   1  33
ATOM     32  N   UNL     1       2.851  13.102  18.436  0.00  0.00    +0.000 NA
ATOM     33  C   UNL     1       1.830  12.578  18.573  0.00  0.00    +0.000 C 
ENDBRANCH   1  33
TORSDOF 9
ENDMDL
MODEL 7
REMARK VINA RESULT:      -8.0      1.333      1.968
REMARK  Name = 
REMARK  9 active torsions:
REMARK  status: ('A' for Active; 'I' for Inactive)
REMARK    1  A    between atoms: C_2  and  C_3
REMARK    2  A    between atoms: N_5  and  C_6
REMARK    3  A    between atoms: C_9  and  C_10
REMARK    4  A    between atoms: C_10  and  O_12
REMARK    5  A    between atoms: C_13  and  O_14
REMARK    6  A    between atoms: C_17  and  C_18
REMARK    7  A    between atoms: C_21  and  C_22
REMARK    8  A    between atoms: C_22  and  O_23
REMARK    9  A    between atoms: O_23  and  C_24
REMARK                            x       y       z     vdW  Elec       q    Type
REMARK                         _______ _______ _______ _____ _____    ______ ____
ROOT
ATOM      1  C   UNL     1       0.573  12.685  20.855  0.00  0.00    +0.000 A 
ATOM      2  C   UNL     1      -0.522  13.331  21.406  0.00  0.00    +0.000 A 
ATOM      3  N   UNL     1      -1.540  12.418  21.569  0.00  0.00    +0.000 N 
ATOM      4  C   UNL     1      -1.104  11.213  21.059  0.00  0.00    +0.000 A 
ATOM      5  C   UNL     1       0.197  11.333  20.605  0.00  0.00    +0.000 A 
ENDROOT
BRANCH   3   6
ATOM      6  C   UNL     1      -2.817  12.643  22.149  0.00  0.00    +0.000 A 
ATOM      7  C   UNL     1      -3.816  13.252  21.377  0.00  0.00    +0.000 A 
ATOM      8  C   UNL     1      -5.076  13.502  21.921  0.00  0.00    +0.000 A 
ATOM      9  C   UNL     1      -5.352  13.179  23.253  0.00  0.00    +0.000 A 
ATOM     10  C   UNL     1      -4.338  12.595  24.024  0.00  0.00    +0.000 A 
ATOM     11  C   UNL     1      -3.087  12.288  23.477  0.00  0.00    +0.000 A 
BRANCH   9  12
ATOM     12  C   UNL     1      -6.712  13.504  23.762  0.00  0.00    +0.000 C 
ATOM     13  O   UNL     1      -7.197  14.618  23.668  0.00  0.00    +0.000 OA
BRANCH  12  14
ATOM     14  O   UNL     1      -7.358  12.477  24.350  0.00  0.00    +0.000 OA
ATOM     15  H   UNL     1      -8.335  12.541  24.289  0.00  0.00    +0.000 HD
ENDBRANCH  12  14
ENDBRANCH   9  12
BRANCH  10  16
ATOM     16  O   UNL     1      -4.524  12.329  25.356  0.00  0.00    +0.000 OA
ATOM     17  H   UNL     1      -4.243  11.399  25.492  0.00  0.00    +0.000 HD
ENDBRANCH  10  16
ENDBRANCH   3   6
BRANCH   5  18
ATOM     18  C   UNL     1       0.910  10.221  19.985  0.00  0.00    +0.000 A 
ATOM     19  C   UNL     1       1.237   9.074  20.729  0.00  0.00    +0.000 A 
ATOM     20  C   UNL     1       1.839   7.970  20.121  0.00  0.00    +0.000 A 
ATOM     21  C   UNL     1       2.123   7.989  18.752  0.00  0.00    +0.000 A 
ATOM     22  C   UNL     1       1.853   9.151  18.020  0.00  0.00    +0.000 A 
ATOM     23  C   UNL     1       1.260  10.258  18.632  0.00  0.00    +0.000 A 
BRANCH  21  24
ATOM     24  C   UNL     1       2.636   6.759  18.051  0.00  0.00    +0.000 C 
BRANCH  24  25
ATOM     25  O   UNL     1       3.221   5.900  19.038  0.00  0.00    +0.000 OA
BRANCH  25  26
ATOM     26  C   UNL     1       2.458   4.806  19.346  0.00  0.00    +0.000 A 
ATOM     27  C   UNL     1       1.958   4.075  18.266  0.00  0.00    +0.000 A 
ATOM     28  C   UNL     1       1.106   2.991  18.489  0.00  0.00    +0.000 A 
ATOM     29  C   UNL     1       0.772   2.625  19.792  0.00  0.00    +0.000 A 
ATOM     30  C   UNL     1       1.323   3.312  20.871  0.00  0.00    +0.000 A 
ATOM     31  C   UNL     1       2.177   4.392  20.649  0.00  0.00    +0.000 A 
ENDBRANCH  25  26
ENDBRANCH  24  25
ENDBRANCH  21  24
ENDBRANCH   5  18
BRANCH   1  33
ATOM     32  N   UNL     1       2.846  13.837  20.366  0.00  0.00    +0.000 NA
ATOM     33  C   UNL     1       1.833  13.331  20.594  0.00  0.00    +0.000 C 
ENDBRANCH   1  33
TORSDOF 9
ENDMDL
MODEL 8
REMARK VINA RESULT:      -8.0      4.950      7.069
REMARK  Name = 
REMARK  9 active torsions:
REMARK  status: ('A' for Active; 'I' for Inactive)
REMARK    1  A    between atoms: C_2  and  C_3
REMARK    2  A    between atoms: N_5  and  C_6
REMARK    3  A    between atoms: C_9  and  C_10
REMARK    4  A    between atoms: C_10  and  O_12
REMARK    5  A    between atoms: C_13  and  O_14
REMARK    6  A    between atoms: C_17  and  C_18
REMARK    7  A    between atoms: C_21  and  C_22
REMARK    8  A    between atoms: C_22  and  O_23
REMARK    9  A    between atoms: O_23  and  C_24
REMARK                            x       y       z     vdW  Elec       q    Type
REMARK                         _______ _______ _______ _____ _____    ______ ____
ROOT
ATOM      1  C   UNL     1       3.015   5.061  19.600  0.00  0.00    +0.000 A 
ATOM      2  C   UNL     1       2.178   5.831  20.391  0.00  0.00    +0.000 A 
ATOM      3  N   UNL     1       2.200   7.128  19.928  0.00  0.00    +0.000 N 
ATOM      4  C   UNL     1       3.102   7.183  18.885  0.00  0.00    +0.000 A 
ATOM      5  C   UNL     1       3.630   5.927  18.650  0.00  0.00    +0.000 A 
ENDROOT
BRANCH   3   6
ATOM      6  C   UNL     1       1.448   8.232  20.413  0.00  0.00    +0.000 A 
ATOM      7  C   UNL     1       0.982   9.191  19.503  0.00  0.00    +0.000 A 
ATOM      8  C   UNL     1       0.255  10.294  19.948  0.00  0.00    +0.000 A 
ATOM      9  C   UNL     1       0.006  10.477  21.312  0.00  0.00    +0.000 A 
ATOM     10  C   UNL     1       0.498   9.527  22.217  0.00  0.00    +0.000 A 
ATOM     11  C   UNL     1       1.182   8.387  21.780  0.00  0.00    +0.000 A 
BRANCH   9  12
ATOM     12  C   UNL     1      -0.754  11.695  21.705  0.00  0.00    +0.000 C 
ATOM     13  O   UNL     1      -1.682  12.130  21.044  0.00  0.00    +0.000 OA
BRANCH  12  14
ATOM     14  O   UNL     1      -0.327  12.289  22.837  0.00  0.00    +0.000 OA
ATOM     15  H   UNL     1       0.629  12.508  22.830  0.00  0.00    +0.000 HD
ENDBRANCH  12  14
ENDBRANCH   9  12
BRANCH  10  16
ATOM     16  O   UNL     1       0.353   9.694  23.569  0.00  0.00    +0.000 OA
ATOM     17  H   UNL     1       1.014  10.369  23.836  0.00  0.00    +0.000 HD
ENDBRANCH  10  16
ENDBRANCH   3   6
BRANCH   5  18
ATOM     18  C   UNL     1       4.636   5.688  17.620  0.00  0.00    +0.000 A 
ATOM     19  C   UNL     1       5.676   4.766  17.832  0.00  0.00    +0.000 A 
ATOM     20  C   UNL     1       6.589   4.466  16.818  0.00  0.00    +0.000 A 
ATOM     21  C   UNL     1       6.477   5.079  15.566  0.00  0.00    +0.000 A 
ATOM     22  C   UNL     1       5.480   6.041  15.371  0.00  0.00    +0.000 A 
ATOM     23  C   UNL     1       4.573   6.347  16.388  0.00  0.00    +0.000 A 
BRANCH  21  24
ATOM     24  C   UNL     1       7.359   4.663  14.419  0.00  0.00    +0.000 C 
BRANCH  24  25
ATOM     25  O   UNL     1       6.641   4.898  13.202  0.00  0.00    +0.000 OA
BRANCH  25  26
ATOM     26  C   UNL     1       6.481   3.783  12.425  0.00  0.00    +0.000 A 
ATOM     27  C   UNL     1       5.166   3.372  12.195  0.00  0.00    +0.000 A 
ATOM     28  C   UNL     1       4.914   2.199  11.480  0.00  0.00    +0.000 A 
ATOM     29  C   UNL     1       5.976   1.450  10.976  0.00  0.00    +0.000 A 
ATOM     30  C   UNL     1       7.285   1.894  11.148  0.00  0.00    +0.000 A 
ATOM     31  C   UNL     1       7.537   3.067  11.859  0.00  0.00    +0.000 A 
ENDBRANCH  25  26
ENDBRANCH  24  25
ENDBRANCH  21  24
ENDBRANCH   5  18
BRANCH   1  33
ATOM     32  N   UNL     1       3.316   2.503  19.912  0.00  0.00    +0.000 NA
ATOM     33  C   UNL     1       3.195   3.643  19.772  0.00  0.00    +0.000 C 
ENDBRANCH   1  33
TORSDOF 9
ENDMDL
MODEL 9
REMARK VINA RESULT:      -8.0      2.093      2.875
REMARK  Name = 
REMARK  9 active torsions:
REMARK  status: ('A' for Active; 'I' for Inactive)
REMARK    1  A    between atoms: C_2  and  C_3
REMARK    2  A    between atoms: N_5  and  C_6
REMARK    3  A    between atoms: C_9  and  C_10
REMARK    4  A    between atoms: C_10  and  O_12
REMARK    5  A    between atoms: C_13  and  O_14
REMARK    6  A    between atoms: C_17  and  C_18
REMARK    7  A    between atoms: C_21  and  C_22
REMARK    8  A    between atoms: C_22  and  O_23
REMARK    9  A    between atoms: O_23  and  C_24
REMARK                            x       y       z     vdW  Elec       q    Type
REMARK                         _______ _______ _______ _____ _____    ______ ____
ROOT
ATOM      1  C   UNL     1       0.516  12.479  20.776  0.00  0.00    +0.000 A 
ATOM      2  C   UNL     1      -0.577  13.119  21.337  0.00  0.00    +0.000 A 
ATOM      3  N   UNL     1      -1.557  12.185  21.590  0.00  0.00    +0.000 N 
ATOM      4  C   UNL     1      -1.101  10.968  21.125  0.00  0.00    +0.000 A 
ATOM      5  C   UNL     1       0.176  11.105  20.613  0.00  0.00    +0.000 A 
ENDROOT
BRANCH   3   6
ATOM      6  C   UNL     1      -2.817  12.400  22.209  0.00  0.00    +0.000 A 
ATOM      7  C   UNL     1      -3.906  12.790  21.417  0.00  0.00    +0.000 A 
ATOM      8  C   UNL     1      -5.153  13.025  21.996  0.00  0.00    +0.000 A 
ATOM      9  C   UNL     1      -5.328  12.908  23.379  0.00  0.00    +0.000 A 
ATOM     10  C   UNL     1      -4.226  12.544  24.165  0.00  0.00    +0.000 A 
ATOM     11  C   UNL     1      -2.984  12.251  23.592  0.00  0.00    +0.000 A 
BRANCH   9  12
ATOM     12  C   UNL     1      -6.683  13.203  23.918  0.00  0.00    +0.000 C 
ATOM     13  O   UNL     1      -7.569  12.368  23.957  0.00  0.00    +0.000 OA
BRANCH  12  14
ATOM     14  O   UNL     1      -6.860  14.471  24.344  0.00  0.00    +0.000 OA
ATOM     15  H   UNL     1      -7.702  14.608  24.828  0.00  0.00    +0.000 HD
ENDBRANCH  12  14
ENDBRANCH   9  12
BRANCH  10  16
ATOM     16  O   UNL     1      -4.318  12.489  25.531  0.00  0.00    +0.000 OA
ATOM     17  H   UNL     1      -4.948  13.194  25.793  0.00  0.00    +0.000 HD
ENDBRANCH  10  16
ENDBRANCH   3   6
BRANCH   5  18
ATOM     18  C   UNL     1       0.901   9.984  20.023  0.00  0.00    +0.000 A 
ATOM     19  C   UNL     1       1.235   8.859  20.796  0.00  0.00    +0.000 A 
ATOM     20  C   UNL     1       1.849   7.746  20.216  0.00  0.00    +0.000 A 
ATOM     21  C   UNL     1       2.137   7.733  18.848  0.00  0.00    +0.000 A 
ATOM     22  C   UNL     1       1.861   8.875  18.088  0.00  0.00    +0.000 A 
ATOM     23  C   UNL     1       1.255   9.991  18.670  0.00  0.00    +0.000 A 
BRANCH  21  24
ATOM     24  C   UNL     1       2.664   6.491  18.180  0.00  0.00    +0.000 C 
BRANCH  24  25
ATOM     25  O   UNL     1       3.752   5.993  18.968  0.00  0.00    +0.000 OA
BRANCH  25  26
ATOM     26  C   UNL     1       4.785   5.480  18.230  0.00  0.00    +0.000 A 
ATOM     27  C   UNL     1       6.035   5.450  18.853  0.00  0.00    +0.000 A 
ATOM     28  C   UNL     1       7.158   5.016  18.145  0.00  0.00    +0.000 A 
ATOM     29  C   UNL     1       7.028   4.594  16.823  0.00  0.00    +0.000 A 
ATOM     30  C   UNL     1       5.772   4.562  16.223  0.00  0.00    +0.000 A 
ATOM     31  C   UNL     1       4.649   4.991  16.930  0.00  0.00    +0.000 A 
ENDBRANCH  25  26
ENDBRANCH  24  25
ENDBRANCH  21  24
ENDBRANCH   5  18
BRANCH   1  33
ATOM     32  N   UNL     1       2.737  13.673  20.164  0.00  0.00    +0.000 NA
ATOM     33  C   UNL     1       1.742  13.150  20.429  0.00  0.00    +0.000 C 
ENDBRANCH   1  33
TORSDOF 9
ENDMDL
