MODEL 1
REMARK VINA RESULT:      -6.3      0.000      0.000
REMARK  Name = 
REMARK  10 active torsions:
REMARK  status: ('A' for Active; 'I' for Inactive)
REMARK    1  A    between atoms: C_1  and  O_2
REMARK    2  A    between atoms: O_2  and  C_3
REMARK    3  A    between atoms: C_3  and  C_4
REMARK    4  A    between atoms: C_3  and  C_5
REMARK    5  A    between atoms: C_5  and  S_6
REMARK    6  A    between atoms: S_6  and  N_9
REMARK    7  A    between atoms: N_9  and  C_10
REMARK    8  A    between atoms: C_13  and  C_14
REMARK    9  A    between atoms: C_16  and  C_17
REMARK   10  A    between atoms: C_19  and  C_20
REMARK                            x       y       z     vdW  Elec       q    Type
REMARK                         _______ _______ _______ _____ _____    ______ ____
ROOT
ATOM      1  C   UNL     1       4.121   4.549  17.210  0.00  0.00    +0.000 A 
ATOM      2  C   UNL     1       4.270   3.209  17.573  0.00  0.00    +0.000 A 
ATOM      3  C   UNL     1       3.788   2.737  18.795  0.00  0.00    +0.000 A 
ATOM      4  C   UNL     1       3.091   3.591  19.656  0.00  0.00    +0.000 A 
ATOM      5  C   UNL     1       2.898   4.937  19.292  0.00  0.00    +0.000 A 
ATOM      6  C   UNL     1       3.450   5.443  18.075  0.00  0.00    +0.000 A 
ATOM      7  C   UNL     1       3.395   6.919  17.768  0.00  0.00    +0.000 C 
ENDROOT
BRANCH   1   8
ATOM      8  N   UNL     1       4.741   4.927  15.968  0.00  0.00    +0.000 N 
ATOM      9  H   UNL     1       4.387   4.479  15.119  0.00  0.00    +0.000 HD
BRANCH   8  10
ATOM     10  S   UNL     1       6.402   5.204  15.932  0.00  0.00    +0.000 S 
ATOM     11  O   UNL     1       6.747   5.720  14.624  0.00  0.00    +0.000 OA
ATOM     12  O   UNL     1       7.066   4.032  16.462  0.00  0.00    +0.000 OA
BRANCH  10  13
ATOM     13  C   UNL     1       6.631   6.527  17.124  0.00  0.00    +0.000 C 
BRANCH  13  14
ATOM     14  C   UNL     1       7.635   6.181  18.223  0.00  0.00    +0.000 C 
ATOM     15  C   UNL     1       6.899   5.556  19.416  0.00  0.00    +0.000 C 
BRANCH  14  17
ATOM     16  C   UNL     1       8.008   8.507  17.778  0.00  0.00    +0.000 C 
ATOM     17  O   UNL     1       8.295   7.393  18.618  0.00  0.00    +0.000 OA
ENDBRANCH  14  17
ENDBRANCH  13  14
ENDBRANCH  10  13
ENDBRANCH   8  10
ENDBRANCH   1   8
BRANCH   4  18
ATOM     18  C   UNL     1       2.617   3.063  20.912  0.00  0.00    +0.000 C 
ATOM     19  N   UNL     1       2.215   2.662  21.924  0.00  0.00    +0.000 NA
ENDBRANCH   4  18
BRANCH   5  20
ATOM     20  C   UNL     1       2.130   5.790  20.171  0.00  0.00    +0.000 C 
ATOM     21  N   UNL     1       1.505   6.475  20.865  0.00  0.00    +0.000 NA
ENDBRANCH   5  20
TORSDOF 7
ENDMDL
MODEL 2
REMARK VINA RESULT:      -6.1      2.580      4.291
REMARK  Name = 
REMARK  10 active torsions:
REMARK  status: ('A' for Active; 'I' for Inactive)
REMARK    1  A    between atoms: C_1  and  O_2
REMARK    2  A    between atoms: O_2  and  C_3
REMARK    3  A    between atoms: C_3  and  C_4
REMARK    4  A    between atoms: C_3  and  C_5
REMARK    5  A    between atoms: C_5  and  S_6
REMARK    6  A    between atoms: S_6  and  N_9
REMARK    7  A    between atoms: N_9  and  C_10
REMARK    8  A    between atoms: C_13  and  C_14
REMARK    9  A    between atoms: C_16  and  C_17
REMARK   10  A    between atoms: C_19  and  C_20
REMARK                            x       y       z     vdW  Elec       q    Type
REMARK                         _______ _______ _______ _____ _____    ______ ____
ROOT
ATOM      1  C   UNL     1       2.993   6.102  18.629  0.00  0.00    +0.000 A 
ATOM      2  C   UNL     1       3.161   7.013  17.583  0.00  0.00    +0.000 A 
ATOM      3  C   UNL     1       2.612   8.294  17.650  0.00  0.00    +0.000 A 
ATOM      4  C   UNL     1       1.929   8.711  18.797  0.00  0.00    +0.000 A 
ATOM      5  C   UNL     1       1.780   7.821  19.877  0.00  0.00    +0.000 A 
ATOM      6  C   UNL     1       2.279   6.485  19.787  0.00  0.00    +0.000 A 
ATOM      7  C   UNL     1       1.967   5.480  20.869  0.00  0.00    +0.000 C 
ENDROOT
BRANCH   1   8
ATOM      8  N   UNL     1       3.528   4.787  18.399  0.00  0.00    +0.000 N 
ATOM      9  H   UNL     1       2.881   4.001  18.493  0.00  0.00    +0.000 HD
BRANCH   8  10
ATOM     10  S   UNL     1       5.088   4.433  18.928  0.00  0.00    +0.000 S 
ATOM     11  O   UNL     1       5.067   3.129  19.556  0.00  0.00    +0.000 OA
ATOM     12  O   UNL     1       5.596   5.588  19.638  0.00  0.00    +0.000 OA
BRANCH  10  13
ATOM     13  C   UNL     1       6.024   4.295  17.402  0.00  0.00    +0.000 C 
BRANCH  13  14
ATOM     14  C   UNL     1       6.166   5.623  16.660  0.00  0.00    +0.000 C 
ATOM     15  C   UNL     1       5.891   5.409  15.165  0.00  0.00    +0.000 C 
BRANCH  14  17
ATOM     16  C   UNL     1       7.572   7.413  17.417  0.00  0.00    +0.000 C 
ATOM     17  O   UNL     1       7.505   6.103  16.862  0.00  0.00    +0.000 OA
ENDBRANCH  14  17
ENDBRANCH  13  14
ENDBRANCH  10  13
ENDBRANCH   8  10
ENDBRANCH   1   8
BRANCH   4  18
ATOM     18  C   UNL     1       1.372  10.041  18.818  0.00  0.00    +0.000 C 
ATOM     19  N   UNL     1       0.950  11.122  18.820  0.00  0.00    +0.000 NA
ENDBRANCH   4  18
BRANCH   5  20
ATOM     20  C   UNL     1       1.117   8.288  21.074  0.00  0.00    +0.000 C 
ATOM     21  N   UNL     1       0.594   8.655  22.040  0.00  0.00    +0.000 NA
ENDBRANCH   5  20
TORSDOF 7
ENDMDL
MODEL 3
REMARK VINA RESULT:      -6.0      2.509      3.828
REMARK  Name = 
REMARK  10 active torsions:
REMARK  status: ('A' for Active; 'I' for Inactive)
REMARK    1  A    between atoms: C_1  and  O_2
REMARK    2  A    between atoms: O_2  and  C_3
REMARK    3  A    between atoms: C_3  and  C_4
REMARK    4  A    between atoms: C_3  and  C_5
REMARK    5  A    between atoms: C_5  and  S_6
REMARK    6  A    between atoms: S_6  and  N_9
REMARK    7  A    between atoms: N_9  and  C_10
REMARK    8  A    between atoms: C_13  and  C_14
REMARK    9  A    between atoms: C_16  and  C_17
REMARK   10  A    between atoms: C_19  and  C_20
REMARK                            x       y       z     vdW  Elec       q    Type
REMARK                         _______ _______ _______ _____ _____    ______ ____
ROOT
ATOM      1  C   UNL     1       2.944   5.873  18.929  0.00  0.00    +0.000 A 
ATOM      2  C   UNL     1       2.383   5.413  20.122  0.00  0.00    +0.000 A 
ATOM      3  C   UNL     1       1.636   6.262  20.940  0.00  0.00    +0.000 A 
ATOM      4  C   UNL     1       1.386   7.581  20.548  0.00  0.00    +0.000 A 
ATOM      5  C   UNL     1       1.911   8.054  19.330  0.00  0.00    +0.000 A 
ATOM      6  C   UNL     1       2.735   7.211  18.522  0.00  0.00    +0.000 A 
ATOM      7  C   UNL     1       3.439   7.768  17.310  0.00  0.00    +0.000 C 
ENDROOT
BRANCH   1   8
ATOM      8  N   UNL     1       3.766   4.927  18.224  0.00  0.00    +0.000 N 
ATOM      9  H   UNL     1       3.287   4.143  17.774  0.00  0.00    +0.000 HD
BRANCH   8  10
ATOM     10  S   UNL     1       5.269   4.510  18.861  0.00  0.00    +0.000 S 
ATOM     11  O   UNL     1       5.178   3.168  19.394  0.00  0.00    +0.000 OA
ATOM     12  O   UNL     1       5.725   5.605  19.691  0.00  0.00    +0.000 OA
BRANCH  10  13
ATOM     13  C   UNL     1       6.334   4.459  17.417  0.00  0.00    +0.000 C 
BRANCH  13  14
ATOM     14  C   UNL     1       6.198   5.692  16.524  0.00  0.00    +0.000 C 
ATOM     15  C   UNL     1       5.806   5.258  15.104  0.00  0.00    +0.000 C 
BRANCH  14  17
ATOM     16  C   UNL     1       7.545   7.453  17.436  0.00  0.00    +0.000 C 
ATOM     17  O   UNL     1       7.462   6.373  16.512  0.00  0.00    +0.000 OA
ENDBRANCH  14  17
ENDBRANCH  13  14
ENDBRANCH  10  13
ENDBRANCH   8  10
ENDBRANCH   1   8
BRANCH   4  18
ATOM     18  C   UNL     1       0.615   8.424  21.429  0.00  0.00    +0.000 C 
ATOM     19  N   UNL     1       0.012   9.090  22.161  0.00  0.00    +0.000 NA
ENDBRANCH   4  18
BRANCH   5  20
ATOM     20  C   UNL     1       1.596   9.403  18.917  0.00  0.00    +0.000 C 
ATOM     21  N   UNL     1       1.356  10.488  18.592  0.00  0.00    +0.000 NA
ENDBRANCH   5  20
TORSDOF 7
ENDMDL
MODEL 4
REMARK VINA RESULT:      -6.0      2.310      3.421
REMARK  Name = 
REMARK  10 active torsions:
REMARK  status: ('A' for Active; 'I' for Inactive)
REMARK    1  A    between atoms: C_1  and  O_2
REMARK    2  A    between atoms: O_2  and  C_3
REMARK    3  A    between atoms: C_3  and  C_4
REMARK    4  A    between atoms: C_3  and  C_5
REMARK    5  A    between atoms: C_5  and  S_6
REMARK    6  A    between atoms: S_6  and  N_9
REMARK    7  A    between atoms: N_9  and  C_10
REMARK    8  A    between atoms: C_13  and  C_14
REMARK    9  A    between atoms: C_16  and  C_17
REMARK   10  A    between atoms: C_19  and  C_20
REMARK                            x       y       z     vdW  Elec       q    Type
REMARK                         _______ _______ _______ _____ _____    ______ ____
ROOT
ATOM      1  C   UNL     1       4.177   4.713  17.146  0.00  0.00    +0.000 A 
ATOM      2  C   UNL     1       4.206   3.391  17.595  0.00  0.00    +0.000 A 
ATOM      3  C   UNL     1       3.671   3.041  18.836  0.00  0.00    +0.000 A 
ATOM      4  C   UNL     1       3.040   4.004  19.630  0.00  0.00    +0.000 A 
ATOM      5  C   UNL     1       2.967   5.336  19.180  0.00  0.00    +0.000 A 
ATOM      6  C   UNL     1       3.575   5.714  17.943  0.00  0.00    +0.000 A 
ATOM      7  C   UNL     1       3.651   7.167  17.544  0.00  0.00    +0.000 C 
ENDROOT
BRANCH   1   8
ATOM      8  N   UNL     1       4.841   4.958  15.895  0.00  0.00    +0.000 N 
ATOM      9  H   UNL     1       4.508   4.432  15.083  0.00  0.00    +0.000 HD
BRANCH   8  10
ATOM     10  S   UNL     1       6.507   5.210  15.885  0.00  0.00    +0.000 S 
ATOM     11  O   UNL     1       7.139   4.083  16.537  0.00  0.00    +0.000 OA
ATOM     12  O   UNL     1       6.761   6.562  16.336  0.00  0.00    +0.000 OA
BRANCH  10  13
ATOM     13  C   UNL     1       6.929   5.145  14.141  0.00  0.00    +0.000 C 
BRANCH  13  14
ATOM     14  C   UNL     1       6.479   3.853  13.460  0.00  0.00    +0.000 C 
ATOM     15  C   UNL     1       7.185   3.713  12.104  0.00  0.00    +0.000 C 
BRANCH  14  17
ATOM     16  C   UNL     1       4.609   3.439  12.017  0.00  0.00    +0.000 C 
ATOM     17  O   UNL     1       5.056   3.917  13.283  0.00  0.00    +0.000 OA
ENDBRANCH  14  17
ENDBRANCH  13  14
ENDBRANCH  10  13
ENDBRANCH   8  10
ENDBRANCH   1   8
BRANCH   4  18
ATOM     18  C   UNL     1       2.508   3.598  20.908  0.00  0.00    +0.000 C 
ATOM     19  N   UNL     1       2.108   3.281  21.949  0.00  0.00    +0.000 NA
ENDBRANCH   4  18
BRANCH   5  20
ATOM     20  C   UNL     1       2.265   6.305  19.990  0.00  0.00    +0.000 C 
ATOM     21  N   UNL     1       1.714   7.083  20.647  0.00  0.00    +0.000 NA
ENDBRANCH   5  20
TORSDOF 7
ENDMDL
MODEL 5
REMARK VINA RESULT:      -6.0      2.076      2.859
REMARK  Name = 
REMARK  10 active torsions:
REMARK  status: ('A' for Active; 'I' for Inactive)
REMARK    1  A    between atoms: C_1  and  O_2
REMARK    2  A    between atoms: O_2  and  C_3
REMARK    3  A    between atoms: C_3  and  C_4
REMARK    4  A    between atoms: C_3  and  C_5
REMARK    5  A    between atoms: C_5  and  S_6
REMARK    6  A    between atoms: S_6  and  N_9
REMARK    7  A    between atoms: N_9  and  C_10
REMARK    8  A    between atoms: C_13  and  C_14
REMARK    9  A    between atoms: C_16  and  C_17
REMARK   10  A    between atoms: C_19  and  C_20
REMARK                            x       y       z     vdW  Elec       q    Type
REMARK                         _______ _______ _______ _____ _____    ______ ____
ROOT
ATOM      1  C   UNL     1       3.871   4.298  17.835  0.00  0.00    +0.000 A 
ATOM      2  C   UNL     1       3.834   2.952  18.209  0.00  0.00    +0.000 A 
ATOM      3  C   UNL     1       3.179   2.547  19.373  0.00  0.00    +0.000 A 
ATOM      4  C   UNL     1       2.494   3.479  20.159  0.00  0.00    +0.000 A 
ATOM      5  C   UNL     1       2.487   4.835  19.779  0.00  0.00    +0.000 A 
ATOM      6  C   UNL     1       3.214   5.267  18.628  0.00  0.00    +0.000 A 
ATOM      7  C   UNL     1       3.352   6.737  18.320  0.00  0.00    +0.000 C 
ENDROOT
BRANCH   1   8
ATOM      8  N   UNL     1       4.654   4.595  16.666  0.00  0.00    +0.000 N 
ATOM      9  H   UNL     1       4.489   4.016  15.839  0.00  0.00    +0.000 HD
BRANCH   8  10
ATOM     10  S   UNL     1       6.266   5.047  16.852  0.00  0.00    +0.000 S 
ATOM     11  O   UNL     1       6.761   4.466  18.082  0.00  0.00    +0.000 OA
ATOM     12  O   UNL     1       6.365   6.472  16.615  0.00  0.00    +0.000 OA
BRANCH  10  13
ATOM     13  C   UNL     1       7.089   4.224  15.484  0.00  0.00    +0.000 C 
BRANCH  13  14
ATOM     14  C   UNL     1       6.812   4.880  14.132  0.00  0.00    +0.000 C 
ATOM     15  C   UNL     1       6.423   3.804  13.108  0.00  0.00    +0.000 C 
BRANCH  14  17
ATOM     16  C   UNL     1       8.154   5.661  12.304  0.00  0.00    +0.000 C 
ATOM     17  O   UNL     1       8.006   5.562  13.717  0.00  0.00    +0.000 OA
ENDBRANCH  14  17
ENDBRANCH  13  14
ENDBRANCH  10  13
ENDBRANCH   8  10
ENDBRANCH   1   8
BRANCH   4  18
ATOM     18  C   UNL     1       1.837   3.016  21.357  0.00  0.00    +0.000 C 
ATOM     19  N   UNL     1       1.328   2.618  22.320  0.00  0.00    +0.000 NA
ENDBRANCH   4  18
BRANCH   5  20
ATOM     20  C   UNL     1       1.729   5.774  20.575  0.00  0.00    +0.000 C 
ATOM     21  N   UNL     1       1.113   6.517  21.216  0.00  0.00    +0.000 NA
ENDBRANCH   5  20
TORSDOF 7
ENDMDL
MODEL 6
REMARK VINA RESULT:      -6.0      2.711      4.517
REMARK  Name = 
REMARK  10 active torsions:
REMARK  status: ('A' for Active; 'I' for Inactive)
REMARK    1  A    between atoms: C_1  and  O_2
REMARK    2  A    between atoms: O_2  and  C_3
REMARK    3  A    between atoms: C_3  and  C_4
REMARK    4  A    between atoms: C_3  and  C_5
REMARK    5  A    between atoms: C_5  and  S_6
REMARK    6  A    between atoms: S_6  and  N_9
REMARK    7  A    between atoms: N_9  and  C_10
REMARK    8  A    between atoms: C_13  and  C_14
REMARK    9  A    between atoms: C_16  and  C_17
REMARK   10  A    between atoms: C_19  and  C_20
REMARK                            x       y       z     vdW  Elec       q    Type
REMARK                         _______ _______ _______ _____ _____    ______ ____
ROOT
ATOM      1  C   UNL     1       2.614   6.694  18.537  0.00  0.00    +0.000 A 
ATOM      2  C   UNL     1       2.649   7.694  17.563  0.00  0.00    +0.000 A 
ATOM      3  C   UNL     1       2.102   8.955  17.807  0.00  0.00    +0.000 A 
ATOM      4  C   UNL     1       1.560   9.259  19.059  0.00  0.00    +0.000 A 
ATOM      5  C   UNL     1       1.549   8.277  20.068  0.00  0.00    +0.000 A 
ATOM      6  C   UNL     1       2.043   6.963  19.802  0.00  0.00    +0.000 A 
ATOM      7  C   UNL     1       1.872   5.863  20.821  0.00  0.00    +0.000 C 
ENDROOT
BRANCH   1   8
ATOM      8  N   UNL     1       3.128   5.414  18.130  0.00  0.00    +0.000 N 
ATOM      9  H   UNL     1       2.532   4.600  18.303  0.00  0.00    +0.000 HD
BRANCH   8  10
ATOM     10  S   UNL     1       4.769   5.088  18.324  0.00  0.00    +0.000 S 
ATOM     11  O   UNL     1       4.993   3.691  18.023  0.00  0.00    +0.000 OA
ATOM     12  O   UNL     1       5.193   5.648  19.591  0.00  0.00    +0.000 OA
BRANCH  10  13
ATOM     13  C   UNL     1       5.543   6.063  17.030  0.00  0.00    +0.000 C 
BRANCH  13  14
ATOM     14  C   UNL     1       7.070   6.036  17.086  0.00  0.00    +0.000 C 
ATOM     15  C   UNL     1       7.591   7.390  17.586  0.00  0.00    +0.000 C 
BRANCH  14  17
ATOM     16  C   UNL     1       6.729   4.884  15.010  0.00  0.00    +0.000 C 
ATOM     17  O   UNL     1       7.557   5.766  15.762  0.00  0.00    +0.000 OA
ENDBRANCH  14  17
ENDBRANCH  13  14
ENDBRANCH  10  13
ENDBRANCH   8  10
ENDBRANCH   1   8
BRANCH   4  18
ATOM     18  C   UNL     1       1.000  10.573  19.264  0.00  0.00    +0.000 C 
ATOM     19  N   UNL     1       0.574  11.641  19.411  0.00  0.00    +0.000 NA
ENDBRANCH   4  18
BRANCH   5  20
ATOM     20  C   UNL     1       1.032   8.628  21.372  0.00  0.00    +0.000 C 
ATOM     21  N   UNL     1       0.631   8.911  22.421  0.00  0.00    +0.000 NA
ENDBRANCH   5  20
TORSDOF 7
ENDMDL
MODEL 7
REMARK VINA RESULT:      -5.9      0.852      2.457
REMARK  Name = 
REMARK  10 active torsions:
REMARK  status: ('A' for Active; 'I' for Inactive)
REMARK    1  A    between atoms: C_1  and  O_2
REMARK    2  A    between atoms: O_2  and  C_3
REMARK    3  A    between atoms: C_3  and  C_4
REMARK    4  A    between atoms: C_3  and  C_5
REMARK    5  A    between atoms: C_5  and  S_6
REMARK    6  A    between atoms: S_6  and  N_9
REMARK    7  A    between atoms: N_9  and  C_10
REMARK    8  A    between atoms: C_13  and  C_14
REMARK    9  A    between atoms: C_16  and  C_17
REMARK   10  A    between atoms: C_19  and  C_20
REMARK                            x       y       z     vdW  Elec       q    Type
REMARK                         _______ _______ _______ _____ _____    ______ ____
ROOT
ATOM      1  C   UNL     1       4.208   5.433  17.234  0.00  0.00    +0.000 A 
ATOM      2  C   UNL     1       3.914   6.796  17.146  0.00  0.00    +0.000 A 
ATOM      3  C   UNL     1       3.128   7.426  18.112  0.00  0.00    +0.000 A 
ATOM      4  C   UNL     1       2.667   6.712  19.222  0.00  0.00    +0.000 A 
ATOM      5  C   UNL     1       2.983   5.346  19.350  0.00  0.00    +0.000 A 
ATOM      6  C   UNL     1       3.728   4.679  18.329  0.00  0.00    +0.000 A 
ATOM      7  C   UNL     1       3.917   3.183  18.377  0.00  0.00    +0.000 C 
ENDROOT
BRANCH   1   8
ATOM      8  N   UNL     1       4.950   4.886  16.130  0.00  0.00    +0.000 N 
ATOM      9  H   UNL     1       4.709   3.936  15.837  0.00  0.00    +0.000 HD
BRANCH   8  10
ATOM     10  S   UNL     1       6.594   5.227  15.996  0.00  0.00    +0.000 S 
ATOM     11  O   UNL     1       6.850   5.706  14.655  0.00  0.00    +0.000 OA
ATOM     12  O   UNL     1       7.332   4.103  16.533  0.00  0.00    +0.000 OA
BRANCH  10  13
ATOM     13  C   UNL     1       6.828   6.603  17.127  0.00  0.00    +0.000 C 
BRANCH  13  14
ATOM     14  C   UNL     1       7.810   6.294  18.256  0.00  0.00    +0.000 C 
ATOM     15  C   UNL     1       7.054   5.687  19.445  0.00  0.00    +0.000 C 
BRANCH  14  17
ATOM     16  C   UNL     1       8.041   8.649  17.864  0.00  0.00    +0.000 C 
ATOM     17  O   UNL     1       8.446   7.524  18.638  0.00  0.00    +0.000 OA
ENDBRANCH  14  17
ENDBRANCH  13  14
ENDBRANCH  10  13
ENDBRANCH   8  10
ENDBRANCH   1   8
BRANCH   4  18
ATOM     18  C   UNL     1       1.851   7.403  20.192  0.00  0.00    +0.000 C 
ATOM     19  N   UNL     1       1.187   7.929  20.983  0.00  0.00    +0.000 NA
ENDBRANCH   4  18
BRANCH   5  20
ATOM     20  C   UNL     1       2.542   4.639  20.531  0.00  0.00    +0.000 C 
ATOM     21  N   UNL     1       2.201   4.075  21.483  0.00  0.00    +0.000 NA
ENDBRANCH   5  20
TORSDOF 7
ENDMDL
MODEL 8
REMARK VINA RESULT:      -5.8      3.185      5.994
REMARK  Name = 
REMARK  10 active torsions:
REMARK  status: ('A' for Active; 'I' for Inactive)
REMARK    1  A    between atoms: C_1  and  O_2
REMARK    2  A    between atoms: O_2  and  C_3
REMARK    3  A    between atoms: C_3  and  C_4
REMARK    4  A    between atoms: C_3  and  C_5
REMARK    5  A    between atoms: C_5  and  S_6
REMARK    6  A    between atoms: S_6  and  N_9
REMARK    7  A    between atoms: N_9  and  C_10
REMARK    8  A    between atoms: C_13  and  C_14
REMARK    9  A    between atoms: C_16  and  C_17
REMARK   10  A    between atoms: C_19  and  C_20
REMARK                            x       y       z     vdW  Elec       q    Type
REMARK                         _______ _______ _______ _____ _____    ______ ____
ROOT
ATOM      1  C   UNL     1       4.464   4.046  16.867  0.00  0.00    +0.000 A 
ATOM      2  C   UNL     1       4.838   3.327  15.729  0.00  0.00    +0.000 A 
ATOM      3  C   UNL     1       5.872   3.774  14.904  0.00  0.00    +0.000 A 
ATOM      4  C   UNL     1       6.593   4.925  15.237  0.00  0.00    +0.000 A 
ATOM      5  C   UNL     1       6.256   5.644  16.400  0.00  0.00    +0.000 A 
ATOM      6  C   UNL     1       5.154   5.231  17.210  0.00  0.00    +0.000 A 
ATOM      7  C   UNL     1       4.682   6.094  18.354  0.00  0.00    +0.000 C 
ENDROOT
BRANCH   1   8
ATOM      8  N   UNL     1       3.327   3.529  17.580  0.00  0.00    +0.000 N 
ATOM      9  H   UNL     1       2.573   4.188  17.789  0.00  0.00    +0.000 HD
BRANCH   8  10
ATOM     10  S   UNL     1       3.570   2.389  18.796  0.00  0.00    +0.000 S 
ATOM     11  O   UNL     1       4.556   2.912  19.718  0.00  0.00    +0.000 OA
ATOM     12  O   UNL     1       3.756   1.096  18.172  0.00  0.00    +0.000 OA
BRANCH  10  13
ATOM     13  C   UNL     1       1.990   2.343  19.648  0.00  0.00    +0.000 C 
BRANCH  13  14
ATOM     14  C   UNL     1       1.936   3.263  20.867  0.00  0.00    +0.000 C 
ATOM     15  C   UNL     1       1.368   2.492  22.067  0.00  0.00    +0.000 C 
BRANCH  14  17
ATOM     16  C   UNL     1       1.770   5.634  20.552  0.00  0.00    +0.000 C 
ATOM     17  O   UNL     1       1.094   4.380  20.543  0.00  0.00    +0.000 OA
ENDBRANCH  14  17
ENDBRANCH  13  14
ENDBRANCH  10  13
ENDBRANCH   8  10
ENDBRANCH   1   8
BRANCH   4  18
ATOM     18  C   UNL     1       7.648   5.354  14.351  0.00  0.00    +0.000 C 
ATOM     19  N   UNL     1       8.496   5.727  13.654  0.00  0.00    +0.000 NA
ENDBRANCH   4  18
BRANCH   5  20
ATOM     20  C   UNL     1       7.047   6.800  16.755  0.00  0.00    +0.000 C 
ATOM     21  N   UNL     1       7.681   7.723  17.052  0.00  0.00    +0.000 NA
ENDBRANCH   5  20
TORSDOF 7
ENDMDL
MODEL 9
REMARK VINA RESULT:      -5.8      2.957      4.181
REMARK  Name = 
REMARK  10 active torsions:
REMARK  status: ('A' for Active; 'I' for Inactive)
REMARK    1  A    between atoms: C_1  and  O_2
REMARK    2  A    between atoms: O_2  and  C_3
REMARK    3  A    between atoms: C_3  and  C_4
REMARK    4  A    between atoms: C_3  and  C_5
REMARK    5  A    between atoms: C_5  and  S_6
REMARK    6  A    between atoms: S_6  and  N_9
REMARK    7  A    between atoms: N_9  and  C_10
REMARK    8  A    between atoms: C_13  and  C_14
REMARK    9  A    between atoms: C_16  and  C_17
REMARK   10  A    between atoms: C_19  and  C_20
REMARK                            x       y       z     vdW  Elec       q    Type
REMARK                         _______ _______ _______ _____ _____    ______ ____
ROOT
ATOM      1  C   UNL     1       5.298   4.547  16.986  0.00  0.00    +0.000 A 
ATOM      2  C   UNL     1       4.692   3.293  17.101  0.00  0.00    +0.000 A 
ATOM      3  C   UNL     1       3.530   3.123  17.855  0.00  0.00    +0.000 A 
ATOM      4  C   UNL     1       2.915   4.222  18.463  0.00  0.00    +0.000 A 
ATOM      5  C   UNL     1       3.489   5.501  18.328  0.00  0.00    +0.000 A 
ATOM      6  C   UNL     1       4.716   5.670  17.617  0.00  0.00    +0.000 A 
ATOM      7  C   UNL     1       5.422   7.004  17.620  0.00  0.00    +0.000 C 
ENDROOT
BRANCH   1   8
ATOM      8  N   UNL     1       6.538   4.571  16.259  0.00  0.00    +0.000 N 
ATOM      9  H   UNL     1       7.362   4.913  16.761  0.00  0.00    +0.000 HD
BRANCH   8  10
ATOM     10  S   UNL     1       6.526   5.001  14.630  0.00  0.00    +0.000 S 
ATOM     11  O   UNL     1       7.866   5.401  14.257  0.00  0.00    +0.000 OA
ATOM     12  O   UNL     1       5.402   5.885  14.405  0.00  0.00    +0.000 OA
BRANCH  10  13
ATOM     13  C   UNL     1       6.160   3.455  13.794  0.00  0.00    +0.000 C 
BRANCH  13  14
ATOM     14  C   UNL     1       6.102   3.592  12.273  0.00  0.00    +0.000 C 
ATOM     15  C   UNL     1       4.663   3.363  11.790  0.00  0.00    +0.000 C 
BRANCH  14  17
ATOM     16  C   UNL     1       6.322   1.448  11.220  0.00  0.00    +0.000 C 
ATOM     17  O   UNL     1       6.985   2.612  11.705  0.00  0.00    +0.000 OA
ENDBRANCH  14  17
ENDBRANCH  13  14
ENDBRANCH  10  13
ENDBRANCH   8  10
ENDBRANCH   1   8
BRANCH   4  18
ATOM     18  C   UNL     1       1.719   3.998  19.238  0.00  0.00    +0.000 C 
ATOM     19  N   UNL     1       0.749   3.795  19.839  0.00  0.00    +0.000 NA
ENDBRANCH   4  18
BRANCH   5  20
ATOM     20  C   UNL     1       2.809   6.632  18.919  0.00  0.00    +0.000 C 
ATOM     21  N   UNL     1       2.262   7.542  19.380  0.00  0.00    +0.000 NA
ENDBRANCH   5  20
TORSDOF 7
ENDMDL
