MODEL 1
REMARK VINA RESULT:      -7.9      0.000      0.000
REMARK  Name = 
REMARK  6 active torsions:
REMARK  status: ('A' for Active; 'I' for Inactive)
REMARK    1  A    between atoms: C_1  and  C_2
REMARK    2  A    between atoms: C_3  and  C_4
REMARK    3  A    between atoms: C_4  and  C_5
REMARK    4  A    between atoms: C_4  and  C_9
REMARK    5  A    between atoms: C_5  and  C_6
REMARK    6  A    between atoms: C_6  and  O_8
REMARK                            x       y       z     vdW  Elec       q    Type
REMARK                         _______ _______ _______ _____ _____    ______ ____
ROOT
ATOM      1  C   UNL     1       3.561   6.920  17.832  0.00  0.00    +0.000 C 
ATOM      2  C   UNL     1       3.980   5.590  18.355  0.00  0.00    +0.000 A 
ATOM      3  C   UNL     1       5.142   4.874  18.083  0.00  0.00    +0.000 A 
ATOM      4  N   UNL     1       5.087   3.717  18.831  0.00  0.00    +0.000 N 
ATOM      5  C   UNL     1       3.915   3.638  19.531  0.00  0.00    +0.000 A 
ATOM      6  C   UNL     1       3.454   2.627  20.382  0.00  0.00    +0.000 A 
ATOM      7  C   UNL     1       2.218   2.821  20.999  0.00  0.00    +0.000 A 
ATOM      8  C   UNL     1       1.482   3.984  20.779  0.00  0.00    +0.000 A 
ATOM      9  C   UNL     1       1.962   4.981  19.921  0.00  0.00    +0.000 A 
ATOM     10  C   UNL     1       3.205   4.803  19.277  0.00  0.00    +0.000 A 
ATOM     11  H   UNL     1       5.827   3.026  18.886  0.00  0.00    +0.000 HD
ENDROOT
BRANCH   3  12
ATOM     12  C   UNL     1       6.353   5.172  17.209  0.00  0.00    +0.000 C 
BRANCH  12  13
ATOM     13  C   UNL     1       6.336   4.565  15.787  0.00  0.00    +0.000 C 
ATOM     14  F   UNL     1       6.031   3.250  15.757  0.00  0.00    +0.000 F 
ATOM     15  F   UNL     1       5.409   5.202  15.027  0.00  0.00    +0.000 F 
ATOM     16  F   UNL     1       7.516   4.722  15.144  0.00  0.00    +0.000 F 
ENDBRANCH  12  13
BRANCH  12  17
ATOM     17  C   UNL     1       7.671   4.858  17.939  0.00  0.00    +0.000 C 
BRANCH  17  18
ATOM     18  C   UNL     1       7.898   5.706  19.172  0.00  0.00    +0.000 C 
ATOM     19  O   UNL     1       7.741   5.333  20.325  0.00  0.00    +0.000 OA
BRANCH  18  20
ATOM     20  O   UNL     1       8.323   6.954  18.872  0.00  0.00    +0.000 OA
ATOM     21  H   UNL     1       9.241   7.146  19.141  0.00  0.00    +0.000 HD
ENDBRANCH  18  20
ENDBRANCH  17  18
ENDBRANCH  12  17
ENDBRANCH   3  12
TORSDOF 5
ENDMDL
MODEL 2
REMARK VINA RESULT:      -7.9      2.427      2.978
REMARK  Name = 
REMARK  6 active torsions:
REMARK  status: ('A' for Active; 'I' for Inactive)
REMARK    1  A    between atoms: C_1  and  C_2
REMARK    2  A    between atoms: C_3  and  C_4
REMARK    3  A    between atoms: C_4  and  C_5
REMARK    4  A    between atoms: C_4  and  C_9
REMARK    5  A    between atoms: C_5  and  C_6
REMARK    6  A    between atoms: C_6  and  O_8
REMARK                            x       y       z     vdW  Elec       q    Type
REMARK                         _______ _______ _______ _____ _____    ______ ____
ROOT
ATOM      1  C   UNL     1       3.810   6.616  17.884  0.00  0.00    +0.000 C 
ATOM      2  C   UNL     1       3.819   5.132  18.013  0.00  0.00    +0.000 A 
ATOM      3  C   UNL     1       4.760   4.223  17.539  0.00  0.00    +0.000 A 
ATOM      4  N   UNL     1       4.344   2.969  17.937  0.00  0.00    +0.000 N 
ATOM      5  C   UNL     1       3.150   3.034  18.602  0.00  0.00    +0.000 A 
ATOM      6  C   UNL     1       2.378   2.001  19.145  0.00  0.00    +0.000 A 
ATOM      7  C   UNL     1       1.202   2.357  19.806  0.00  0.00    +0.000 A 
ATOM      8  C   UNL     1       0.825   3.693  19.926  0.00  0.00    +0.000 A 
ATOM      9  C   UNL     1       1.612   4.711  19.372  0.00  0.00    +0.000 A 
ATOM     10  C   UNL     1       2.800   4.374  18.689  0.00  0.00    +0.000 A 
ATOM     11  H   UNL     1       4.864   2.112  17.790  0.00  0.00    +0.000 HD
ENDROOT
BRANCH   3  12
ATOM     12  C   UNL     1       6.061   4.396  16.768  0.00  0.00    +0.000 C 
BRANCH  12  13
ATOM     13  C   UNL     1       7.259   4.965  17.565  0.00  0.00    +0.000 C 
ATOM     14  F   UNL     1       8.358   4.181  17.531  0.00  0.00    +0.000 F 
ATOM     15  F   UNL     1       7.619   6.170  17.055  0.00  0.00    +0.000 F 
ATOM     16  F   UNL     1       6.957   5.184  18.865  0.00  0.00    +0.000 F 
ENDBRANCH  12  13
BRANCH  12  17
ATOM     17  C   UNL     1       5.844   5.166  15.453  0.00  0.00    +0.000 C 
BRANCH  17  18
ATOM     18  C   UNL     1       6.781   4.745  14.342  0.00  0.00    +0.000 C 
ATOM     19  O   UNL     1       7.749   5.381  13.955  0.00  0.00    +0.000 OA
BRANCH  18  20
ATOM     20  O   UNL     1       6.448   3.548  13.809  0.00  0.00    +0.000 OA
ATOM     21  H   UNL     1       6.183   3.580  12.871  0.00  0.00    +0.000 HD
ENDBRANCH  18  20
ENDBRANCH  17  18
ENDBRANCH  12  17
ENDBRANCH   3  12
TORSDOF 5
ENDMDL
MODEL 3
REMARK VINA RESULT:      -7.8      0.777      1.430
REMARK  Name = 
REMARK  6 active torsions:
REMARK  status: ('A' for Active; 'I' for Inactive)
REMARK    1  A    between atoms: C_1  and  C_2
REMARK    2  A    between atoms: C_3  and  C_4
REMARK    3  A    between atoms: C_4  and  C_5
REMARK    4  A    between atoms: C_4  and  C_9
REMARK    5  A    between atoms: C_5  and  C_6
REMARK    6  A    between atoms: C_6  and  O_8
REMARK                            x       y       z     vdW  Elec       q    Type
REMARK                         _______ _______ _______ _____ _____    ______ ____
ROOT
ATOM      1  C   UNL     1       2.655   6.850  18.024  0.00  0.00    +0.000 C 
ATOM      2  C   UNL     1       3.319   5.627  18.553  0.00  0.00    +0.000 A 
ATOM      3  C   UNL     1       4.611   5.165  18.316  0.00  0.00    +0.000 A 
ATOM      4  N   UNL     1       4.768   4.011  19.055  0.00  0.00    +0.000 N 
ATOM      5  C   UNL     1       3.614   3.687  19.715  0.00  0.00    +0.000 A 
ATOM      6  C   UNL     1       3.341   2.594  20.544  0.00  0.00    +0.000 A 
ATOM      7  C   UNL     1       2.073   2.525  21.120  0.00  0.00    +0.000 A 
ATOM      8  C   UNL     1       1.123   3.517  20.882  0.00  0.00    +0.000 A 
ATOM      9  C   UNL     1       1.418   4.602  20.046  0.00  0.00    +0.000 A 
ATOM     10  C   UNL     1       2.691   4.687  19.444  0.00  0.00    +0.000 A 
ATOM     11  H   UNL     1       5.630   3.484  19.131  0.00  0.00    +0.000 HD
ENDROOT
BRANCH   3  12
ATOM     12  C   UNL     1       5.763   5.713  17.486  0.00  0.00    +0.000 C 
BRANCH  12  13
ATOM     13  C   UNL     1       5.611   5.607  15.950  0.00  0.00    +0.000 C 
ATOM     14  F   UNL     1       5.037   6.689  15.382  0.00  0.00    +0.000 F 
ATOM     15  F   UNL     1       6.833   5.463  15.377  0.00  0.00    +0.000 F 
ATOM     16  F   UNL     1       4.893   4.524  15.575  0.00  0.00    +0.000 F 
ENDBRANCH  12  13
BRANCH  12  17
ATOM     17  C   UNL     1       7.118   5.156  17.957  0.00  0.00    +0.000 C 
BRANCH  17  18
ATOM     18  C   UNL     1       7.819   6.040  18.966  0.00  0.00    +0.000 C 
ATOM     19  O   UNL     1       8.301   7.137  18.730  0.00  0.00    +0.000 OA
BRANCH  18  20
ATOM     20  O   UNL     1       7.849   5.491  20.202  0.00  0.00    +0.000 OA
ATOM     21  H   UNL     1       7.878   6.138  20.932  0.00  0.00    +0.000 HD
ENDBRANCH  18  20
ENDBRANCH  17  18
ENDBRANCH  12  17
ENDBRANCH   3  12
TORSDOF 5
ENDMDL
MODEL 4
REMARK VINA RESULT:      -7.8      0.273      1.173
REMARK  Name = 
REMARK  6 active torsions:
REMARK  status: ('A' for Active; 'I' for Inactive)
REMARK    1  A    between atoms: C_1  and  C_2
REMARK    2  A    between atoms: C_3  and  C_4
REMARK    3  A    between atoms: C_4  and  C_5
REMARK    4  A    between atoms: C_4  and  C_9
REMARK    5  A    between atoms: C_5  and  C_6
REMARK    6  A    between atoms: C_6  and  O_8
REMARK                            x       y       z     vdW  Elec       q    Type
REMARK                         _______ _______ _______ _____ _____    ______ ____
ROOT
ATOM      1  C   UNL     1       3.468   7.009  17.852  0.00  0.00    +0.000 C 
ATOM      2  C   UNL     1       3.822   5.631  18.291  0.00  0.00    +0.000 A 
ATOM      3  C   UNL     1       4.971   4.897  18.012  0.00  0.00    +0.000 A 
ATOM      4  N   UNL     1       4.848   3.690  18.670  0.00  0.00    +0.000 N 
ATOM      5  C   UNL     1       3.646   3.602  19.316  0.00  0.00    +0.000 A 
ATOM      6  C   UNL     1       3.118   2.549  20.072  0.00  0.00    +0.000 A 
ATOM      7  C   UNL     1       1.865   2.740  20.653  0.00  0.00    +0.000 A 
ATOM      8  C   UNL     1       1.176   3.941  20.491  0.00  0.00    +0.000 A 
ATOM      9  C   UNL     1       1.723   4.981  19.728  0.00  0.00    +0.000 A 
ATOM     10  C   UNL     1       2.985   4.806  19.122  0.00  0.00    +0.000 A 
ATOM     11  H   UNL     1       5.562   2.972  18.702  0.00  0.00    +0.000 HD
ENDROOT
BRANCH   3  12
ATOM     12  C   UNL     1       6.226   5.215  17.211  0.00  0.00    +0.000 C 
BRANCH  12  13
ATOM     13  C   UNL     1       6.269   4.673  15.762  0.00  0.00    +0.000 C 
ATOM     14  F   UNL     1       7.444   4.888  15.133  0.00  0.00    +0.000 F 
ATOM     15  F   UNL     1       6.065   3.330  15.768  0.00  0.00    +0.000 F 
ATOM     16  F   UNL     1       5.291   5.195  14.986  0.00  0.00    +0.000 F 
ENDBRANCH  12  13
BRANCH  12  17
ATOM     17  C   UNL     1       7.504   4.848  17.986  0.00  0.00    +0.000 C 
BRANCH  17  18
ATOM     18  C   UNL     1       7.937   5.907  18.976  0.00  0.00    +0.000 C 
ATOM     19  O   UNL     1       8.223   7.061  18.696  0.00  0.00    +0.000 OA
BRANCH  18  20
ATOM     20  O   UNL     1       7.962   5.449  20.248  0.00  0.00    +0.000 OA
ATOM     21  H   UNL     1       7.654   4.529  20.354  0.00  0.00    +0.000 HD
ENDBRANCH  18  20
ENDBRANCH  17  18
ENDBRANCH  12  17
ENDBRANCH   3  12
TORSDOF 5
ENDMDL
MODEL 5
REMARK VINA RESULT:      -7.8      1.575      1.820
REMARK  Name = 
REMARK  6 active torsions:
REMARK  status: ('A' for Active; 'I' for Inactive)
REMARK    1  A    between atoms: C_1  and  C_2
REMARK    2  A    between atoms: C_3  and  C_4
REMARK    3  A    between atoms: C_4  and  C_5
REMARK    4  A    between atoms: C_4  and  C_9
REMARK    5  A    between atoms: C_5  and  C_6
REMARK    6  A    between atoms: C_6  and  O_8
REMARK                            x       y       z     vdW  Elec       q    Type
REMARK                         _______ _______ _______ _____ _____    ______ ____
ROOT
ATOM      1  C   UNL     1       3.347   7.012  17.967  0.00  0.00    +0.000 C 
ATOM      2  C   UNL     1       3.486   5.553  17.701  0.00  0.00    +0.000 A 
ATOM      3  C   UNL     1       4.395   4.903  16.871  0.00  0.00    +0.000 A 
ATOM      4  N   UNL     1       4.147   3.551  16.985  0.00  0.00    +0.000 N 
ATOM      5  C   UNL     1       3.086   3.312  17.813  0.00  0.00    +0.000 A 
ATOM      6  C   UNL     1       2.497   2.095  18.176  0.00  0.00    +0.000 A 
ATOM      7  C   UNL     1       1.431   2.139  19.074  0.00  0.00    +0.000 A 
ATOM      8  C   UNL     1       0.983   3.352  19.595  0.00  0.00    +0.000 A 
ATOM      9  C   UNL     1       1.586   4.559  19.215  0.00  0.00    +0.000 A 
ATOM     10  C   UNL     1       2.659   4.539  18.299  0.00  0.00    +0.000 A 
ATOM     11  H   UNL     1       4.695   2.821  16.542  0.00  0.00    +0.000 HD
ENDROOT
BRANCH   3  12
ATOM     12  C   UNL     1       5.526   5.409  15.987  0.00  0.00    +0.000 C 
BRANCH  12  13
ATOM     13  C   UNL     1       5.943   4.490  14.815  0.00  0.00    +0.000 C 
ATOM     14  F   UNL     1       5.016   4.396  13.838  0.00  0.00    +0.000 F 
ATOM     15  F   UNL     1       7.076   4.966  14.238  0.00  0.00    +0.000 F 
ATOM     16  F   UNL     1       6.232   3.233  15.221  0.00  0.00    +0.000 F 
ENDBRANCH  12  13
BRANCH  12  17
ATOM     17  C   UNL     1       6.745   5.847  16.819  0.00  0.00    +0.000 C 
BRANCH  17  18
ATOM     18  C   UNL     1       7.199   4.808  17.821  0.00  0.00    +0.000 C 
ATOM     19  O   UNL     1       6.691   4.610  18.913  0.00  0.00    +0.000 OA
BRANCH  18  20
ATOM     20  O   UNL     1       8.247   4.080  17.372  0.00  0.00    +0.000 OA
ATOM     21  H   UNL     1       8.656   3.501  18.043  0.00  0.00    +0.000 HD
ENDBRANCH  18  20
ENDBRANCH  17  18
ENDBRANCH  12  17
ENDBRANCH   3  12
TORSDOF 5
ENDMDL
MODEL 6
REMARK VINA RESULT:      -7.8      0.878      1.403
REMARK  Name = 
REMARK  6 active torsions:
REMARK  status: ('A' for Active; 'I' for Inactive)
REMARK    1  A    between atoms: C_1  and  C_2
REMARK    2  A    between atoms: C_3  and  C_4
REMARK    3  A    between atoms: C_4  and  C_5
REMARK    4  A    between atoms: C_4  and  C_9
REMARK    5  A    between atoms: C_5  and  C_6
REMARK    6  A    between atoms: C_6  and  O_8
REMARK                            x       y       z     vdW  Elec       q    Type
REMARK                         _______ _______ _______ _____ _____    ______ ____
ROOT
ATOM      1  C   UNL     1       3.506   6.860  17.847  0.00  0.00    +0.000 C 
ATOM      2  C   UNL     1       3.787   5.401  17.944  0.00  0.00    +0.000 A 
ATOM      3  C   UNL     1       4.904   4.698  17.501  0.00  0.00    +0.000 A 
ATOM      4  N   UNL     1       4.712   3.377  17.849  0.00  0.00    +0.000 N 
ATOM      5  C   UNL     1       3.498   3.197  18.452  0.00  0.00    +0.000 A 
ATOM      6  C   UNL     1       2.909   2.022  18.931  0.00  0.00    +0.000 A 
ATOM      7  C   UNL     1       1.657   2.131  19.538  0.00  0.00    +0.000 A 
ATOM      8  C   UNL     1       1.030   3.369  19.667  0.00  0.00    +0.000 A 
ATOM      9  C   UNL     1       1.637   4.532  19.177  0.00  0.00    +0.000 A 
ATOM     10  C   UNL     1       2.899   4.444  18.550  0.00  0.00    +0.000 A 
ATOM     11  H   UNL     1       5.391   2.636  17.711  0.00  0.00    +0.000 HD
ENDROOT
BRANCH   3  12
ATOM     12  C   UNL     1       6.184   5.135  16.802  0.00  0.00    +0.000 C 
BRANCH  12  13
ATOM     13  C   UNL     1       6.351   4.683  15.332  0.00  0.00    +0.000 C 
ATOM     14  F   UNL     1       5.405   5.171  14.500  0.00  0.00    +0.000 F 
ATOM     15  F   UNL     1       7.550   5.103  14.856  0.00  0.00    +0.000 F 
ATOM     16  F   UNL     1       6.349   3.336  15.202  0.00  0.00    +0.000 F 
ENDBRANCH  12  13
BRANCH  12  17
ATOM     17  C   UNL     1       7.431   4.797  17.639  0.00  0.00    +0.000 C 
BRANCH  17  18
ATOM     18  C   UNL     1       7.695   5.782  18.757  0.00  0.00    +0.000 C 
ATOM     19  O   UNL     1       8.146   6.908  18.616  0.00  0.00    +0.000 OA
BRANCH  18  20
ATOM     20  O   UNL     1       7.356   5.291  19.971  0.00  0.00    +0.000 OA
ATOM     21  H   UNL     1       6.935   5.937  20.567  0.00  0.00    +0.000 HD
ENDBRANCH  18  20
ENDBRANCH  17  18
ENDBRANCH  12  17
ENDBRANCH   3  12
TORSDOF 5
ENDMDL
MODEL 7
REMARK VINA RESULT:      -7.8      2.360      2.887
REMARK  Name = 
REMARK  6 active torsions:
REMARK  status: ('A' for Active; 'I' for Inactive)
REMARK    1  A    between atoms: C_1  and  C_2
REMARK    2  A    between atoms: C_3  and  C_4
REMARK    3  A    between atoms: C_4  and  C_5
REMARK    4  A    between atoms: C_4  and  C_9
REMARK    5  A    between atoms: C_5  and  C_6
REMARK    6  A    between atoms: C_6  and  O_8
REMARK                            x       y       z     vdW  Elec       q    Type
REMARK                         _______ _______ _______ _____ _____    ______ ____
ROOT
ATOM      1  C   UNL     1       3.751   6.709  17.863  0.00  0.00    +0.000 C 
ATOM      2  C   UNL     1       3.806   5.241  18.108  0.00  0.00    +0.000 A 
ATOM      3  C   UNL     1       4.769   4.325  17.694  0.00  0.00    +0.000 A 
ATOM      4  N   UNL     1       4.396   3.095  18.195  0.00  0.00    +0.000 N 
ATOM      5  C   UNL     1       3.209   3.176  18.868  0.00  0.00    +0.000 A 
ATOM      6  C   UNL     1       2.474   2.167  19.500  0.00  0.00    +0.000 A 
ATOM      7  C   UNL     1       1.295   2.538  20.147  0.00  0.00    +0.000 A 
ATOM      8  C   UNL     1       0.878   3.868  20.167  0.00  0.00    +0.000 A 
ATOM      9  C   UNL     1       1.628   4.862  19.525  0.00  0.00    +0.000 A 
ATOM     10  C   UNL     1       2.819   4.508  18.855  0.00  0.00    +0.000 A 
ATOM     11  H   UNL     1       4.941   2.244  18.108  0.00  0.00    +0.000 HD
ENDROOT
BRANCH   3  12
ATOM     12  C   UNL     1       6.056   4.476  16.895  0.00  0.00    +0.000 C 
BRANCH  12  13
ATOM     13  C   UNL     1       7.274   5.047  17.659  0.00  0.00    +0.000 C 
ATOM     14  F   UNL     1       7.059   5.217  18.981  0.00  0.00    +0.000 F 
ATOM     15  F   UNL     1       8.330   4.203  17.537  0.00  0.00    +0.000 F 
ATOM     16  F   UNL     1       7.686   6.235  17.160  0.00  0.00    +0.000 F 
ENDBRANCH  12  13
BRANCH  12  17
ATOM     17  C   UNL     1       5.819   5.227  15.573  0.00  0.00    +0.000 C 
BRANCH  17  18
ATOM     18  C   UNL     1       6.629   4.686  14.414  0.00  0.00    +0.000 C 
ATOM     19  O   UNL     1       6.328   3.719  13.732  0.00  0.00    +0.000 OA
BRANCH  18  20
ATOM     20  O   UNL     1       7.750   5.408  14.184  0.00  0.00    +0.000 OA
ATOM     21  H   UNL     1       8.413   4.961  13.627  0.00  0.00    +0.000 HD
ENDBRANCH  18  20
ENDBRANCH  17  18
ENDBRANCH  12  17
ENDBRANCH   3  12
TORSDOF 5
ENDMDL
MODEL 8
REMARK VINA RESULT:      -7.6      1.435      1.786
REMARK  Name = 
REMARK  6 active torsions:
REMARK  status: ('A' for Active; 'I' for Inactive)
REMARK    1  A    between atoms: C_1  and  C_2
REMARK    2  A    between atoms: C_3  and  C_4
REMARK    3  A    between atoms: C_4  and  C_5
REMARK    4  A    between atoms: C_4  and  C_9
REMARK    5  A    between atoms: C_5  and  C_6
REMARK    6  A    between atoms: C_6  and  O_8
REMARK                            x       y       z     vdW  Elec       q    Type
REMARK                         _______ _______ _______ _____ _____    ______ ____
ROOT
ATOM      1  C   UNL     1       3.476   6.898  17.778  0.00  0.00    +0.000 C 
ATOM      2  C   UNL     1       3.709   5.433  17.644  0.00  0.00    +0.000 A 
ATOM      3  C   UNL     1       4.735   4.773  16.975  0.00  0.00    +0.000 A 
ATOM      4  N   UNL     1       4.535   3.421  17.165  0.00  0.00    +0.000 N 
ATOM      5  C   UNL     1       3.395   3.188  17.884  0.00  0.00    +0.000 A 
ATOM      6  C   UNL     1       2.821   1.972  18.271  0.00  0.00    +0.000 A 
ATOM      7  C   UNL     1       1.657   2.026  19.037  0.00  0.00    +0.000 A 
ATOM      8  C   UNL     1       1.099   3.248  19.407  0.00  0.00    +0.000 A 
ATOM      9  C   UNL     1       1.689   4.454  19.006  0.00  0.00    +0.000 A 
ATOM     10  C   UNL     1       2.862   4.424  18.222  0.00  0.00    +0.000 A 
ATOM     11  H   UNL     1       5.162   2.691  16.846  0.00  0.00    +0.000 HD
ENDROOT
BRANCH   3  12
ATOM     12  C   UNL     1       5.939   5.272  16.189  0.00  0.00    +0.000 C 
BRANCH  12  13
ATOM     13  C   UNL     1       6.179   4.610  14.811  0.00  0.00    +0.000 C 
ATOM     14  F   UNL     1       7.107   5.238  14.057  0.00  0.00    +0.000 F 
ATOM     15  F   UNL     1       6.610   3.334  14.983  0.00  0.00    +0.000 F 
ATOM     16  F   UNL     1       5.048   4.526  14.074  0.00  0.00    +0.000 F 
ENDBRANCH  12  13
BRANCH  12  17
ATOM     17  C   UNL     1       7.219   5.268  17.045  0.00  0.00    +0.000 C 
BRANCH  17  18
ATOM     18  C   UNL     1       7.511   6.599  17.703  0.00  0.00    +0.000 C 
ATOM     19  O   UNL     1       8.116   6.751  18.752  0.00  0.00    +0.000 OA
BRANCH  18  20
ATOM     20  O   UNL     1       7.038   7.646  16.987  0.00  0.00    +0.000 OA
ATOM     21  H   UNL     1       7.426   7.736  16.097  0.00  0.00    +0.000 HD
ENDBRANCH  18  20
ENDBRANCH  17  18
ENDBRANCH  12  17
ENDBRANCH   3  12
TORSDOF 5
ENDMDL
MODEL 9
REMARK VINA RESULT:      -7.6      2.682      3.056
REMARK  Name = 
REMARK  6 active torsions:
REMARK  status: ('A' for Active; 'I' for Inactive)
REMARK    1  A    between atoms: C_1  and  C_2
REMARK    2  A    between atoms: C_3  and  C_4
REMARK    3  A    between atoms: C_4  and  C_5
REMARK    4  A    between atoms: C_4  and  C_9
REMARK    5  A    between atoms: C_5  and  C_6
REMARK    6  A    between atoms: C_6  and  O_8
REMARK                            x       y       z     vdW  Elec       q    Type
REMARK                         _______ _______ _______ _____ _____    ______ ____
ROOT
ATOM      1  C   UNL     1       3.770   6.678  17.906  0.00  0.00    +0.000 C 
ATOM      2  C   UNL     1       4.005   5.211  18.015  0.00  0.00    +0.000 A 
ATOM      3  C   UNL     1       5.186   4.501  17.818  0.00  0.00    +0.000 A 
ATOM      4  N   UNL     1       4.904   3.174  18.066  0.00  0.00    +0.000 N 
ATOM      5  C   UNL     1       3.581   2.998  18.365  0.00  0.00    +0.000 A 
ATOM      6  C   UNL     1       2.884   1.820  18.654  0.00  0.00    +0.000 A 
ATOM      7  C   UNL     1       1.527   1.934  18.957  0.00  0.00    +0.000 A 
ATOM      8  C   UNL     1       0.901   3.178  18.981  0.00  0.00    +0.000 A 
ATOM      9  C   UNL     1       1.618   4.345  18.685  0.00  0.00    +0.000 A 
ATOM     10  C   UNL     1       2.989   4.253  18.365  0.00  0.00    +0.000 A 
ATOM     11  H   UNL     1       5.588   2.425  18.063  0.00  0.00    +0.000 HD
ENDROOT
BRANCH   3  12
ATOM     12  C   UNL     1       6.598   4.936  17.450  0.00  0.00    +0.000 C 
BRANCH  12  13
ATOM     13  C   UNL     1       7.405   5.649  18.560  0.00  0.00    +0.000 C 
ATOM     14  F   UNL     1       7.789   6.903  18.237  0.00  0.00    +0.000 F 
ATOM     15  F   UNL     1       6.652   5.746  19.686  0.00  0.00    +0.000 F 
ATOM     16  F   UNL     1       8.517   4.963  18.913  0.00  0.00    +0.000 F 
ENDBRANCH  12  13
BRANCH  12  17
ATOM     17  C   UNL     1       6.622   5.735  16.135  0.00  0.00    +0.000 C 
BRANCH  17  18
ATOM     18  C   UNL     1       6.965   4.896  14.923  0.00  0.00    +0.000 C 
ATOM     19  O   UNL     1       6.447   3.830  14.632  0.00  0.00    +0.000 OA
BRANCH  18  20
ATOM     20  O   UNL     1       7.921   5.465  14.153  0.00  0.00    +0.000 OA
ATOM     21  H   UNL     1       8.768   4.982  14.134  0.00  0.00    +0.000 HD
ENDBRANCH  18  20
ENDBRANCH  17  18
ENDBRANCH  12  17
ENDBRANCH   3  12
TORSDOF 5
ENDMDL
