MODEL 1
REMARK VINA RESULT:      -9.0      0.000      0.000
REMARK  Name = 
REMARK  10 active torsions:
REMARK  status: ('A' for Active; 'I' for Inactive)
REMARK    1  A    between atoms: C_1  and  N_2
REMARK    2  A    between atoms: C_6  and  S_7
REMARK    3  A    between atoms: S_7  and  C_8
REMARK    4  A    between atoms: C_11  and  N_12
REMARK    5  A    between atoms: N_12  and  C_13
REMARK    6  A    between atoms: C_14  and  C_15
REMARK    7  A    between atoms: C_21  and  C_22
REMARK    8  A    between atoms: C_23  and  C_24
REMARK    9  A    between atoms: C_24  and  C_25
REMARK   10  A    between atoms: C_25  and  O_26
REMARK                            x       y       z     vdW  Elec       q    Type
REMARK                         _______ _______ _______ _____ _____    ______ ____
ROOT
ATOM      1  C   UNL     1       3.416   4.867  18.947  0.00  0.00    +0.000 A 
ATOM      2  C   UNL     1       2.871   3.654  19.413  0.00  0.00    +0.000 A 
ATOM      3  C   UNL     1       3.171   2.491  18.727  0.00  0.00    +0.000 A 
ATOM      4  N   UNL     1       3.931   2.440  17.616  0.00  0.00    +0.000 NA
ATOM      5  C   UNL     1       4.395   3.592  17.114  0.00  0.00    +0.000 A 
ATOM      6  C   UNL     1       5.140   3.515  15.943  0.00  0.00    +0.000 A 
ATOM      7  C   UNL     1       5.666   4.645  15.313  0.00  0.00    +0.000 A 
ATOM      8  C   UNL     1       5.398   5.893  15.871  0.00  0.00    +0.000 A 
ATOM      9  C   UNL     1       4.675   5.993  17.064  0.00  0.00    +0.000 A 
ATOM     10  C   UNL     1       4.161   4.848  17.722  0.00  0.00    +0.000 A 
ENDROOT
BRANCH   1  11
ATOM     11  N   UNL     1       3.296   6.072  19.699  0.00  0.00    +0.000 N 
ATOM     12  H   UNL     1       3.579   6.011  20.671  0.00  0.00    +0.000 HD
BRANCH  11  16
ATOM     13  C   UNL     1       1.033   9.631  19.129  0.00  0.00    +0.000 A 
ATOM     14  C   UNL     1       1.779   9.086  18.076  0.00  0.00    +0.000 A 
ATOM     15  C   UNL     1       2.475   7.881  18.235  0.00  0.00    +0.000 A 
ATOM     16  C   UNL     1       2.481   7.205  19.460  0.00  0.00    +0.000 A 
ATOM     17  C   UNL     1       1.713   7.733  20.505  0.00  0.00    +0.000 A 
ATOM     18  C   UNL     1       0.989   8.926  20.341  0.00  0.00    +0.000 A 
ATOM     19 CL   UNL     1       0.070   9.487  21.700  0.00  0.00    +0.000 Cl
BRANCH  13  20
ATOM     20  S   UNL     1       0.275  11.240  18.899  0.00  0.00    +0.000 S 
BRANCH  20  26
ATOM     21  C   UNL     1      -2.641  12.358  19.673  0.00  0.00    +0.000 C 
ATOM     22  N   UNL     1      -2.445  11.325  18.684  0.00  0.00    +0.000 N 
ATOM     23  C   UNL     1      -3.456  10.720  17.981  0.00  0.00    +0.000 A 
ATOM     24  C   UNL     1      -2.829   9.815  17.158  0.00  0.00    +0.000 A 
ATOM     25  N   UNL     1      -1.473   9.848  17.345  0.00  0.00    +0.000 NA
ATOM     26  C   UNL     1      -1.267  10.755  18.273  0.00  0.00    +0.000 A 
ENDBRANCH  20  26
ENDBRANCH  13  20
ENDBRANCH  11  16
ENDBRANCH   1  11
BRANCH   2  27
ATOM     27  C   UNL     1       1.959   3.552  20.510  0.00  0.00    +0.000 C 
ATOM     28  N   UNL     1       1.221   3.530  21.409  0.00  0.00    +0.000 NA
ENDBRANCH   2  27
BRANCH   7  29
ATOM     29  C   UNL     1       6.443   4.473  14.071  0.00  0.00    +0.000 C 
ATOM     30  C   UNL     1       6.066   3.707  13.036  0.00  0.00    +0.000 C 
BRANCH  30  31
ATOM     31  C   UNL     1       6.850   3.586  11.755  0.00  0.00    +0.000 C 
BRANCH  31  32
ATOM     32  C   UNL     1       7.214   2.134  11.440  0.00  0.00    +0.000 C 
BRANCH  32  33
ATOM     33  O   UNL     1       6.052   1.316  11.348  0.00  0.00    +0.000 OA
ATOM     34  H   UNL     1       6.310   0.417  11.617  0.00  0.00    +0.000 HD
ENDBRANCH  32  33
ENDBRANCH  31  32
ENDBRANCH  30  31
ENDBRANCH   7  29
TORSDOF 9
ENDMDL
MODEL 2
REMARK VINA RESULT:      -8.8      1.809      2.485
REMARK  Name = 
REMARK  10 active torsions:
REMARK  status: ('A' for Active; 'I' for Inactive)
REMARK    1  A    between atoms: C_1  and  N_2
REMARK    2  A    between atoms: C_6  and  S_7
REMARK    3  A    between atoms: S_7  and  C_8
REMARK    4  A    between atoms: C_11  and  N_12
REMARK    5  A    between atoms: N_12  and  C_13
REMARK    6  A    between atoms: C_14  and  C_15
REMARK    7  A    between atoms: C_21  and  C_22
REMARK    8  A    between atoms: C_23  and  C_24
REMARK    9  A    between atoms: C_24  and  C_25
REMARK   10  A    between atoms: C_25  and  O_26
REMARK                            x       y       z     vdW  Elec       q    Type
REMARK                         _______ _______ _______ _____ _____    ______ ____
ROOT
ATOM      1  C   UNL     1       3.455   5.065  18.843  0.00  0.00    +0.000 A 
ATOM      2  C   UNL     1       2.863   3.880  19.325  0.00  0.00    +0.000 A 
ATOM      3  C   UNL     1       3.136   2.693  18.669  0.00  0.00    +0.000 A 
ATOM      4  N   UNL     1       3.912   2.594  17.572  0.00  0.00    +0.000 NA
ATOM      5  C   UNL     1       4.420   3.718  17.054  0.00  0.00    +0.000 A 
ATOM      6  C   UNL     1       5.181   3.593  15.897  0.00  0.00    +0.000 A 
ATOM      7  C   UNL     1       5.753   4.691  15.251  0.00  0.00    +0.000 A 
ATOM      8  C   UNL     1       5.517   5.959  15.778  0.00  0.00    +0.000 A 
ATOM      9  C   UNL     1       4.779   6.108  16.956  0.00  0.00    +0.000 A 
ATOM     10  C   UNL     1       4.218   4.995  17.631  0.00  0.00    +0.000 A 
ENDROOT
BRANCH   1  11
ATOM     11  N   UNL     1       3.361   6.289  19.567  0.00  0.00    +0.000 N 
ATOM     12  H   UNL     1       3.789   6.286  20.486  0.00  0.00    +0.000 HD
BRANCH  11  16
ATOM     13  C   UNL     1       0.777   9.656  19.265  0.00  0.00    +0.000 A 
ATOM     14  C   UNL     1       1.502   9.214  18.151  0.00  0.00    +0.000 A 
ATOM     15  C   UNL     1       2.306   8.069  18.224  0.00  0.00    +0.000 A 
ATOM     16  C   UNL     1       2.442   7.355  19.418  0.00  0.00    +0.000 A 
ATOM     17  C   UNL     1       1.695   7.779  20.525  0.00  0.00    +0.000 A 
ATOM     18  C   UNL     1       0.865   8.909  20.449  0.00  0.00    +0.000 A 
ATOM     19 CL   UNL     1      -0.016   9.342  21.878  0.00  0.00    +0.000 Cl
BRANCH  13  20
ATOM     20  S   UNL     1      -0.126  11.201  19.141  0.00  0.00    +0.000 S 
BRANCH  20  26
ATOM     21  C   UNL     1       2.441  12.682  17.888  0.00  0.00    +0.000 C 
ATOM     22  N   UNL     1       2.052  12.843  19.269  0.00  0.00    +0.000 N 
ATOM     23  C   UNL     1       2.717  13.626  20.178  0.00  0.00    +0.000 A 
ATOM     24  C   UNL     1       2.011  13.492  21.350  0.00  0.00    +0.000 A 
ATOM     25  N   UNL     1       0.946  12.649  21.182  0.00  0.00    +0.000 NA
ATOM     26  C   UNL     1       0.996  12.264  19.926  0.00  0.00    +0.000 A 
ENDBRANCH  20  26
ENDBRANCH  13  20
ENDBRANCH  11  16
ENDBRANCH   1  11
BRANCH   2  27
ATOM     27  C   UNL     1       1.931   3.831  20.409  0.00  0.00    +0.000 C 
ATOM     28  N   UNL     1       1.171   3.730  21.283  0.00  0.00    +0.000 NA
ENDBRANCH   2  27
BRANCH   7  29
ATOM     29  C   UNL     1       6.543   4.467  14.026  0.00  0.00    +0.000 C 
ATOM     30  C   UNL     1       6.120   3.768  12.963  0.00  0.00    +0.000 C 
BRANCH  30  31
ATOM     31  C   UNL     1       6.923   3.595  11.700  0.00  0.00    +0.000 C 
BRANCH  31  32
ATOM     32  C   UNL     1       7.139   2.120  11.355  0.00  0.00    +0.000 C 
BRANCH  32  33
ATOM     33  O   UNL     1       5.949   1.363  11.547  0.00  0.00    +0.000 OA
ATOM     34  H   UNL     1       5.408   1.465  10.744  0.00  0.00    +0.000 HD
ENDBRANCH  32  33
ENDBRANCH  31  32
ENDBRANCH  30  31
ENDBRANCH   7  29
TORSDOF 9
ENDMDL
MODEL 3
REMARK VINA RESULT:      -8.6      1.789      2.259
REMARK  Name = 
REMARK  10 active torsions:
REMARK  status: ('A' for Active; 'I' for Inactive)
REMARK    1  A    between atoms: C_1  and  N_2
REMARK    2  A    between atoms: C_6  and  S_7
REMARK    3  A    between atoms: S_7  and  C_8
REMARK    4  A    between atoms: C_11  and  N_12
REMARK    5  A    between atoms: N_12  and  C_13
REMARK    6  A    between atoms: C_14  and  C_15
REMARK    7  A    between atoms: C_21  and  C_22
REMARK    8  A    between atoms: C_23  and  C_24
REMARK    9  A    between atoms: C_24  and  C_25
REMARK   10  A    between atoms: C_25  and  O_26
REMARK                            x       y       z     vdW  Elec       q    Type
REMARK                         _______ _______ _______ _____ _____    ______ ____
ROOT
ATOM      1  C   UNL     1       3.494   5.127  18.984  0.00  0.00    +0.000 A 
ATOM      2  C   UNL     1       3.016   3.916  19.524  0.00  0.00    +0.000 A 
ATOM      3  C   UNL     1       3.325   2.737  18.871  0.00  0.00    +0.000 A 
ATOM      4  N   UNL     1       4.031   2.666  17.726  0.00  0.00    +0.000 NA
ATOM      5  C   UNL     1       4.427   3.811  17.156  0.00  0.00    +0.000 A 
ATOM      6  C   UNL     1       5.116   3.711  15.953  0.00  0.00    +0.000 A 
ATOM      7  C   UNL     1       5.570   4.831  15.252  0.00  0.00    +0.000 A 
ATOM      8  C   UNL     1       5.284   6.091  15.773  0.00  0.00    +0.000 A 
ATOM      9  C   UNL     1       4.617   6.216  16.996  0.00  0.00    +0.000 A 
ATOM     10  C   UNL     1       4.178   5.082  17.725  0.00  0.00    +0.000 A 
ENDROOT
BRANCH   1  11
ATOM     11  N   UNL     1       3.367   6.357  19.692  0.00  0.00    +0.000 N 
ATOM     12  H   UNL     1       3.816   6.387  20.601  0.00  0.00    +0.000 HD
BRANCH  11  16
ATOM     13  C   UNL     1       0.636   9.609  19.408  0.00  0.00    +0.000 A 
ATOM     14  C   UNL     1       1.364   9.192  18.287  0.00  0.00    +0.000 A 
ATOM     15  C   UNL     1       2.217   8.083  18.354  0.00  0.00    +0.000 A 
ATOM     16  C   UNL     1       2.401   7.382  19.551  0.00  0.00    +0.000 A 
ATOM     17  C   UNL     1       1.652   7.781  20.665  0.00  0.00    +0.000 A 
ATOM     18  C   UNL     1       0.773   8.874  20.595  0.00  0.00    +0.000 A 
ATOM     19 CL   UNL     1      -0.105   9.278  22.034  0.00  0.00    +0.000 Cl
BRANCH  13  20
ATOM     20  S   UNL     1      -0.333  11.113  19.289  0.00  0.00    +0.000 S 
BRANCH  20  26
ATOM     21  C   UNL     1      -0.264  12.928  21.945  0.00  0.00    +0.000 C 
ATOM     22  N   UNL     1       0.776  12.980  20.944  0.00  0.00    +0.000 N 
ATOM     23  C   UNL     1       1.881  13.789  21.013  0.00  0.00    +0.000 A 
ATOM     24  C   UNL     1       2.596  13.517  19.871  0.00  0.00    +0.000 A 
ATOM     25  N   UNL     1       1.956  12.575  19.111  0.00  0.00    +0.000 NA
ATOM     26  C   UNL     1       0.860  12.275  19.771  0.00  0.00    +0.000 A 
ENDBRANCH  20  26
ENDBRANCH  13  20
ENDBRANCH  11  16
ENDBRANCH   1  11
BRANCH   2  27
ATOM     27  C   UNL     1       2.164   3.829  20.669  0.00  0.00    +0.000 C 
ATOM     28  N   UNL     1       1.422   3.760  21.562  0.00  0.00    +0.000 NA
ENDBRANCH   2  27
BRANCH   7  29
ATOM     29  C   UNL     1       6.290   4.634  13.980  0.00  0.00    +0.000 C 
ATOM     30  C   UNL     1       6.156   3.561  13.186  0.00  0.00    +0.000 C 
BRANCH  30  31
ATOM     31  C   UNL     1       6.862   3.404  11.865  0.00  0.00    +0.000 C 
BRANCH  31  32
ATOM     32  C   UNL     1       6.377   2.171  11.098  0.00  0.00    +0.000 C 
BRANCH  32  33
ATOM     33  O   UNL     1       7.200   1.040  11.362  0.00  0.00    +0.000 OA
ATOM     34  H   UNL     1       7.016   0.382  10.669  0.00  0.00    +0.000 HD
ENDBRANCH  32  33
ENDBRANCH  31  32
ENDBRANCH  30  31
ENDBRANCH   7  29
TORSDOF 9
ENDMDL
MODEL 4
REMARK VINA RESULT:      -8.4      3.657      6.436
REMARK  Name = 
REMARK  10 active torsions:
REMARK  status: ('A' for Active; 'I' for Inactive)
REMARK    1  A    between atoms: C_1  and  N_2
REMARK    2  A    between atoms: C_6  and  S_7
REMARK    3  A    between atoms: S_7  and  C_8
REMARK    4  A    between atoms: C_11  and  N_12
REMARK    5  A    between atoms: N_12  and  C_13
REMARK    6  A    between atoms: C_14  and  C_15
REMARK    7  A    between atoms: C_21  and  C_22
REMARK    8  A    between atoms: C_23  and  C_24
REMARK    9  A    between atoms: C_24  and  C_25
REMARK   10  A    between atoms: C_25  and  O_26
REMARK                            x       y       z     vdW  Elec       q    Type
REMARK                         _______ _______ _______ _____ _____    ______ ____
ROOT
ATOM      1  C   UNL     1       0.072  10.395  20.377  0.00  0.00    +0.000 A 
ATOM      2  C   UNL     1      -0.106  10.212  21.764  0.00  0.00    +0.000 A 
ATOM      3  C   UNL     1       0.578   9.183  22.385  0.00  0.00    +0.000 A 
ATOM      4  N   UNL     1       1.388   8.316  21.747  0.00  0.00    +0.000 NA
ATOM      5  C   UNL     1       1.510   8.426  20.418  0.00  0.00    +0.000 A 
ATOM      6  C   UNL     1       2.316   7.491  19.779  0.00  0.00    +0.000 A 
ATOM      7  C   UNL     1       2.512   7.490  18.396  0.00  0.00    +0.000 A 
ATOM      8  C   UNL     1       1.841   8.445  17.636  0.00  0.00    +0.000 A 
ATOM      9  C   UNL     1       1.046   9.413  18.259  0.00  0.00    +0.000 A 
ATOM     10  C   UNL     1       0.865   9.436  19.665  0.00  0.00    +0.000 A 
ENDROOT
BRANCH   1  11
ATOM     11  N   UNL     1      -0.458  11.534  19.705  0.00  0.00    +0.000 N 
ATOM     12  H   UNL     1       0.022  12.409  19.883  0.00  0.00    +0.000 HD
BRANCH  11  16
ATOM     13  C   UNL     1      -4.410  11.892  18.165  0.00  0.00    +0.000 A 
ATOM     14  C   UNL     1      -4.077  12.450  19.407  0.00  0.00    +0.000 A 
ATOM     15  C   UNL     1      -2.764  12.393  19.893  0.00  0.00    +0.000 A 
ATOM     16  C   UNL     1      -1.754  11.744  19.175  0.00  0.00    +0.000 A 
ATOM     17  C   UNL     1      -2.079  11.211  17.921  0.00  0.00    +0.000 A 
ATOM     18  C   UNL     1      -3.387  11.292  17.416  0.00  0.00    +0.000 A 
ATOM     19 CL   UNL     1      -3.676  10.601  15.853  0.00  0.00    +0.000 Cl
BRANCH  13  20
ATOM     20  S   UNL     1      -6.131  11.883  17.665  0.00  0.00    +0.000 S 
BRANCH  20  26
ATOM     21  C   UNL     1      -7.693  13.123  20.190  0.00  0.00    +0.000 C 
ATOM     22  N   UNL     1      -7.483  11.704  20.030  0.00  0.00    +0.000 N 
ATOM     23  C   UNL     1      -7.916  10.750  20.915  0.00  0.00    +0.000 A 
ATOM     24  C   UNL     1      -7.511   9.552  20.376  0.00  0.00    +0.000 A 
ATOM     25  N   UNL     1      -6.842   9.750  19.198  0.00  0.00    +0.000 NA
ATOM     26  C   UNL     1      -6.829  11.052  19.016  0.00  0.00    +0.000 A 
ENDBRANCH  20  26
ENDBRANCH  13  20
ENDBRANCH  11  16
ENDBRANCH   1  11
BRANCH   2  27
ATOM     27  C   UNL     1      -1.012  10.976  22.565  0.00  0.00    +0.000 C 
ATOM     28  N   UNL     1      -1.726  11.647  23.190  0.00  0.00    +0.000 NA
ENDBRANCH   2  27
BRANCH   7  29
ATOM     29  C   UNL     1       3.383   6.459  17.800  0.00  0.00    +0.000 C 
ATOM     30  C   UNL     1       3.128   5.142  17.816  0.00  0.00    +0.000 C 
BRANCH  30  31
ATOM     31  C   UNL     1       4.004   4.111  17.155  0.00  0.00    +0.000 C 
BRANCH  31  32
ATOM     32  C   UNL     1       3.657   2.690  17.604  0.00  0.00    +0.000 C 
BRANCH  32  33
ATOM     33  O   UNL     1       2.294   2.591  18.003  0.00  0.00    +0.000 OA
ATOM     34  H   UNL     1       1.850   1.998  17.372  0.00  0.00    +0.000 HD
ENDBRANCH  32  33
ENDBRANCH  31  32
ENDBRANCH  30  31
ENDBRANCH   7  29
TORSDOF 9
ENDMDL
MODEL 5
REMARK VINA RESULT:      -8.2      3.684      6.537
REMARK  Name = 
REMARK  10 active torsions:
REMARK  status: ('A' for Active; 'I' for Inactive)
REMARK    1  A    between atoms: C_1  and  N_2
REMARK    2  A    between atoms: C_6  and  S_7
REMARK    3  A    between atoms: S_7  and  C_8
REMARK    4  A    between atoms: C_11  and  N_12
REMARK    5  A    between atoms: N_12  and  C_13
REMARK    6  A    between atoms: C_14  and  C_15
REMARK    7  A    between atoms: C_21  and  C_22
REMARK    8  A    between atoms: C_23  and  C_24
REMARK    9  A    between atoms: C_24  and  C_25
REMARK   10  A    between atoms: C_25  and  O_26
REMARK                            x       y       z     vdW  Elec       q    Type
REMARK                         _______ _______ _______ _____ _____    ______ ____
ROOT
ATOM      1  C   UNL     1      -0.020  10.468  20.497  0.00  0.00    +0.000 A 
ATOM      2  C   UNL     1      -0.193  10.232  21.876  0.00  0.00    +0.000 A 
ATOM      3  C   UNL     1       0.525   9.207  22.464  0.00  0.00    +0.000 A 
ATOM      4  N   UNL     1       1.364   8.390  21.799  0.00  0.00    +0.000 NA
ATOM      5  C   UNL     1       1.484   8.549  20.475  0.00  0.00    +0.000 A 
ATOM      6  C   UNL     1       2.322   7.664  19.807  0.00  0.00    +0.000 A 
ATOM      7  C   UNL     1       2.520   7.716  18.425  0.00  0.00    +0.000 A 
ATOM      8  C   UNL     1       1.818   8.673  17.696  0.00  0.00    +0.000 A 
ATOM      9  C   UNL     1       0.990   9.591  18.349  0.00  0.00    +0.000 A 
ATOM     10  C   UNL     1       0.806   9.561  19.755  0.00  0.00    +0.000 A 
ENDROOT
BRANCH   1  11
ATOM     11  N   UNL     1      -0.587  11.611  19.862  0.00  0.00    +0.000 N 
ATOM     12  H   UNL     1      -0.143  12.496  20.077  0.00  0.00    +0.000 HD
BRANCH  11  16
ATOM     13  C   UNL     1      -4.542  11.880  18.312  0.00  0.00    +0.000 A 
ATOM     14  C   UNL     1      -4.218  12.470  19.540  0.00  0.00    +0.000 A 
ATOM     15  C   UNL     1      -2.905  12.442  20.028  0.00  0.00    +0.000 A 
ATOM     16  C   UNL     1      -1.885  11.791  19.326  0.00  0.00    +0.000 A 
ATOM     17  C   UNL     1      -2.202  11.225  18.085  0.00  0.00    +0.000 A 
ATOM     18  C   UNL     1      -3.510  11.276  17.577  0.00  0.00    +0.000 A 
ATOM     19 CL   UNL     1      -3.788  10.546  16.029  0.00  0.00    +0.000 Cl
BRANCH  13  20
ATOM     20  S   UNL     1      -6.262  11.836  17.810  0.00  0.00    +0.000 S 
BRANCH  20  26
ATOM     21  C   UNL     1      -7.056   9.187  19.455  0.00  0.00    +0.000 C 
ATOM     22  N   UNL     1      -7.299  10.516  19.964  0.00  0.00    +0.000 N 
ATOM     23  C   UNL     1      -7.880  10.790  21.176  0.00  0.00    +0.000 A 
ATOM     24  C   UNL     1      -7.911  12.162  21.255  0.00  0.00    +0.000 A 
ATOM     25  N   UNL     1      -7.374  12.726  20.129  0.00  0.00    +0.000 NA
ATOM     26  C   UNL     1      -7.022  11.718  19.363  0.00  0.00    +0.000 A 
ENDBRANCH  20  26
ENDBRANCH  13  20
ENDBRANCH  11  16
ENDBRANCH   1  11
BRANCH   2  27
ATOM     27  C   UNL     1      -1.126  10.938  22.700  0.00  0.00    +0.000 C 
ATOM     28  N   UNL     1      -1.906  11.538  23.319  0.00  0.00    +0.000 NA
ENDBRANCH   2  27
BRANCH   7  29
ATOM     29  C   UNL     1       3.426   6.736  17.797  0.00  0.00    +0.000 C 
ATOM     30  C   UNL     1       4.457   7.052  16.998  0.00  0.00    +0.000 C 
BRANCH  30  31
ATOM     31  C   UNL     1       5.402   6.037  16.410  0.00  0.00    +0.000 C 
BRANCH  31  32
ATOM     32  C   UNL     1       6.185   5.288  17.490  0.00  0.00    +0.000 C 
BRANCH  32  33
ATOM     33  O   UNL     1       7.533   5.064  17.092  0.00  0.00    +0.000 OA
ATOM     34  H   UNL     1       8.105   5.439  17.784  0.00  0.00    +0.000 HD
ENDBRANCH  32  33
ENDBRANCH  31  32
ENDBRANCH  30  31
ENDBRANCH   7  29
TORSDOF 9
ENDMDL
MODEL 6
REMARK VINA RESULT:      -8.1      1.147      1.207
REMARK  Name = 
REMARK  10 active torsions:
REMARK  status: ('A' for Active; 'I' for Inactive)
REMARK    1  A    between atoms: C_1  and  N_2
REMARK    2  A    between atoms: C_6  and  S_7
REMARK    3  A    between atoms: S_7  and  C_8
REMARK    4  A    between atoms: C_11  and  N_12
REMARK    5  A    between atoms: N_12  and  C_13
REMARK    6  A    between atoms: C_14  and  C_15
REMARK    7  A    between atoms: C_21  and  C_22
REMARK    8  A    between atoms: C_23  and  C_24
REMARK    9  A    between atoms: C_24  and  C_25
REMARK   10  A    between atoms: C_25  and  O_26
REMARK                            x       y       z     vdW  Elec       q    Type
REMARK                         _______ _______ _______ _____ _____    ______ ____
ROOT
ATOM      1  C   UNL     1       3.178   4.744  19.578  0.00  0.00    +0.000 A 
ATOM      2  C   UNL     1       2.825   3.451  20.016  0.00  0.00    +0.000 A 
ATOM      3  C   UNL     1       3.273   2.364  19.288  0.00  0.00    +0.000 A 
ATOM      4  N   UNL     1       4.005   2.455  18.160  0.00  0.00    +0.000 NA
ATOM      5  C   UNL     1       4.285   3.676  17.686  0.00  0.00    +0.000 A 
ATOM      6  C   UNL     1       5.003   3.741  16.498  0.00  0.00    +0.000 A 
ATOM      7  C   UNL     1       5.345   4.953  15.892  0.00  0.00    +0.000 A 
ATOM      8  C   UNL     1       4.914   6.133  16.495  0.00  0.00    +0.000 A 
ATOM      9  C   UNL     1       4.214   6.093  17.705  0.00  0.00    +0.000 A 
ATOM     10  C   UNL     1       3.887   4.867  18.338  0.00  0.00    +0.000 A 
ENDROOT
BRANCH   1  11
ATOM     11  N   UNL     1       2.904   5.896  20.370  0.00  0.00    +0.000 N 
ATOM     12  H   UNL     1       2.959   5.760  21.373  0.00  0.00    +0.000 HD
BRANCH  11  16
ATOM     13  C   UNL     1       0.907   9.559  19.528  0.00  0.00    +0.000 A 
ATOM     14  C   UNL     1       1.693   8.936  18.549  0.00  0.00    +0.000 A 
ATOM     15  C   UNL     1       2.301   7.698  18.796  0.00  0.00    +0.000 A 
ATOM     16  C   UNL     1       2.179   7.066  20.037  0.00  0.00    +0.000 A 
ATOM     17  C   UNL     1       1.372   7.674  21.007  0.00  0.00    +0.000 A 
ATOM     18  C   UNL     1       0.734   8.900  20.754  0.00  0.00    +0.000 A 
ATOM     19 CL   UNL     1      -0.244   9.560  22.024  0.00  0.00    +0.000 Cl
BRANCH  13  20
ATOM     20  S   UNL     1       0.267  11.200  19.194  0.00  0.00    +0.000 S 
BRANCH  20  26
ATOM     21  C   UNL     1      -2.682  12.337  19.796  0.00  0.00    +0.000 C 
ATOM     22  N   UNL     1      -2.425  11.356  18.769  0.00  0.00    +0.000 N 
ATOM     23  C   UNL     1      -3.387  10.813  17.955  0.00  0.00    +0.000 A 
ATOM     24  C   UNL     1      -2.711   9.941  17.135  0.00  0.00    +0.000 A 
ATOM     25  N   UNL     1      -1.374   9.934  17.430  0.00  0.00    +0.000 NA
ATOM     26  C   UNL     1      -1.228  10.785  18.422  0.00  0.00    +0.000 A 
ENDBRANCH  20  26
ENDBRANCH  13  20
ENDBRANCH  11  16
ENDBRANCH   1  11
BRANCH   2  27
ATOM     27  C   UNL     1       1.966   3.187  21.128  0.00  0.00    +0.000 C 
ATOM     28  N   UNL     1       1.250   2.920  22.005  0.00  0.00    +0.000 NA
ENDBRANCH   2  27
BRANCH   7  29
ATOM     29  C   UNL     1       6.107   4.930  14.630  0.00  0.00    +0.000 C 
ATOM     30  C   UNL     1       5.954   4.012  13.663  0.00  0.00    +0.000 C 
BRANCH  30  31
ATOM     31  C   UNL     1       6.706   4.038  12.358  0.00  0.00    +0.000 C 
BRANCH  31  32
ATOM     32  C   UNL     1       8.003   4.844  12.459  0.00  0.00    +0.000 C 
BRANCH  32  33
ATOM     33  O   UNL     1       7.820   6.179  11.999  0.00  0.00    +0.000 OA
ATOM     34  H   UNL     1       7.314   6.653  12.682  0.00  0.00    +0.000 HD
ENDBRANCH  32  33
ENDBRANCH  31  32
ENDBRANCH  30  31
ENDBRANCH   7  29
TORSDOF 9
ENDMDL
MODEL 7
REMARK VINA RESULT:      -8.0      2.028      2.507
REMARK  Name = 
REMARK  10 active torsions:
REMARK  status: ('A' for Active; 'I' for Inactive)
REMARK    1  A    between atoms: C_1  and  N_2
REMARK    2  A    between atoms: C_6  and  S_7
REMARK    3  A    between atoms: S_7  and  C_8
REMARK    4  A    between atoms: C_11  and  N_12
REMARK    5  A    between atoms: N_12  and  C_13
REMARK    6  A    between atoms: C_14  and  C_15
REMARK    7  A    between atoms: C_21  and  C_22
REMARK    8  A    between atoms: C_23  and  C_24
REMARK    9  A    between atoms: C_24  and  C_25
REMARK   10  A    between atoms: C_25  and  O_26
REMARK                            x       y       z     vdW  Elec       q    Type
REMARK                         _______ _______ _______ _____ _____    ______ ____
ROOT
ATOM      1  C   UNL     1       3.378   5.091  19.228  0.00  0.00    +0.000 A 
ATOM      2  C   UNL     1       2.869   3.849  19.659  0.00  0.00    +0.000 A 
ATOM      3  C   UNL     1       3.213   2.714  18.948  0.00  0.00    +0.000 A 
ATOM      4  N   UNL     1       3.983   2.716  17.843  0.00  0.00    +0.000 NA
ATOM      5  C   UNL     1       4.413   3.894  17.374  0.00  0.00    +0.000 A 
ATOM      6  C   UNL     1       5.169   3.871  16.208  0.00  0.00    +0.000 A 
ATOM      7  C   UNL     1       5.662   5.033  15.609  0.00  0.00    +0.000 A 
ATOM      8  C   UNL     1       5.349   6.257  16.195  0.00  0.00    +0.000 A 
ATOM      9  C   UNL     1       4.613   6.304  17.384  0.00  0.00    +0.000 A 
ATOM     10  C   UNL     1       4.132   5.127  18.010  0.00  0.00    +0.000 A 
ENDROOT
BRANCH   1  11
ATOM     11  N   UNL     1       3.212   6.272  20.009  0.00  0.00    +0.000 N 
ATOM     12  H   UNL     1       3.647   6.256  20.924  0.00  0.00    +0.000 HD
BRANCH  11  16
ATOM     13  C   UNL     1       0.401   9.466  19.896  0.00  0.00    +0.000 A 
ATOM     14  C   UNL     1       1.211   9.192  18.786  0.00  0.00    +0.000 A 
ATOM     15  C   UNL     1       2.093   8.103  18.790  0.00  0.00    +0.000 A 
ATOM     16  C   UNL     1       2.223   7.282  19.914  0.00  0.00    +0.000 A 
ATOM     17  C   UNL     1       1.394   7.537  21.014  0.00  0.00    +0.000 A 
ATOM     18  C   UNL     1       0.486   8.609  21.003  0.00  0.00    +0.000 A 
ATOM     19 CL   UNL     1      -0.493   8.831  22.417  0.00  0.00    +0.000 Cl
BRANCH  13  20
ATOM     20  S   UNL     1      -0.607  10.948  19.875  0.00  0.00    +0.000 S 
BRANCH  20  26
ATOM     21  C   UNL     1      -0.191  13.703  18.265  0.00  0.00    +0.000 C 
ATOM     22  N   UNL     1       0.684  13.294  19.338  0.00  0.00    +0.000 N 
ATOM     23  C   UNL     1       1.763  14.016  19.779  0.00  0.00    +0.000 A 
ATOM     24  C   UNL     1       2.300  13.270  20.801  0.00  0.00    +0.000 A 
ATOM     25  N   UNL     1       1.585  12.116  20.987  0.00  0.00    +0.000 NA
ATOM     26  C   UNL     1       0.625  12.148  20.090  0.00  0.00    +0.000 A 
ENDBRANCH  20  26
ENDBRANCH  13  20
ENDBRANCH  11  16
ENDBRANCH   1  11
BRANCH   2  27
ATOM     27  C   UNL     1       1.952   3.690  20.746  0.00  0.00    +0.000 C 
ATOM     28  N   UNL     1       1.181   3.613  21.612  0.00  0.00    +0.000 NA
ENDBRANCH   2  27
BRANCH   7  29
ATOM     29  C   UNL     1       6.454   4.917  14.370  0.00  0.00    +0.000 C 
ATOM     30  C   UNL     1       6.265   3.980  13.429  0.00  0.00    +0.000 C 
BRANCH  30  31
ATOM     31  C   UNL     1       7.051   3.911  12.146  0.00  0.00    +0.000 C 
BRANCH  31  32
ATOM     32  C   UNL     1       7.463   5.300  11.651  0.00  0.00    +0.000 C 
BRANCH  32  33
ATOM     33  O   UNL     1       8.428   5.892  12.513  0.00  0.00    +0.000 OA
ATOM     34  H   UNL     1       8.589   6.795  12.189  0.00  0.00    +0.000 HD
ENDBRANCH  32  33
ENDBRANCH  31  32
ENDBRANCH  30  31
ENDBRANCH   7  29
TORSDOF 9
ENDMDL
MODEL 8
REMARK VINA RESULT:      -7.9      3.675      6.953
REMARK  Name = 
REMARK  10 active torsions:
REMARK  status: ('A' for Active; 'I' for Inactive)
REMARK    1  A    between atoms: C_1  and  N_2
REMARK    2  A    between atoms: C_6  and  S_7
REMARK    3  A    between atoms: S_7  and  C_8
REMARK    4  A    between atoms: C_11  and  N_12
REMARK    5  A    between atoms: N_12  and  C_13
REMARK    6  A    between atoms: C_14  and  C_15
REMARK    7  A    between atoms: C_21  and  C_22
REMARK    8  A    between atoms: C_23  and  C_24
REMARK    9  A    between atoms: C_24  and  C_25
REMARK   10  A    between atoms: C_25  and  O_26
REMARK                            x       y       z     vdW  Elec       q    Type
REMARK                         _______ _______ _______ _____ _____    ______ ____
ROOT
ATOM      1  C   UNL     1      -0.433  10.801  20.652  0.00  0.00    +0.000 A 
ATOM      2  C   UNL     1      -0.589  10.562  22.033  0.00  0.00    +0.000 A 
ATOM      3  C   UNL     1       0.156   9.553  22.614  0.00  0.00    +0.000 A 
ATOM      4  N   UNL     1       1.007   8.754  21.942  0.00  0.00    +0.000 NA
ATOM      5  C   UNL     1       1.112   8.915  20.617  0.00  0.00    +0.000 A 
ATOM      6  C   UNL     1       1.963   8.049  19.942  0.00  0.00    +0.000 A 
ATOM      7  C   UNL     1       2.148   8.105  18.558  0.00  0.00    +0.000 A 
ATOM      8  C   UNL     1       1.418   9.046  17.835  0.00  0.00    +0.000 A 
ATOM      9  C   UNL     1       0.576   9.946  18.496  0.00  0.00    +0.000 A 
ATOM     10  C   UNL     1       0.406   9.912  19.903  0.00  0.00    +0.000 A 
ENDROOT
BRANCH   1  11
ATOM     11  N   UNL     1      -1.032  11.931  20.023  0.00  0.00    +0.000 N 
ATOM     12  H   UNL     1      -0.612  12.827  20.242  0.00  0.00    +0.000 HD
BRANCH  11  16
ATOM     13  C   UNL     1      -4.988  12.097  18.463  0.00  0.00    +0.000 A 
ATOM     14  C   UNL     1      -4.693  12.651  19.715  0.00  0.00    +0.000 A 
ATOM     15  C   UNL     1      -3.382  12.659  20.209  0.00  0.00    +0.000 A 
ATOM     16  C   UNL     1      -2.334  12.078  19.488  0.00  0.00    +0.000 A 
ATOM     17  C   UNL     1      -2.622  11.549  18.223  0.00  0.00    +0.000 A 
ATOM     18  C   UNL     1      -3.930  11.566  17.711  0.00  0.00    +0.000 A 
ATOM     19 CL   UNL     1      -4.171  10.887  16.134  0.00  0.00    +0.000 Cl
BRANCH  13  20
ATOM     20  S   UNL     1      -6.704  12.002  17.951  0.00  0.00    +0.000 S 
BRANCH  20  26
ATOM     21  C   UNL     1      -7.909  14.399  19.727  0.00  0.00    +0.000 C 
ATOM     22  N   UNL     1      -7.485  14.586  18.360  0.00  0.00    +0.000 N 
ATOM     23  C   UNL     1      -7.547  15.778  17.683  0.00  0.00    +0.000 A 
ATOM     24  C   UNL     1      -7.045  15.506  16.433  0.00  0.00    +0.000 A 
ATOM     25  N   UNL     1      -6.687  14.188  16.329  0.00  0.00    +0.000 NA
ATOM     26  C   UNL     1      -6.970  13.654  17.496  0.00  0.00    +0.000 A 
ENDBRANCH  20  26
ENDBRANCH  13  20
ENDBRANCH  11  16
ENDBRANCH   1  11
BRANCH   2  27
ATOM     27  C   UNL     1      -1.530  11.247  22.865  0.00  0.00    +0.000 C 
ATOM     28  N   UNL     1      -2.326  11.751  23.546  0.00  0.00    +0.000 NA
ENDBRANCH   2  27
BRANCH   7  29
ATOM     29  C   UNL     1       3.069   7.145  17.922  0.00  0.00    +0.000 C 
ATOM     30  C   UNL     1       2.991   5.812  18.051  0.00  0.00    +0.000 C 
BRANCH  30  31
ATOM     31  C   UNL     1       3.911   4.847  17.350  0.00  0.00    +0.000 C 
BRANCH  31  32
ATOM     32  C   UNL     1       5.210   5.519  16.897  0.00  0.00    +0.000 C 
BRANCH  32  33
ATOM     33  O   UNL     1       5.317   5.536  15.478  0.00  0.00    +0.000 OA
ATOM     34  H   UNL     1       6.004   4.893  15.232  0.00  0.00    +0.000 HD
ENDBRANCH  32  33
ENDBRANCH  31  32
ENDBRANCH  30  31
ENDBRANCH   7  29
TORSDOF 9
ENDMDL
MODEL 9
REMARK VINA RESULT:      -7.8      1.797      2.384
REMARK  Name = 
REMARK  10 active torsions:
REMARK  status: ('A' for Active; 'I' for Inactive)
REMARK    1  A    between atoms: C_1  and  N_2
REMARK    2  A    between atoms: C_6  and  S_7
REMARK    3  A    between atoms: S_7  and  C_8
REMARK    4  A    between atoms: C_11  and  N_12
REMARK    5  A    between atoms: N_12  and  C_13
REMARK    6  A    between atoms: C_14  and  C_15
REMARK    7  A    between atoms: C_21  and  C_22
REMARK    8  A    between atoms: C_23  and  C_24
REMARK    9  A    between atoms: C_24  and  C_25
REMARK   10  A    between atoms: C_25  and  O_26
REMARK                            x       y       z     vdW  Elec       q    Type
REMARK                         _______ _______ _______ _____ _____    ______ ____
ROOT
ATOM      1  C   UNL     1       3.353   4.602  19.261  0.00  0.00    +0.000 A 
ATOM      2  C   UNL     1       2.693   3.413  19.632  0.00  0.00    +0.000 A 
ATOM      3  C   UNL     1       2.852   2.295  18.833  0.00  0.00    +0.000 A 
ATOM      4  N   UNL     1       3.575   2.271  17.697  0.00  0.00    +0.000 NA
ATOM      5  C   UNL     1       4.146   3.411  17.287  0.00  0.00    +0.000 A 
ATOM      6  C   UNL     1       4.849   3.369  16.089  0.00  0.00    +0.000 A 
ATOM      7  C   UNL     1       5.477   4.493  15.547  0.00  0.00    +0.000 A 
ATOM      8  C   UNL     1       5.356   5.704  16.225  0.00  0.00    +0.000 A 
ATOM      9  C   UNL     1       4.677   5.765  17.446  0.00  0.00    +0.000 A 
ATOM     10  C   UNL     1       4.061   4.622  18.015  0.00  0.00    +0.000 A 
ENDROOT
BRANCH   1  11
ATOM     11  N   UNL     1       3.379   5.736  20.124  0.00  0.00    +0.000 N 
ATOM     12  H   UNL     1       3.835   5.595  21.018  0.00  0.00    +0.000 HD
BRANCH  11  16
ATOM     13  C   UNL     1       0.692   9.034  19.974  0.00  0.00    +0.000 A 
ATOM     14  C   UNL     1       0.723   8.192  21.093  0.00  0.00    +0.000 A 
ATOM     15  C   UNL     1       1.647   7.143  21.179  0.00  0.00    +0.000 A 
ATOM     16  C   UNL     1       2.541   6.877  20.136  0.00  0.00    +0.000 A 
ATOM     17  C   UNL     1       2.530   7.735  19.029  0.00  0.00    +0.000 A 
ATOM     18  C   UNL     1       1.625   8.807  18.951  0.00  0.00    +0.000 A 
ATOM     19 CL   UNL     1       1.703   9.807  17.537  0.00  0.00    +0.000 Cl
BRANCH  13  20
ATOM     20  S   UNL     1      -0.601  10.271  19.869  0.00  0.00    +0.000 S 
BRANCH  20  26
ATOM     21  C   UNL     1      -0.665  13.003  18.169  0.00  0.00    +0.000 C 
ATOM     22  N   UNL     1       0.210  12.816  19.302  0.00  0.00    +0.000 N 
ATOM     23  C   UNL     1       1.089  13.760  19.768  0.00  0.00    +0.000 A 
ATOM     24  C   UNL     1       1.707  13.172  20.847  0.00  0.00    +0.000 A 
ATOM     25  N   UNL     1       1.235  11.902  21.044  0.00  0.00    +0.000 NA
ATOM     26  C   UNL     1       0.343  11.707  20.098  0.00  0.00    +0.000 A 
ENDBRANCH  20  26
ENDBRANCH  13  20
ENDBRANCH  11  16
ENDBRANCH   1  11
BRANCH   2  27
ATOM     27  C   UNL     1       1.803   3.302  20.746  0.00  0.00    +0.000 C 
ATOM     28  N   UNL     1       1.111   3.257  21.679  0.00  0.00    +0.000 NA
ENDBRANCH   2  27
BRANCH   7  29
ATOM     29  C   UNL     1       6.201   4.359  14.268  0.00  0.00    +0.000 C 
ATOM     30  C   UNL     1       5.816   3.572  13.253  0.00  0.00    +0.000 C 
BRANCH  30  31
ATOM     31  C   UNL     1       6.541   3.490  11.935  0.00  0.00    +0.000 C 
BRANCH  31  32
ATOM     32  C   UNL     1       5.991   2.372  11.046  0.00  0.00    +0.000 C 
BRANCH  32  33
ATOM     33  O   UNL     1       6.340   1.088  11.553  0.00  0.00    +0.000 OA
ATOM     34  H   UNL     1       5.697   0.868  12.249  0.00  0.00    +0.000 HD
ENDBRANCH  32  33
ENDBRANCH  31  32
ENDBRANCH  30  31
ENDBRANCH   7  29
TORSDOF 9
ENDMDL
