MODEL 1
REMARK VINA RESULT:      -8.3      0.000      0.000
REMARK  Name = 
REMARK  5 active torsions:
REMARK  status: ('A' for Active; 'I' for Inactive)
REMARK    1  A    between atoms: C_1  and  C_2
REMARK    2  A    between atoms: C_2  and  O_3
REMARK    3  A    between atoms: O_3  and  C_4
REMARK    4  A    between atoms: C_4  and  C_6
REMARK    5  A    between atoms: C_10  and  C_11
REMARK                            x       y       z     vdW  Elec       q    Type
REMARK                         _______ _______ _______ _____ _____    ______ ____
ROOT
ATOM      1  C   UNL     1       2.455   7.368  18.656  0.00  0.00    +0.000 A 
ATOM      2  C   UNL     1       2.017   8.471  17.905  0.00  0.00    +0.000 A 
ATOM      3  C   UNL     1       1.262   9.511  18.462  0.00  0.00    +0.000 A 
ATOM      4  C   UNL     1       0.914   9.424  19.814  0.00  0.00    +0.000 A 
ATOM      5  S   UNL     1      -0.014  10.515  20.760  0.00  0.00    +0.000 S 
ATOM      6  C   UNL     1       0.143   9.474  22.114  0.00  0.00    +0.000 A 
ATOM      7  N   UNL     1      -0.451   9.779  23.278  0.00  0.00    +0.000 N 
ATOM      8  N   UNL     1       0.870   8.403  21.924  0.00  0.00    +0.000 NA
ATOM      9  C   UNL     1       1.307   8.349  20.608  0.00  0.00    +0.000 A 
ATOM     10  C   UNL     1       2.093   7.327  20.021  0.00  0.00    +0.000 A 
ATOM     11  H   UNL     1      -0.752  10.729  23.438  0.00  0.00    +0.000 HD
ATOM     12  H   UNL     1      -0.120   9.285  24.101  0.00  0.00    +0.000 HD
ENDROOT
BRANCH   1  17
ATOM     13  C   UNL     1       5.359   5.512  16.998  0.00  0.00    +0.000 A 
ATOM     14  C   UNL     1       4.810   4.240  16.829  0.00  0.00    +0.000 A 
ATOM     15  C   UNL     1       3.510   3.982  17.244  0.00  0.00    +0.000 A 
ATOM     16  C   UNL     1       2.745   4.999  17.830  0.00  0.00    +0.000 A 
ATOM     17  C   UNL     1       3.264   6.292  18.027  0.00  0.00    +0.000 A 
ATOM     18  C   UNL     1       4.589   6.525  17.599  0.00  0.00    +0.000 A 
BRANCH  13  19
ATOM     19  C   UNL     1       6.777   5.708  16.599  0.00  0.00    +0.000 C 
ATOM     20  O   UNL     1       7.531   4.785  16.331  0.00  0.00    +0.000 OA
BRANCH  19  21
ATOM     21  O   UNL     1       7.121   7.016  16.697  0.00  0.00    +0.000 OA
BRANCH  21  23
ATOM     22  C   UNL     1       8.050   8.864  17.881  0.00  0.00    +0.000 C 
ATOM     23  C   UNL     1       7.864   7.356  17.875  0.00  0.00    +0.000 C 
ENDBRANCH  21  23
ENDBRANCH  19  21
ENDBRANCH  13  19
ENDBRANCH   1  17
TORSDOF 4
ENDMDL
MODEL 2
REMARK VINA RESULT:      -8.2      1.222      1.930
REMARK  Name = 
REMARK  5 active torsions:
REMARK  status: ('A' for Active; 'I' for Inactive)
REMARK    1  A    between atoms: C_1  and  C_2
REMARK    2  A    between atoms: C_2  and  O_3
REMARK    3  A    between atoms: O_3  and  C_4
REMARK    4  A    between atoms: C_4  and  C_6
REMARK    5  A    between atoms: C_10  and  C_11
REMARK                            x       y       z     vdW  Elec       q    Type
REMARK                         _______ _______ _______ _____ _____    ______ ____
ROOT
ATOM      1  C   UNL     1       2.457   7.344  18.530  0.00  0.00    +0.000 A 
ATOM      2  C   UNL     1       2.131   8.474  17.762  0.00  0.00    +0.000 A 
ATOM      3  C   UNL     1       1.465   9.584  18.297  0.00  0.00    +0.000 A 
ATOM      4  C   UNL     1       1.089   9.542  19.644  0.00  0.00    +0.000 A 
ATOM      5  S   UNL     1       0.248  10.722  20.564  0.00  0.00    +0.000 S 
ATOM      6  C   UNL     1       0.290   9.686  21.930  0.00  0.00    +0.000 A 
ATOM      7  N   UNL     1      -0.293  10.054  23.081  0.00  0.00    +0.000 N 
ATOM      8  N   UNL     1       0.920   8.551  21.762  0.00  0.00    +0.000 NA
ATOM      9  C   UNL     1       1.371   8.445  20.454  0.00  0.00    +0.000 A 
ATOM     10  C   UNL     1       2.071   7.350  19.889  0.00  0.00    +0.000 A 
ATOM     11  H   UNL     1      -0.510  11.030  23.228  0.00  0.00    +0.000 HD
ATOM     12  H   UNL     1      -0.020   9.542  23.914  0.00  0.00    +0.000 HD
ENDROOT
BRANCH   1  17
ATOM     13  C   UNL     1       5.128   5.269  16.746  0.00  0.00    +0.000 A 
ATOM     14  C   UNL     1       4.549   3.998  16.770  0.00  0.00    +0.000 A 
ATOM     15  C   UNL     1       3.303   3.812  17.356  0.00  0.00    +0.000 A 
ATOM     16  C   UNL     1       2.624   4.898  17.920  0.00  0.00    +0.000 A 
ATOM     17  C   UNL     1       3.176   6.193  17.925  0.00  0.00    +0.000 A 
ATOM     18  C   UNL     1       4.444   6.353  17.325  0.00  0.00    +0.000 A 
BRANCH  13  19
ATOM     19  C   UNL     1       6.492   5.392  16.169  0.00  0.00    +0.000 C 
ATOM     20  O   UNL     1       7.512   5.300  16.834  0.00  0.00    +0.000 OA
BRANCH  19  21
ATOM     21  O   UNL     1       6.423   5.734  14.858  0.00  0.00    +0.000 OA
BRANCH  21  23
ATOM     22  C   UNL     1       6.154   3.817  13.468  0.00  0.00    +0.000 C 
ATOM     23  C   UNL     1       7.136   4.861  13.971  0.00  0.00    +0.000 C 
ENDBRANCH  21  23
ENDBRANCH  19  21
ENDBRANCH  13  19
ENDBRANCH   1  17
TORSDOF 4
ENDMDL
MODEL 3
REMARK VINA RESULT:      -8.0      2.255      3.756
REMARK  Name = 
REMARK  5 active torsions:
REMARK  status: ('A' for Active; 'I' for Inactive)
REMARK    1  A    between atoms: C_1  and  C_2
REMARK    2  A    between atoms: C_2  and  O_3
REMARK    3  A    between atoms: O_3  and  C_4
REMARK    4  A    between atoms: C_4  and  C_6
REMARK    5  A    between atoms: C_10  and  C_11
REMARK                            x       y       z     vdW  Elec       q    Type
REMARK                         _______ _______ _______ _____ _____    ______ ____
ROOT
ATOM      1  C   UNL     1       2.215   8.013  18.695  0.00  0.00    +0.000 A 
ATOM      2  C   UNL     1       1.963   9.187  17.966  0.00  0.00    +0.000 A 
ATOM      3  C   UNL     1       1.270  10.277  18.506  0.00  0.00    +0.000 A 
ATOM      4  C   UNL     1       0.790  10.171  19.817  0.00  0.00    +0.000 A 
ATOM      5  S   UNL     1      -0.106  11.315  20.731  0.00  0.00    +0.000 S 
ATOM      6  C   UNL     1      -0.182  10.208  22.039  0.00  0.00    +0.000 A 
ATOM      7  N   UNL     1      -0.849  10.525  23.160  0.00  0.00    +0.000 N 
ATOM      8  N   UNL     1       0.446   9.074  21.860  0.00  0.00    +0.000 NA
ATOM      9  C   UNL     1       0.996   9.029  20.587  0.00  0.00    +0.000 A 
ATOM     10  C   UNL     1       1.725   7.955  20.020  0.00  0.00    +0.000 A 
ATOM     11  H   UNL     1      -1.065  11.494  23.341  0.00  0.00    +0.000 HD
ATOM     12  H   UNL     1      -0.647   9.965  23.982  0.00  0.00    +0.000 HD
ENDROOT
BRANCH   1  17
ATOM     13  C   UNL     1       3.244   4.475  17.673  0.00  0.00    +0.000 A 
ATOM     14  C   UNL     1       4.396   4.730  16.926  0.00  0.00    +0.000 A 
ATOM     15  C   UNL     1       4.839   6.035  16.754  0.00  0.00    +0.000 A 
ATOM     16  C   UNL     1       4.135   7.097  17.334  0.00  0.00    +0.000 A 
ATOM     17  C   UNL     1       2.965   6.884  18.087  0.00  0.00    +0.000 A 
ATOM     18  C   UNL     1       2.536   5.549  18.242  0.00  0.00    +0.000 A 
BRANCH  13  19
ATOM     19  C   UNL     1       2.780   3.066  17.762  0.00  0.00    +0.000 C 
ATOM     20  O   UNL     1       3.532   2.106  17.688  0.00  0.00    +0.000 OA
BRANCH  19  21
ATOM     21  O   UNL     1       1.426   3.014  17.812  0.00  0.00    +0.000 OA
BRANCH  21  23
ATOM     22  C   UNL     1       0.967   2.993  20.151  0.00  0.00    +0.000 C 
ATOM     23  C   UNL     1       0.893   2.194  18.861  0.00  0.00    +0.000 C 
ENDBRANCH  21  23
ENDBRANCH  19  21
ENDBRANCH  13  19
ENDBRANCH   1  17
TORSDOF 4
ENDMDL
MODEL 4
REMARK VINA RESULT:      -7.9      4.510      6.169
REMARK  Name = 
REMARK  5 active torsions:
REMARK  status: ('A' for Active; 'I' for Inactive)
REMARK    1  A    between atoms: C_1  and  C_2
REMARK    2  A    between atoms: C_2  and  O_3
REMARK    3  A    between atoms: O_3  and  C_4
REMARK    4  A    between atoms: C_4  and  C_6
REMARK    5  A    between atoms: C_10  and  C_11
REMARK                            x       y       z     vdW  Elec       q    Type
REMARK                         _______ _______ _______ _____ _____    ______ ____
ROOT
ATOM      1  C   UNL     1       5.015   4.448  16.690  0.00  0.00    +0.000 A 
ATOM      2  C   UNL     1       5.571   5.122  17.789  0.00  0.00    +0.000 A 
ATOM      3  C   UNL     1       4.952   5.158  19.044  0.00  0.00    +0.000 A 
ATOM      4  C   UNL     1       3.717   4.516  19.190  0.00  0.00    +0.000 A 
ATOM      5  S   UNL     1       2.716   4.411  20.581  0.00  0.00    +0.000 S 
ATOM      6  C   UNL     1       1.556   3.529  19.678  0.00  0.00    +0.000 A 
ATOM      7  N   UNL     1       0.404   3.140  20.246  0.00  0.00    +0.000 N 
ATOM      8  N   UNL     1       1.879   3.271  18.436  0.00  0.00    +0.000 NA
ATOM      9  C   UNL     1       3.107   3.842  18.135  0.00  0.00    +0.000 A 
ATOM     10  C   UNL     1       3.773   3.801  16.885  0.00  0.00    +0.000 A 
ATOM     11  H   UNL     1       0.338   3.124  21.254  0.00  0.00    +0.000 HD
ATOM     12  H   UNL     1      -0.118   2.413  19.767  0.00  0.00    +0.000 HD
ENDROOT
BRANCH   1  17
ATOM     13  C   UNL     1       5.843   3.680  13.036  0.00  0.00    +0.000 A 
ATOM     14  C   UNL     1       7.040   4.380  12.873  0.00  0.00    +0.000 A 
ATOM     15  C   UNL     1       7.579   5.093  13.937  0.00  0.00    +0.000 A 
ATOM     16  C   UNL     1       6.925   5.109  15.174  0.00  0.00    +0.000 A 
ATOM     17  C   UNL     1       5.712   4.425  15.378  0.00  0.00    +0.000 A 
ATOM     18  C   UNL     1       5.186   3.711  14.279  0.00  0.00    +0.000 A 
BRANCH  13  19
ATOM     19  C   UNL     1       5.281   2.994  11.843  0.00  0.00    +0.000 C 
ATOM     20  O   UNL     1       5.575   1.852  11.526  0.00  0.00    +0.000 OA
BRANCH  19  21
ATOM     21  O   UNL     1       4.513   3.848  11.123  0.00  0.00    +0.000 OA
BRANCH  21  23
ATOM     22  C   UNL     1       2.816   4.193   9.485  0.00  0.00    +0.000 C 
ATOM     23  C   UNL     1       3.313   3.274  10.588  0.00  0.00    +0.000 C 
ENDBRANCH  21  23
ENDBRANCH  19  21
ENDBRANCH  13  19
ENDBRANCH   1  17
TORSDOF 4
ENDMDL
MODEL 5
REMARK VINA RESULT:      -7.8      2.189      3.544
REMARK  Name = 
REMARK  5 active torsions:
REMARK  status: ('A' for Active; 'I' for Inactive)
REMARK    1  A    between atoms: C_1  and  C_2
REMARK    2  A    between atoms: C_2  and  O_3
REMARK    3  A    between atoms: O_3  and  C_4
REMARK    4  A    between atoms: C_4  and  C_6
REMARK    5  A    between atoms: C_10  and  C_11
REMARK                            x       y       z     vdW  Elec       q    Type
REMARK                         _______ _______ _______ _____ _____    ______ ____
ROOT
ATOM      1  C   UNL     1       2.286   7.810  18.778  0.00  0.00    +0.000 A 
ATOM      2  C   UNL     1       1.786   8.809  17.928  0.00  0.00    +0.000 A 
ATOM      3  C   UNL     1       0.947   9.834  18.379  0.00  0.00    +0.000 A 
ATOM      4  C   UNL     1       0.576   9.838  19.729  0.00  0.00    +0.000 A 
ATOM      5  S   UNL     1      -0.449  10.935  20.561  0.00  0.00    +0.000 S 
ATOM      6  C   UNL     1      -0.246  10.029  22.003  0.00  0.00    +0.000 A 
ATOM      7  N   UNL     1      -0.887  10.388  23.127  0.00  0.00    +0.000 N 
ATOM      8  N   UNL     1       0.560   9.002  21.919  0.00  0.00    +0.000 NA
ATOM      9  C   UNL     1       1.028   8.868  20.620  0.00  0.00    +0.000 A 
ATOM     10  C   UNL     1       1.899   7.860  20.136  0.00  0.00    +0.000 A 
ATOM     11  H   UNL     1      -1.259  11.324  23.198  0.00  0.00    +0.000 HD
ATOM     12  H   UNL     1      -0.539   9.993  23.995  0.00  0.00    +0.000 HD
ENDROOT
BRANCH   1  17
ATOM     13  C   UNL     1       4.101   4.466  18.388  0.00  0.00    +0.000 A 
ATOM     14  C   UNL     1       4.898   4.716  17.269  0.00  0.00    +0.000 A 
ATOM     15  C   UNL     1       4.853   5.957  16.646  0.00  0.00    +0.000 A 
ATOM     16  C   UNL     1       4.011   6.960  17.140  0.00  0.00    +0.000 A 
ATOM     17  C   UNL     1       3.185   6.746  18.259  0.00  0.00    +0.000 A 
ATOM     18  C   UNL     1       3.248   5.475  18.871  0.00  0.00    +0.000 A 
BRANCH  13  19
ATOM     19  C   UNL     1       4.140   3.098  18.968  0.00  0.00    +0.000 C 
ATOM     20  O   UNL     1       4.968   2.743  19.791  0.00  0.00    +0.000 OA
BRANCH  19  21
ATOM     21  O   UNL     1       3.221   2.302  18.367  0.00  0.00    +0.000 OA
BRANCH  21  23
ATOM     22  C   UNL     1       0.880   2.574  18.726  0.00  0.00    +0.000 C 
ATOM     23  C   UNL     1       2.142   1.883  19.215  0.00  0.00    +0.000 C 
ENDBRANCH  21  23
ENDBRANCH  19  21
ENDBRANCH  13  19
ENDBRANCH   1  17
TORSDOF 4
ENDMDL
MODEL 6
REMARK VINA RESULT:      -7.8      1.562      1.965
REMARK  Name = 
REMARK  5 active torsions:
REMARK  status: ('A' for Active; 'I' for Inactive)
REMARK    1  A    between atoms: C_1  and  C_2
REMARK    2  A    between atoms: C_2  and  O_3
REMARK    3  A    between atoms: O_3  and  C_4
REMARK    4  A    between atoms: C_4  and  C_6
REMARK    5  A    between atoms: C_10  and  C_11
REMARK                            x       y       z     vdW  Elec       q    Type
REMARK                         _______ _______ _______ _____ _____    ______ ____
ROOT
ATOM      1  C   UNL     1       2.602   7.062  18.726  0.00  0.00    +0.000 A 
ATOM      2  C   UNL     1       2.203   6.897  20.062  0.00  0.00    +0.000 A 
ATOM      3  C   UNL     1       1.433   7.848  20.743  0.00  0.00    +0.000 A 
ATOM      4  C   UNL     1       1.075   9.018  20.063  0.00  0.00    +0.000 A 
ATOM      5  S   UNL     1       0.170  10.360  20.633  0.00  0.00    +0.000 S 
ATOM      6  C   UNL     1       0.378  11.141  19.120  0.00  0.00    +0.000 A 
ATOM      7  N   UNL     1      -0.118  12.371  18.916  0.00  0.00    +0.000 N 
ATOM      8  N   UNL     1       1.030  10.458  18.214  0.00  0.00    +0.000 NA
ATOM      9  C   UNL     1       1.451   9.246  18.741  0.00  0.00    +0.000 A 
ATOM     10  C   UNL     1       2.206   8.251  18.073  0.00  0.00    +0.000 A 
ATOM     11  H   UNL     1      -0.833  12.719  19.539  0.00  0.00    +0.000 HD
ATOM     12  H   UNL     1      -0.200  12.675  17.951  0.00  0.00    +0.000 HD
ENDROOT
BRANCH   1  17
ATOM     13  C   UNL     1       5.522   5.278  17.018  0.00  0.00    +0.000 A 
ATOM     14  C   UNL     1       4.951   4.037  16.725  0.00  0.00    +0.000 A 
ATOM     15  C   UNL     1       3.632   3.779  17.073  0.00  0.00    +0.000 A 
ATOM     16  C   UNL     1       2.870   4.762  17.716  0.00  0.00    +0.000 A 
ATOM     17  C   UNL     1       3.409   6.022  18.037  0.00  0.00    +0.000 A 
ATOM     18  C   UNL     1       4.753   6.256  17.675  0.00  0.00    +0.000 A 
BRANCH  13  19
ATOM     19  C   UNL     1       6.958   5.470  16.685  0.00  0.00    +0.000 C 
ATOM     20  O   UNL     1       7.741   4.545  16.535  0.00  0.00    +0.000 OA
BRANCH  19  21
ATOM     21  O   UNL     1       7.274   6.788  16.696  0.00  0.00    +0.000 OA
BRANCH  21  23
ATOM     22  C   UNL     1       8.001   8.763  17.816  0.00  0.00    +0.000 C 
ATOM     23  C   UNL     1       7.885   7.251  17.908  0.00  0.00    +0.000 C 
ENDBRANCH  21  23
ENDBRANCH  19  21
ENDBRANCH  13  19
ENDBRANCH   1  17
TORSDOF 4
ENDMDL
MODEL 7
REMARK VINA RESULT:      -7.8      3.882      5.557
REMARK  Name = 
REMARK  5 active torsions:
REMARK  status: ('A' for Active; 'I' for Inactive)
REMARK    1  A    between atoms: C_1  and  C_2
REMARK    2  A    between atoms: C_2  and  O_3
REMARK    3  A    between atoms: O_3  and  C_4
REMARK    4  A    between atoms: C_4  and  C_6
REMARK    5  A    between atoms: C_10  and  C_11
REMARK                            x       y       z     vdW  Elec       q    Type
REMARK                         _______ _______ _______ _____ _____    ______ ____
ROOT
ATOM      1  C   UNL     1       4.421   4.785  17.283  0.00  0.00    +0.000 A 
ATOM      2  C   UNL     1       3.515   5.850  17.399  0.00  0.00    +0.000 A 
ATOM      3  C   UNL     1       2.570   5.930  18.429  0.00  0.00    +0.000 A 
ATOM      4  C   UNL     1       2.517   4.885  19.359  0.00  0.00    +0.000 A 
ATOM      5  S   UNL     1       1.464   4.689  20.700  0.00  0.00    +0.000 S 
ATOM      6  C   UNL     1       2.198   3.180  21.054  0.00  0.00    +0.000 A 
ATOM      7  N   UNL     1       1.754   2.431  22.076  0.00  0.00    +0.000 N 
ATOM      8  N   UNL     1       3.194   2.837  20.277  0.00  0.00    +0.000 NA
ATOM      9  C   UNL     1       3.381   3.794  19.290  0.00  0.00    +0.000 A 
ATOM     10  C   UNL     1       4.343   3.759  18.252  0.00  0.00    +0.000 A 
ATOM     11  H   UNL     1       1.188   2.867  22.790  0.00  0.00    +0.000 HD
ATOM     12  H   UNL     1       2.372   1.695  22.403  0.00  0.00    +0.000 HD
ENDROOT
BRANCH   1  17
ATOM     13  C   UNL     1       6.067   4.069  13.906  0.00  0.00    +0.000 A 
ATOM     14  C   UNL     1       7.314   4.675  14.075  0.00  0.00    +0.000 A 
ATOM     15  C   UNL     1       7.623   5.308  15.272  0.00  0.00    +0.000 A 
ATOM     16  C   UNL     1       6.687   5.338  16.313  0.00  0.00    +0.000 A 
ATOM     17  C   UNL     1       5.416   4.747  16.180  0.00  0.00    +0.000 A 
ATOM     18  C   UNL     1       5.128   4.113  14.952  0.00  0.00    +0.000 A 
BRANCH  13  19
ATOM     19  C   UNL     1       5.769   3.468  12.580  0.00  0.00    +0.000 C 
ATOM     20  O   UNL     1       6.627   3.001  11.847  0.00  0.00    +0.000 OA
BRANCH  19  21
ATOM     21  O   UNL     1       4.458   3.629  12.271  0.00  0.00    +0.000 OA
BRANCH  21  23
ATOM     22  C   UNL     1       3.314   3.947  10.204  0.00  0.00    +0.000 C 
ATOM     23  C   UNL     1       4.030   2.940  11.088  0.00  0.00    +0.000 C 
ENDBRANCH  21  23
ENDBRANCH  19  21
ENDBRANCH  13  19
ENDBRANCH   1  17
TORSDOF 4
ENDMDL
MODEL 8
REMARK VINA RESULT:      -7.8      2.059      2.779
REMARK  Name = 
REMARK  5 active torsions:
REMARK  status: ('A' for Active; 'I' for Inactive)
REMARK    1  A    between atoms: C_1  and  C_2
REMARK    2  A    between atoms: C_2  and  O_3
REMARK    3  A    between atoms: O_3  and  C_4
REMARK    4  A    between atoms: C_4  and  C_6
REMARK    5  A    between atoms: C_10  and  C_11
REMARK                            x       y       z     vdW  Elec       q    Type
REMARK                         _______ _______ _______ _____ _____    ______ ____
ROOT
ATOM      1  C   UNL     1       2.507   6.967  18.717  0.00  0.00    +0.000 A 
ATOM      2  C   UNL     1       2.125   6.847  20.063  0.00  0.00    +0.000 A 
ATOM      3  C   UNL     1       1.468   7.872  20.755  0.00  0.00    +0.000 A 
ATOM      4  C   UNL     1       1.212   9.069  20.076  0.00  0.00    +0.000 A 
ATOM      5  S   UNL     1       0.457  10.497  20.658  0.00  0.00    +0.000 S 
ATOM      6  C   UNL     1       0.706  11.247  19.136  0.00  0.00    +0.000 A 
ATOM      7  N   UNL     1       0.330  12.520  18.936  0.00  0.00    +0.000 N 
ATOM      8  N   UNL     1       1.266  10.500  18.220  0.00  0.00    +0.000 NA
ATOM      9  C   UNL     1       1.577   9.253  18.745  0.00  0.00    +0.000 A 
ATOM     10  C   UNL     1       2.215   8.187  18.066  0.00  0.00    +0.000 A 
ATOM     11  H   UNL     1      -0.333  12.938  19.573  0.00  0.00    +0.000 HD
ATOM     12  H   UNL     1       0.255  12.826  17.971  0.00  0.00    +0.000 HD
ENDROOT
BRANCH   1  17
ATOM     13  C   UNL     1       5.116   4.967  16.764  0.00  0.00    +0.000 A 
ATOM     14  C   UNL     1       4.499   3.717  16.682  0.00  0.00    +0.000 A 
ATOM     15  C   UNL     1       3.246   3.521  17.250  0.00  0.00    +0.000 A 
ATOM     16  C   UNL     1       2.599   4.577  17.904  0.00  0.00    +0.000 A 
ATOM     17  C   UNL     1       3.191   5.849  18.017  0.00  0.00    +0.000 A 
ATOM     18  C   UNL     1       4.465   6.019  17.433  0.00  0.00    +0.000 A 
BRANCH  13  19
ATOM     19  C   UNL     1       6.485   5.096  16.198  0.00  0.00    +0.000 C 
ATOM     20  O   UNL     1       7.499   4.866  16.839  0.00  0.00    +0.000 OA
BRANCH  19  21
ATOM     21  O   UNL     1       6.434   5.609  14.945  0.00  0.00    +0.000 OA
BRANCH  21  23
ATOM     22  C   UNL     1       6.136   3.812  13.407  0.00  0.00    +0.000 C 
ATOM     23  C   UNL     1       7.118   4.836  13.949  0.00  0.00    +0.000 C 
ENDBRANCH  21  23
ENDBRANCH  19  21
ENDBRANCH  13  19
ENDBRANCH   1  17
TORSDOF 4
ENDMDL
MODEL 9
REMARK VINA RESULT:      -7.7      1.843      2.230
REMARK  Name = 
REMARK  5 active torsions:
REMARK  status: ('A' for Active; 'I' for Inactive)
REMARK    1  A    between atoms: C_1  and  C_2
REMARK    2  A    between atoms: C_2  and  O_3
REMARK    3  A    between atoms: O_3  and  C_4
REMARK    4  A    between atoms: C_4  and  C_6
REMARK    5  A    between atoms: C_10  and  C_11
REMARK                            x       y       z     vdW  Elec       q    Type
REMARK                         _______ _______ _______ _____ _____    ______ ____
ROOT
ATOM      1  C   UNL     1       2.535   7.121  18.643  0.00  0.00    +0.000 A 
ATOM      2  C   UNL     1       2.181   6.950  19.991  0.00  0.00    +0.000 A 
ATOM      3  C   UNL     1       1.484   7.924  20.718  0.00  0.00    +0.000 A 
ATOM      4  C   UNL     1       1.157   9.122  20.072  0.00  0.00    +0.000 A 
ATOM      5  S   UNL     1       0.340  10.495  20.699  0.00  0.00    +0.000 S 
ATOM      6  C   UNL     1       0.527  11.293  19.193  0.00  0.00    +0.000 A 
ATOM      7  N   UNL     1       0.084  12.549  19.029  0.00  0.00    +0.000 N 
ATOM      8  N   UNL     1       1.110  10.597  18.250  0.00  0.00    +0.000 NA
ATOM      9  C   UNL     1       1.492   9.356  18.740  0.00  0.00    +0.000 A 
ATOM     10  C   UNL     1       2.172   8.339  18.026  0.00  0.00    +0.000 A 
ATOM     11  H   UNL     1      -0.589  12.918  19.685  0.00  0.00    +0.000 HD
ATOM     12  H   UNL     1      -0.021  12.874  18.073  0.00  0.00    +0.000 HD
ENDROOT
BRANCH   1  17
ATOM     13  C   UNL     1       5.186   5.316  16.560  0.00  0.00    +0.000 A 
ATOM     14  C   UNL     1       4.657   4.026  16.501  0.00  0.00    +0.000 A 
ATOM     15  C   UNL     1       3.451   3.739  17.128  0.00  0.00    +0.000 A 
ATOM     16  C   UNL     1       2.761   4.745  17.816  0.00  0.00    +0.000 A 
ATOM     17  C   UNL     1       3.264   6.056  17.906  0.00  0.00    +0.000 A 
ATOM     18  C   UNL     1       4.493   6.318  17.263  0.00  0.00    +0.000 A 
BRANCH  13  19
ATOM     19  C   UNL     1       6.513   5.544  15.931  0.00  0.00    +0.000 C 
ATOM     20  O   UNL     1       6.746   5.312  14.755  0.00  0.00    +0.000 OA
BRANCH  19  21
ATOM     21  O   UNL     1       7.422   5.920  16.864  0.00  0.00    +0.000 OA
BRANCH  21  23
ATOM     22  C   UNL     1       7.768   5.700  19.212  0.00  0.00    +0.000 C 
ATOM     23  C   UNL     1       7.662   4.951  17.894  0.00  0.00    +0.000 C 
ENDBRANCH  21  23
ENDBRANCH  19  21
ENDBRANCH  13  19
ENDBRANCH   1  17
TORSDOF 4
ENDMDL
