MODEL 1
REMARK VINA RESULT:      -7.7      0.000      0.000
REMARK  Name = 
REMARK  4 active torsions:
REMARK  status: ('A' for Active; 'I' for Inactive)
REMARK    1  A    between atoms: C_1  and  N_2
REMARK    2  A    between atoms: C_6  and  C_7
REMARK    3  A    between atoms: N_14  and  C_15
REMARK    4  A    between atoms: C_15  and  C_16
REMARK                            x       y       z     vdW  Elec       q    Type
REMARK                         _______ _______ _______ _____ _____    ______ ____
ROOT
ATOM      1  C   UNL     1       2.573   6.137  17.811  0.00  0.00    +0.000 C 
ATOM      2  C   UNL     1       2.236   6.948  18.832  0.00  0.00    +0.000 C 
ATOM      3  C   UNL     1       2.077   6.512  20.239  0.00  0.00    +0.000 C 
ATOM      4  O   UNL     1       2.506   5.469  20.709  0.00  0.00    +0.000 OA
ATOM      5  N   UNL     1       1.400   7.396  21.022  0.00  0.00    +0.000 N 
ATOM      6  C   UNL     1       0.980   8.654  20.686  0.00  0.00    +0.000 C 
ATOM      7  O   UNL     1       0.177   9.229  21.412  0.00  0.00    +0.000 OA
ATOM      8  N   UNL     1       1.485   9.170  19.513  0.00  0.00    +0.000 N 
ATOM      9  C   UNL     1       1.993   8.378  18.494  0.00  0.00    +0.000 C 
ATOM     10  O   UNL     1       2.229   8.810  17.364  0.00  0.00    +0.000 OA
ATOM     11  H   UNL     1       1.145   7.068  21.943  0.00  0.00    +0.000 HD
ENDROOT
BRANCH   1  17
ATOM     12  C   UNL     1       5.287   5.049  18.353  0.00  0.00    +0.000 C 
ATOM     13  N   UNL     1       4.086   4.265  18.154  0.00  0.00    +0.000 N 
ATOM     14  C   UNL     1       4.058   2.892  18.183  0.00  0.00    +0.000 A 
ATOM     15  C   UNL     1       2.755   2.486  18.010  0.00  0.00    +0.000 A 
ATOM     16  C   UNL     1       1.970   3.651  17.851  0.00  0.00    +0.000 A 
ATOM     17  C   UNL     1       2.811   4.746  17.937  0.00  0.00    +0.000 A 
ENDBRANCH   1  17
BRANCH   8  18
ATOM     18  C   UNL     1       1.213  10.578  19.220  0.00  0.00    +0.000 C 
BRANCH  18  19
ATOM     19  C   UNL     1      -0.213  10.868  18.776  0.00  0.00    +0.000 A 
ATOM     20  C   UNL     1      -0.820  10.046  17.804  0.00  0.00    +0.000 A 
ATOM     21  C   UNL     1      -2.186  10.148  17.516  0.00  0.00    +0.000 A 
ATOM     22  C   UNL     1      -2.977  11.067  18.198  0.00  0.00    +0.000 A 
ATOM     23  C   UNL     1      -2.391  11.919  19.130  0.00  0.00    +0.000 A 
ATOM     24  C   UNL     1      -1.021  11.831  19.412  0.00  0.00    +0.000 A 
ATOM     25 CL   UNL     1      -0.399  12.933  20.588  0.00  0.00    +0.000 Cl
ENDBRANCH  18  19
ENDBRANCH   8  18
TORSDOF 3
ENDMDL
MODEL 2
REMARK VINA RESULT:      -7.7      5.242      8.164
REMARK  Name = 
REMARK  4 active torsions:
REMARK  status: ('A' for Active; 'I' for Inactive)
REMARK    1  A    between atoms: C_1  and  N_2
REMARK    2  A    between atoms: C_6  and  C_7
REMARK    3  A    between atoms: N_14  and  C_15
REMARK    4  A    between atoms: C_15  and  C_16
REMARK                            x       y       z     vdW  Elec       q    Type
REMARK                         _______ _______ _______ _____ _____    ______ ____
ROOT
ATOM      1  C   UNL     1       3.238   5.636  18.069  0.00  0.00    +0.000 C 
ATOM      2  C   UNL     1       4.434   5.077  17.801  0.00  0.00    +0.000 C 
ATOM      3  C   UNL     1       5.070   4.017  18.617  0.00  0.00    +0.000 C 
ATOM      4  O   UNL     1       4.497   3.314  19.436  0.00  0.00    +0.000 OA
ATOM      5  N   UNL     1       6.401   3.856  18.379  0.00  0.00    +0.000 N 
ATOM      6  C   UNL     1       7.153   4.462  17.410  0.00  0.00    +0.000 C 
ATOM      7  O   UNL     1       8.375   4.400  17.477  0.00  0.00    +0.000 OA
ATOM      8  N   UNL     1       6.455   5.134  16.431  0.00  0.00    +0.000 N 
ATOM      9  C   UNL     1       5.157   5.590  16.605  0.00  0.00    +0.000 C 
ATOM     10  O   UNL     1       4.616   6.383  15.830  0.00  0.00    +0.000 OA
ATOM     11  H   UNL     1       6.896   3.249  19.019  0.00  0.00    +0.000 HD
ENDROOT
BRANCH   1  17
ATOM     12  C   UNL     1       1.373   3.321  18.003  0.00  0.00    +0.000 C 
ATOM     13  N   UNL     1       1.542   4.239  19.109  0.00  0.00    +0.000 N 
ATOM     14  C   UNL     1       0.837   4.154  20.285  0.00  0.00    +0.000 A 
ATOM     15  C   UNL     1       1.285   5.146  21.126  0.00  0.00    +0.000 A 
ATOM     16  C   UNL     1       2.281   5.869  20.429  0.00  0.00    +0.000 A 
ATOM     17  C   UNL     1       2.425   5.298  19.178  0.00  0.00    +0.000 A 
ENDBRANCH   1  17
BRANCH   8  18
ATOM     18  C   UNL     1       7.210   5.626  15.279  0.00  0.00    +0.000 C 
BRANCH  18  19
ATOM     19  C   UNL     1       7.048   4.796  14.014  0.00  0.00    +0.000 A 
ATOM     20  C   UNL     1       6.011   3.844  13.934  0.00  0.00    +0.000 A 
ATOM     21  C   UNL     1       5.699   3.208  12.727  0.00  0.00    +0.000 A 
ATOM     22  C   UNL     1       6.409   3.515  11.572  0.00  0.00    +0.000 A 
ATOM     23  C   UNL     1       7.466   4.420  11.635  0.00  0.00    +0.000 A 
ATOM     24  C   UNL     1       7.792   5.049  12.845  0.00  0.00    +0.000 A 
ATOM     25 CL   UNL     1       9.117   6.156  12.810  0.00  0.00    +0.000 Cl
ENDBRANCH  18  19
ENDBRANCH   8  18
TORSDOF 3
ENDMDL
MODEL 3
REMARK VINA RESULT:      -7.5      2.887      7.260
REMARK  Name = 
REMARK  4 active torsions:
REMARK  status: ('A' for Active; 'I' for Inactive)
REMARK    1  A    between atoms: C_1  and  N_2
REMARK    2  A    between atoms: C_6  and  C_7
REMARK    3  A    between atoms: N_14  and  C_15
REMARK    4  A    between atoms: C_15  and  C_16
REMARK                            x       y       z     vdW  Elec       q    Type
REMARK                         _______ _______ _______ _____ _____    ______ ____
ROOT
ATOM      1  C   UNL     1       0.367   9.465  19.822  0.00  0.00    +0.000 C 
ATOM      2  C   UNL     1       1.397   8.771  19.301  0.00  0.00    +0.000 C 
ATOM      3  C   UNL     1       2.067   9.091  18.019  0.00  0.00    +0.000 C 
ATOM      4  O   UNL     1       1.990  10.157  17.426  0.00  0.00    +0.000 OA
ATOM      5  N   UNL     1       2.824   8.076  17.519  0.00  0.00    +0.000 N 
ATOM      6  C   UNL     1       3.120   6.884  18.120  0.00  0.00    +0.000 C 
ATOM      7  O   UNL     1       3.608   5.981  17.449  0.00  0.00    +0.000 OA
ATOM      8  N   UNL     1       2.810   6.785  19.459  0.00  0.00    +0.000 N 
ATOM      9  C   UNL     1       1.867   7.591  20.079  0.00  0.00    +0.000 C 
ATOM     10  O   UNL     1       1.422   7.358  21.204  0.00  0.00    +0.000 OA
ATOM     11  H   UNL     1       3.173   8.204  16.578  0.00  0.00    +0.000 HD
ENDROOT
BRANCH   1  17
ATOM     12  C   UNL     1       1.236  12.239  20.451  0.00  0.00    +0.000 C 
ATOM     13  N   UNL     1       0.167  11.873  19.545  0.00  0.00    +0.000 N 
ATOM     14  C   UNL     1      -0.597  12.784  18.858  0.00  0.00    +0.000 A 
ATOM     15  C   UNL     1      -1.474  12.091  18.057  0.00  0.00    +0.000 A 
ATOM     16  C   UNL     1      -1.247  10.713  18.280  0.00  0.00    +0.000 A 
ATOM     17  C   UNL     1      -0.230  10.594  19.209  0.00  0.00    +0.000 A 
ENDBRANCH   1  17
BRANCH   8  18
ATOM     18  C   UNL     1       3.286   5.603  20.179  0.00  0.00    +0.000 C 
BRANCH  18  19
ATOM     19  C   UNL     1       2.575   4.309  19.812  0.00  0.00    +0.000 A 
ATOM     20  C   UNL     1       1.184   4.197  20.016  0.00  0.00    +0.000 A 
ATOM     21  C   UNL     1       0.460   3.112  19.508  0.00  0.00    +0.000 A 
ATOM     22  C   UNL     1       1.107   2.120  18.779  0.00  0.00    +0.000 A 
ATOM     23  C   UNL     1       2.487   2.187  18.602  0.00  0.00    +0.000 A 
ATOM     24  C   UNL     1       3.218   3.265  19.120  0.00  0.00    +0.000 A 
ATOM     25 CL   UNL     1       4.923   3.250  18.839  0.00  0.00    +0.000 Cl
ENDBRANCH  18  19
ENDBRANCH   8  18
TORSDOF 3
ENDMDL
MODEL 4
REMARK VINA RESULT:      -7.1      0.863      1.437
REMARK  Name = 
REMARK  4 active torsions:
REMARK  status: ('A' for Active; 'I' for Inactive)
REMARK    1  A    between atoms: C_1  and  N_2
REMARK    2  A    between atoms: C_6  and  C_7
REMARK    3  A    between atoms: N_14  and  C_15
REMARK    4  A    between atoms: C_15  and  C_16
REMARK                            x       y       z     vdW  Elec       q    Type
REMARK                         _______ _______ _______ _____ _____    ______ ____
ROOT
ATOM      1  C   UNL     1       3.017   6.986  17.808  0.00  0.00    +0.000 C 
ATOM      2  C   UNL     1       2.377   7.674  18.774  0.00  0.00    +0.000 C 
ATOM      3  C   UNL     1       2.144   7.176  20.150  0.00  0.00    +0.000 C 
ATOM      4  O   UNL     1       2.736   6.244  20.676  0.00  0.00    +0.000 OA
ATOM      5  N   UNL     1       1.189   7.863  20.835  0.00  0.00    +0.000 N 
ATOM      6  C   UNL     1       0.540   9.001  20.444  0.00  0.00    +0.000 C 
ATOM      7  O   UNL     1      -0.458   9.360  21.058  0.00  0.00    +0.000 OA
ATOM      8  N   UNL     1       1.059   9.649  19.344  0.00  0.00    +0.000 N 
ATOM      9  C   UNL     1       1.860   9.020  18.403  0.00  0.00    +0.000 C 
ATOM     10  O   UNL     1       2.133   9.524  17.311  0.00  0.00    +0.000 OA
ATOM     11  H   UNL     1       0.901   7.461  21.717  0.00  0.00    +0.000 HD
ENDROOT
BRANCH   1  17
ATOM     12  C   UNL     1       1.315   4.558  17.587  0.00  0.00    +0.000 C 
ATOM     13  N   UNL     1       2.729   4.574  17.897  0.00  0.00    +0.000 N 
ATOM     14  C   UNL     1       3.469   3.443  18.140  0.00  0.00    +0.000 A 
ATOM     15  C   UNL     1       4.775   3.821  18.346  0.00  0.00    +0.000 A 
ATOM     16  C   UNL     1       4.825   5.231  18.243  0.00  0.00    +0.000 A 
ATOM     17  C   UNL     1       3.547   5.683  17.969  0.00  0.00    +0.000 A 
ENDBRANCH   1  17
BRANCH   8  18
ATOM     18  C   UNL     1       0.513  10.966  19.014  0.00  0.00    +0.000 C 
BRANCH  18  19
ATOM     19  C   UNL     1      -0.900  10.943  18.451  0.00  0.00    +0.000 A 
ATOM     20  C   UNL     1      -1.262   9.946  17.521  0.00  0.00    +0.000 A 
ATOM     21  C   UNL     1      -2.595   9.762  17.134  0.00  0.00    +0.000 A 
ATOM     22  C   UNL     1      -3.595  10.562  17.674  0.00  0.00    +0.000 A 
ATOM     23  C   UNL     1      -3.257  11.581  18.562  0.00  0.00    +0.000 A 
ATOM     24  C   UNL     1      -1.922  11.779  18.941  0.00  0.00    +0.000 A 
ATOM     25 CL   UNL     1      -1.614  13.068  20.049  0.00  0.00    +0.000 Cl
ENDBRANCH  18  19
ENDBRANCH   8  18
TORSDOF 3
ENDMDL
MODEL 5
REMARK VINA RESULT:      -7.1      4.979      8.102
REMARK  Name = 
REMARK  4 active torsions:
REMARK  status: ('A' for Active; 'I' for Inactive)
REMARK    1  A    between atoms: C_1  and  N_2
REMARK    2  A    between atoms: C_6  and  C_7
REMARK    3  A    between atoms: N_14  and  C_15
REMARK    4  A    between atoms: C_15  and  C_16
REMARK                            x       y       z     vdW  Elec       q    Type
REMARK                         _______ _______ _______ _____ _____    ______ ____
ROOT
ATOM      1  C   UNL     1       2.903   4.856  17.734  0.00  0.00    +0.000 C 
ATOM      2  C   UNL     1       4.210   4.539  17.648  0.00  0.00    +0.000 C 
ATOM      3  C   UNL     1       4.938   3.694  18.622  0.00  0.00    +0.000 C 
ATOM      4  O   UNL     1       4.420   2.946  19.438  0.00  0.00    +0.000 OA
ATOM      5  N   UNL     1       6.294   3.795  18.541  0.00  0.00    +0.000 N 
ATOM      6  C   UNL     1       7.023   4.474  17.605  0.00  0.00    +0.000 C 
ATOM      7  O   UNL     1       8.217   4.671  17.806  0.00  0.00    +0.000 OA
ATOM      8  N   UNL     1       6.332   4.917  16.499  0.00  0.00    +0.000 N 
ATOM      9  C   UNL     1       4.958   5.106  16.491  0.00  0.00    +0.000 C 
ATOM     10  O   UNL     1       4.370   5.713  15.593  0.00  0.00    +0.000 OA
ATOM     11  H   UNL     1       6.816   3.350  19.284  0.00  0.00    +0.000 HD
ENDROOT
BRANCH   1  17
ATOM     12  C   UNL     1       2.383   6.550  20.122  0.00  0.00    +0.000 C 
ATOM     13  N   UNL     1       1.847   5.225  19.893  0.00  0.00    +0.000 N 
ATOM     14  C   UNL     1       1.022   4.573  20.776  0.00  0.00    +0.000 A 
ATOM     15  C   UNL     1       0.664   3.368  20.218  0.00  0.00    +0.000 A 
ATOM     16  C   UNL     1       1.309   3.278  18.963  0.00  0.00    +0.000 A 
ATOM     17  C   UNL     1       2.043   4.435  18.778  0.00  0.00    +0.000 A 
ENDBRANCH   1  17
BRANCH   8  18
ATOM     18  C   UNL     1       7.109   5.473  15.391  0.00  0.00    +0.000 C 
BRANCH  18  19
ATOM     19  C   UNL     1       7.002   4.694  14.088  0.00  0.00    +0.000 A 
ATOM     20  C   UNL     1       5.999   3.714  13.944  0.00  0.00    +0.000 A 
ATOM     21  C   UNL     1       5.733   3.122  12.704  0.00  0.00    +0.000 A 
ATOM     22  C   UNL     1       6.459   3.501  11.580  0.00  0.00    +0.000 A 
ATOM     23  C   UNL     1       7.484   4.436  11.706  0.00  0.00    +0.000 A 
ATOM     24  C   UNL     1       7.762   5.021  12.949  0.00  0.00    +0.000 A 
ATOM     25 CL   UNL     1       9.052   6.170  12.992  0.00  0.00    +0.000 Cl
ENDBRANCH  18  19
ENDBRANCH   8  18
TORSDOF 3
ENDMDL
MODEL 6
REMARK VINA RESULT:      -7.0      1.465      2.444
REMARK  Name = 
REMARK  4 active torsions:
REMARK  status: ('A' for Active; 'I' for Inactive)
REMARK    1  A    between atoms: C_1  and  N_2
REMARK    2  A    between atoms: C_6  and  C_7
REMARK    3  A    between atoms: N_14  and  C_15
REMARK    4  A    between atoms: C_15  and  C_16
REMARK                            x       y       z     vdW  Elec       q    Type
REMARK                         _______ _______ _______ _____ _____    ______ ____
ROOT
ATOM      1  C   UNL     1       2.363   5.916  20.382  0.00  0.00    +0.000 C 
ATOM      2  C   UNL     1       2.158   6.945  19.537  0.00  0.00    +0.000 C 
ATOM      3  C   UNL     1       2.590   6.971  18.120  0.00  0.00    +0.000 C 
ATOM      4  O   UNL     1       2.907   5.994  17.458  0.00  0.00    +0.000 OA
ATOM      5  N   UNL     1       2.601   8.215  17.566  0.00  0.00    +0.000 N 
ATOM      6  C   UNL     1       2.150   9.379  18.124  0.00  0.00    +0.000 C 
ATOM      7  O   UNL     1       2.449  10.447  17.601  0.00  0.00    +0.000 OA
ATOM      8  N   UNL     1       1.402   9.252  19.274  0.00  0.00    +0.000 N 
ATOM      9  C   UNL     1       1.461   8.136  20.095  0.00  0.00    +0.000 C 
ATOM     10  O   UNL     1       0.978   8.113  21.229  0.00  0.00    +0.000 OA
ATOM     11  H   UNL     1       3.030   8.290  16.653  0.00  0.00    +0.000 HD
ENDROOT
BRANCH   1  17
ATOM     12  C   UNL     1       0.903   3.359  19.970  0.00  0.00    +0.000 C 
ATOM     13  N   UNL     1       2.337   3.536  19.886  0.00  0.00    +0.000 N 
ATOM     14  C   UNL     1       3.216   2.518  19.608  0.00  0.00    +0.000 A 
ATOM     15  C   UNL     1       4.484   3.049  19.554  0.00  0.00    +0.000 A 
ATOM     16  C   UNL     1       4.372   4.432  19.828  0.00  0.00    +0.000 A 
ATOM     17  C   UNL     1       3.035   4.717  20.036  0.00  0.00    +0.000 A 
ENDBRANCH   1  17
BRANCH   8  18
ATOM     18  C   UNL     1       0.743  10.453  19.789  0.00  0.00    +0.000 C 
BRANCH  18  19
ATOM     19  C   UNL     1      -0.575  10.793  19.108  0.00  0.00    +0.000 A 
ATOM     20  C   UNL     1      -1.015  10.015  18.017  0.00  0.00    +0.000 A 
ATOM     21  C   UNL     1      -2.306  10.160  17.495  0.00  0.00    +0.000 A 
ATOM     22  C   UNL     1      -3.187  11.078  18.056  0.00  0.00    +0.000 A 
ATOM     23  C   UNL     1      -2.759  11.888  19.106  0.00  0.00    +0.000 A 
ATOM     24  C   UNL     1      -1.464  11.756  19.623  0.00  0.00    +0.000 A 
ATOM     25 CL   UNL     1      -1.039  12.807  20.927  0.00  0.00    +0.000 Cl
ENDBRANCH  18  19
ENDBRANCH   8  18
TORSDOF 3
ENDMDL
MODEL 7
REMARK VINA RESULT:      -7.0      2.858      7.249
REMARK  Name = 
REMARK  4 active torsions:
REMARK  status: ('A' for Active; 'I' for Inactive)
REMARK    1  A    between atoms: C_1  and  N_2
REMARK    2  A    between atoms: C_6  and  C_7
REMARK    3  A    between atoms: N_14  and  C_15
REMARK    4  A    between atoms: C_15  and  C_16
REMARK                            x       y       z     vdW  Elec       q    Type
REMARK                         _______ _______ _______ _____ _____    ______ ____
ROOT
ATOM      1  C   UNL     1       0.417   9.740  19.857  0.00  0.00    +0.000 C 
ATOM      2  C   UNL     1       1.400   8.976  19.342  0.00  0.00    +0.000 C 
ATOM      3  C   UNL     1       2.072   9.227  18.047  0.00  0.00    +0.000 C 
ATOM      4  O   UNL     1       2.050  10.282  17.430  0.00  0.00    +0.000 OA
ATOM      5  N   UNL     1       2.764   8.159  17.563  0.00  0.00    +0.000 N 
ATOM      6  C   UNL     1       2.998   6.966  18.189  0.00  0.00    +0.000 C 
ATOM      7  O   UNL     1       3.426   6.022  17.534  0.00  0.00    +0.000 OA
ATOM      8  N   UNL     1       2.697   6.915  19.533  0.00  0.00    +0.000 N 
ATOM      9  C   UNL     1       1.809   7.789  20.143  0.00  0.00    +0.000 C 
ATOM     10  O   UNL     1       1.365   7.607  21.278  0.00  0.00    +0.000 OA
ATOM     11  H   UNL     1       3.109   8.246  16.616  0.00  0.00    +0.000 HD
ENDROOT
BRANCH   1  17
ATOM     12  C   UNL     1      -1.948   9.581  18.063  0.00  0.00    +0.000 C 
ATOM     13  N   UNL     1      -1.198  10.781  18.368  0.00  0.00    +0.000 N 
ATOM     14  C   UNL     1      -1.491  12.017  17.845  0.00  0.00    +0.000 A 
ATOM     15  C   UNL     1      -0.615  12.929  18.386  0.00  0.00    +0.000 A 
ATOM     16  C   UNL     1       0.250  12.219  19.251  0.00  0.00    +0.000 A 
ATOM     17  C   UNL     1      -0.121  10.887  19.224  0.00  0.00    +0.000 A 
ENDBRANCH   1  17
BRANCH   8  18
ATOM     18  C   UNL     1       3.113   5.725  20.275  0.00  0.00    +0.000 C 
BRANCH  18  19
ATOM     19  C   UNL     1       2.413   4.441  19.856  0.00  0.00    +0.000 A 
ATOM     20  C   UNL     1       1.011   4.344  19.969  0.00  0.00    +0.000 A 
ATOM     21  C   UNL     1       0.309   3.270  19.410  0.00  0.00    +0.000 A 
ATOM     22  C   UNL     1       0.991   2.274  18.719  0.00  0.00    +0.000 A 
ATOM     23  C   UNL     1       2.380   2.326  18.632  0.00  0.00    +0.000 A 
ATOM     24  C   UNL     1       3.088   3.392  19.202  0.00  0.00    +0.000 A 
ATOM     25 CL   UNL     1       4.807   3.359  19.032  0.00  0.00    +0.000 Cl
ENDBRANCH  18  19
ENDBRANCH   8  18
TORSDOF 3
ENDMDL
MODEL 8
REMARK VINA RESULT:      -7.0      5.372      7.886
REMARK  Name = 
REMARK  4 active torsions:
REMARK  status: ('A' for Active; 'I' for Inactive)
REMARK    1  A    between atoms: C_1  and  N_2
REMARK    2  A    between atoms: C_6  and  C_7
REMARK    3  A    between atoms: N_14  and  C_15
REMARK    4  A    between atoms: C_15  and  C_16
REMARK                            x       y       z     vdW  Elec       q    Type
REMARK                         _______ _______ _______ _____ _____    ______ ____
ROOT
ATOM      1  C   UNL     1       4.329   3.610  19.094  0.00  0.00    +0.000 C 
ATOM      2  C   UNL     1       4.588   4.673  18.308  0.00  0.00    +0.000 C 
ATOM      3  C   UNL     1       3.739   5.884  18.221  0.00  0.00    +0.000 C 
ATOM      4  O   UNL     1       2.887   6.212  19.034  0.00  0.00    +0.000 OA
ATOM      5  N   UNL     1       3.986   6.658  17.128  0.00  0.00    +0.000 N 
ATOM      6  C   UNL     1       4.986   6.505  16.208  0.00  0.00    +0.000 C 
ATOM      7  O   UNL     1       4.931   7.132  15.156  0.00  0.00    +0.000 OA
ATOM      8  N   UNL     1       5.983   5.612  16.536  0.00  0.00    +0.000 N 
ATOM      9  C   UNL     1       5.812   4.594  17.463  0.00  0.00    +0.000 C 
ATOM     10  O   UNL     1       6.610   3.663  17.590  0.00  0.00    +0.000 OA
ATOM     11  H   UNL     1       3.329   7.408  16.958  0.00  0.00    +0.000 HD
ENDROOT
BRANCH   1  17
ATOM     12  C   UNL     1       1.803   2.337  18.177  0.00  0.00    +0.000 C 
ATOM     13  N   UNL     1       2.026   2.932  19.478  0.00  0.00    +0.000 N 
ATOM     14  C   UNL     1       1.072   2.989  20.464  0.00  0.00    +0.000 A 
ATOM     15  C   UNL     1       1.638   3.568  21.575  0.00  0.00    +0.000 A 
ATOM     16  C   UNL     1       2.975   3.891  21.246  0.00  0.00    +0.000 A 
ATOM     17  C   UNL     1       3.198   3.495  19.939  0.00  0.00    +0.000 A 
ENDBRANCH   1  17
BRANCH   8  18
ATOM     18  C   UNL     1       7.161   5.565  15.671  0.00  0.00    +0.000 C 
BRANCH  18  19
ATOM     19  C   UNL     1       6.969   4.781  14.381  0.00  0.00    +0.000 A 
ATOM     20  C   UNL     1       5.905   3.862  14.277  0.00  0.00    +0.000 A 
ATOM     21  C   UNL     1       5.568   3.275  13.052  0.00  0.00    +0.000 A 
ATOM     22  C   UNL     1       6.281   3.599  11.903  0.00  0.00    +0.000 A 
ATOM     23  C   UNL     1       7.364   4.471  11.989  0.00  0.00    +0.000 A 
ATOM     24  C   UNL     1       7.714   5.051  13.216  0.00  0.00    +0.000 A 
ATOM     25 CL   UNL     1       9.071   6.120  13.209  0.00  0.00    +0.000 Cl
ENDBRANCH  18  19
ENDBRANCH   8  18
TORSDOF 3
ENDMDL
MODEL 9
REMARK VINA RESULT:      -6.9      2.594      7.194
REMARK  Name = 
REMARK  4 active torsions:
REMARK  status: ('A' for Active; 'I' for Inactive)
REMARK    1  A    between atoms: C_1  and  N_2
REMARK    2  A    between atoms: C_6  and  C_7
REMARK    3  A    between atoms: N_14  and  C_15
REMARK    4  A    between atoms: C_15  and  C_16
REMARK                            x       y       z     vdW  Elec       q    Type
REMARK                         _______ _______ _______ _____ _____    ______ ____
ROOT
ATOM      1  C   UNL     1       0.421   9.160  19.679  0.00  0.00    +0.000 C 
ATOM      2  C   UNL     1       1.551   8.664  19.137  0.00  0.00    +0.000 C 
ATOM      3  C   UNL     1       2.279   9.275  18.001  0.00  0.00    +0.000 C 
ATOM      4  O   UNL     1       2.140  10.423  17.605  0.00  0.00    +0.000 OA
ATOM      5  N   UNL     1       3.168   8.439  17.397  0.00  0.00    +0.000 N 
ATOM      6  C   UNL     1       3.535   7.184  17.798  0.00  0.00    +0.000 C 
ATOM      7  O   UNL     1       4.159   6.468  17.022  0.00  0.00    +0.000 OA
ATOM      8  N   UNL     1       3.138   6.809  19.063  0.00  0.00    +0.000 N 
ATOM      9  C   UNL     1       2.076   7.403  19.729  0.00  0.00    +0.000 C 
ATOM     10  O   UNL     1       1.575   6.926  20.749  0.00  0.00    +0.000 OA
ATOM     11  H   UNL     1       3.571   8.771  16.531  0.00  0.00    +0.000 HD
ENDROOT
BRANCH   1  17
ATOM     12  C   UNL     1       0.997  11.836  20.841  0.00  0.00    +0.000 C 
ATOM     13  N   UNL     1       0.021  11.555  19.809  0.00  0.00    +0.000 N 
ATOM     14  C   UNL     1      -0.780  12.511  19.235  0.00  0.00    +0.000 A 
ATOM     15  C   UNL     1      -1.541  11.906  18.263  0.00  0.00    +0.000 A 
ATOM     16  C   UNL     1      -1.205  10.532  18.260  0.00  0.00    +0.000 A 
ATOM     17  C   UNL     1      -0.238  10.330  19.228  0.00  0.00    +0.000 A 
ENDBRANCH   1  17
BRANCH   8  18
ATOM     18  C   UNL     1       3.674   5.558  19.598  0.00  0.00    +0.000 C 
BRANCH  18  19
ATOM     19  C   UNL     1       2.872   4.317  19.232  0.00  0.00    +0.000 A 
ATOM     20  C   UNL     1       2.813   3.900  17.886  0.00  0.00    +0.000 A 
ATOM     21  C   UNL     1       2.263   2.662  17.533  0.00  0.00    +0.000 A 
ATOM     22  C   UNL     1       1.769   1.811  18.516  0.00  0.00    +0.000 A 
ATOM     23  C   UNL     1       1.778   2.221  19.847  0.00  0.00    +0.000 A 
ATOM     24  C   UNL     1       2.314   3.465  20.204  0.00  0.00    +0.000 A 
ATOM     25 CL   UNL     1       2.277   3.872  21.883  0.00  0.00    +0.000 Cl
ENDBRANCH  18  19
ENDBRANCH   8  18
TORSDOF 3
ENDMDL
