MODEL 1
REMARK VINA RESULT:      -8.4      0.000      0.000
REMARK  Name = 
REMARK  9 active torsions:
REMARK  status: ('A' for Active; 'I' for Inactive)
REMARK    1  A    between atoms: C_1  and  O_2
REMARK    2  A    between atoms: O_2  and  C_3
REMARK    3  A    between atoms: C_3  and  C_5
REMARK    4  A    between atoms: C_8  and  N_9
REMARK    5  A    between atoms: C_10  and  C_12
REMARK    6  A    between atoms: C_12  and  C_13
REMARK    7  A    between atoms: C_13  and  C_14
REMARK    8  A    between atoms: C_15  and  C_16
REMARK    9  A    between atoms: C_31  and  C_32
REMARK                            x       y       z     vdW  Elec       q    Type
REMARK                         _______ _______ _______ _____ _____    ______ ____
ROOT
ATOM      1  C   UNL     1       1.020   8.903  20.812  0.00  0.00    +0.000 A 
ATOM      2  C   UNL     1       0.856   9.548  19.565  0.00  0.00    +0.000 A 
ATOM      3  C   UNL     1       1.494   9.253  18.257  0.00  0.00    +0.000 C 
ATOM      4  N   UNL     1      -0.029  10.543  19.636  0.00  0.00    +0.000 NA
ATOM      5  N   UNL     1      -0.440  10.583  20.936  0.00  0.00    +0.000 N 
ATOM      6  C   UNL     1      -1.287  11.645  21.373  0.00  0.00    +0.000 A 
ATOM      7  C   UNL     1      -1.742  12.569  20.449  0.00  0.00    +0.000 A 
ATOM      8  C   UNL     1      -2.455  13.672  20.907  0.00  0.00    +0.000 A 
ATOM      9  C   UNL     1      -2.724  13.828  22.262  0.00  0.00    +0.000 A 
ATOM     10  N   UNL     1      -3.460  14.912  22.681  0.00  0.00    +0.000 N 
ATOM     11  C   UNL     1      -4.203  14.866  23.940  0.00  0.00    +0.000 C 
ATOM     12  C   UNL     1      -5.464  15.728  23.727  0.00  0.00    +0.000 C 
ATOM     13  O   UNL     1      -5.128  17.080  23.347  0.00  0.00    +0.000 OA
ATOM     14  C   UNL     1      -4.334  17.099  22.144  0.00  0.00    +0.000 C 
ATOM     15  C   UNL     1      -3.053  16.269  22.304  0.00  0.00    +0.000 C 
ATOM     16  N   UNL     1      -2.325  12.870  23.119  0.00  0.00    +0.000 NA
ATOM     17  N   UNL     1      -1.584  11.787  22.680  0.00  0.00    +0.000 NA
ATOM     18  C   UNL     1       0.121   9.541  21.663  0.00  0.00    +0.000 A 
ATOM     19  C   UNL     1      -0.216   9.181  23.070  0.00  0.00    +0.000 C 
ENDROOT
BRANCH   1  20
ATOM     20  C   UNL     1       1.849   7.711  21.149  0.00  0.00    +0.000 C 
BRANCH  20  21
ATOM     21  C   UNL     1       1.458   6.393  20.473  0.00  0.00    +0.000 C 
BRANCH  21  23
ATOM     22  N   UNL     1       2.628   6.167  18.343  0.00  0.00    +0.000 N 
ATOM     23  C   UNL     1       2.665   5.894  19.697  0.00  0.00    +0.000 C 
ATOM     24  O   UNL     1       3.569   5.297  20.272  0.00  0.00    +0.000 OA
ATOM     25  H   UNL     1       1.839   6.693  17.985  0.00  0.00    +0.000 HD
BRANCH  22  29
ATOM     26  C   UNL     1       5.585   4.979  15.539  0.00  0.00    +0.000 A 
ATOM     27  C   UNL     1       5.417   6.326  15.833  0.00  0.00    +0.000 A 
ATOM     28  C   UNL     1       4.454   6.726  16.757  0.00  0.00    +0.000 A 
ATOM     29  C   UNL     1       3.633   5.799  17.411  0.00  0.00    +0.000 A 
ATOM     30  C   UNL     1       3.813   4.442  17.123  0.00  0.00    +0.000 A 
ATOM     31  C   UNL     1       4.782   4.033  16.192  0.00  0.00    +0.000 A 
BRANCH  26  32
ATOM     32  C   UNL     1       6.633   4.641  14.539  0.00  0.00    +0.000 C 
ATOM     33  O   UNL     1       7.695   5.231  14.427  0.00  0.00    +0.000 OA
BRANCH  32  35
ATOM     34  C   UNL     1       6.685   3.639  12.438  0.00  0.00    +0.000 C 
ATOM     35  O   UNL     1       6.221   3.592  13.785  0.00  0.00    +0.000 OA
ENDBRANCH  32  35
ENDBRANCH  26  32
ENDBRANCH  22  29
ENDBRANCH  21  23
ENDBRANCH  20  21
ENDBRANCH   1  20
TORSDOF 6
ENDMDL
MODEL 2
REMARK VINA RESULT:      -7.9      4.229      9.768
REMARK  Name = 
REMARK  9 active torsions:
REMARK  status: ('A' for Active; 'I' for Inactive)
REMARK    1  A    between atoms: C_1  and  O_2
REMARK    2  A    between atoms: O_2  and  C_3
REMARK    3  A    between atoms: C_3  and  C_5
REMARK    4  A    between atoms: C_8  and  N_9
REMARK    5  A    between atoms: C_10  and  C_12
REMARK    6  A    between atoms: C_12  and  C_13
REMARK    7  A    between atoms: C_13  and  C_14
REMARK    8  A    between atoms: C_15  and  C_16
REMARK    9  A    between atoms: C_31  and  C_32
REMARK                            x       y       z     vdW  Elec       q    Type
REMARK                         _______ _______ _______ _____ _____    ______ ____
ROOT
ATOM      1  C   UNL     1       0.058  11.370  21.013  0.00  0.00    +0.000 A 
ATOM      2  C   UNL     1       0.733  11.594  19.791  0.00  0.00    +0.000 A 
ATOM      3  C   UNL     1       0.806  12.823  18.962  0.00  0.00    +0.000 C 
ATOM      4  N   UNL     1       1.401  10.511  19.392  0.00  0.00    +0.000 NA
ATOM      5  N   UNL     1       1.153   9.553  20.331  0.00  0.00    +0.000 N 
ATOM      6  C   UNL     1       1.610   8.219  20.113  0.00  0.00    +0.000 A 
ATOM      7  C   UNL     1       2.370   7.941  18.990  0.00  0.00    +0.000 A 
ATOM      8  C   UNL     1       2.696   6.617  18.719  0.00  0.00    +0.000 A 
ATOM      9  C   UNL     1       2.288   5.598  19.572  0.00  0.00    +0.000 A 
ATOM     10  N   UNL     1       2.654   4.301  19.295  0.00  0.00    +0.000 N 
ATOM     11  C   UNL     1       2.725   3.303  20.362  0.00  0.00    +0.000 C 
ATOM     12  C   UNL     1       3.867   2.341  19.977  0.00  0.00    +0.000 C 
ATOM     13  O   UNL     1       3.641   1.736  18.685  0.00  0.00    +0.000 OA
ATOM     14  C   UNL     1       3.502   2.739  17.659  0.00  0.00    +0.000 C 
ATOM     15  C   UNL     1       2.365   3.718  17.982  0.00  0.00    +0.000 C 
ATOM     16  N   UNL     1       1.612   5.918  20.691  0.00  0.00    +0.000 NA
ATOM     17  N   UNL     1       1.251   7.228  20.953  0.00  0.00    +0.000 NA
ATOM     18  C   UNL     1       0.402  10.071  21.377  0.00  0.00    +0.000 A 
ATOM     19  C   UNL     1       0.070   9.362  22.647  0.00  0.00    +0.000 C 
ENDROOT
BRANCH   1  20
ATOM     20  C   UNL     1      -0.735  12.330  21.834  0.00  0.00    +0.000 C 
BRANCH  20  21
ATOM     21  C   UNL     1      -2.234  12.418  21.525  0.00  0.00    +0.000 C 
BRANCH  21  23
ATOM     22  N   UNL     1      -2.606  11.150  19.474  0.00  0.00    +0.000 N 
ATOM     23  C   UNL     1      -2.397  12.404  20.015  0.00  0.00    +0.000 C 
ATOM     24  O   UNL     1      -2.334  13.448  19.375  0.00  0.00    +0.000 OA
ATOM     25  H   UNL     1      -2.666  10.362  20.108  0.00  0.00    +0.000 HD
BRANCH  22  29
ATOM     26  C   UNL     1      -3.069  10.263  15.349  0.00  0.00    +0.000 A 
ATOM     27  C   UNL     1      -4.037  11.012  16.004  0.00  0.00    +0.000 A 
ATOM     28  C   UNL     1      -3.892  11.316  17.357  0.00  0.00    +0.000 A 
ATOM     29  C   UNL     1      -2.781  10.880  18.091  0.00  0.00    +0.000 A 
ATOM     30  C   UNL     1      -1.802  10.136  17.426  0.00  0.00    +0.000 A 
ATOM     31  C   UNL     1      -1.944   9.827  16.063  0.00  0.00    +0.000 A 
BRANCH  26  32
ATOM     32  C   UNL     1      -3.307   9.982  13.907  0.00  0.00    +0.000 C 
ATOM     33  O   UNL     1      -2.446   9.609  13.127  0.00  0.00    +0.000 OA
BRANCH  32  35
ATOM     34  C   UNL     1      -5.080   9.448  12.496  0.00  0.00    +0.000 C 
ATOM     35  O   UNL     1      -4.610  10.206  13.608  0.00  0.00    +0.000 OA
ENDBRANCH  32  35
ENDBRANCH  26  32
ENDBRANCH  22  29
ENDBRANCH  21  23
ENDBRANCH  20  21
ENDBRANCH   1  20
TORSDOF 6
ENDMDL
MODEL 3
REMARK VINA RESULT:      -7.8      0.885      1.217
REMARK  Name = 
REMARK  9 active torsions:
REMARK  status: ('A' for Active; 'I' for Inactive)
REMARK    1  A    between atoms: C_1  and  O_2
REMARK    2  A    between atoms: O_2  and  C_3
REMARK    3  A    between atoms: C_3  and  C_5
REMARK    4  A    between atoms: C_8  and  N_9
REMARK    5  A    between atoms: C_10  and  C_12
REMARK    6  A    between atoms: C_12  and  C_13
REMARK    7  A    between atoms: C_13  and  C_14
REMARK    8  A    between atoms: C_15  and  C_16
REMARK    9  A    between atoms: C_31  and  C_32
REMARK                            x       y       z     vdW  Elec       q    Type
REMARK                         _______ _______ _______ _____ _____    ______ ____
ROOT
ATOM      1  C   UNL     1       0.671   9.344  20.854  0.00  0.00    +0.000 A 
ATOM      2  C   UNL     1       0.428   9.932  19.592  0.00  0.00    +0.000 A 
ATOM      3  C   UNL     1       1.046   9.636  18.275  0.00  0.00    +0.000 C 
ATOM      4  N   UNL     1      -0.521  10.867  19.658  0.00  0.00    +0.000 NA
ATOM      5  N   UNL     1      -0.897  10.924  20.968  0.00  0.00    +0.000 N 
ATOM      6  C   UNL     1      -1.802  11.940  21.396  0.00  0.00    +0.000 A 
ATOM      7  C   UNL     1      -2.346  12.799  20.457  0.00  0.00    +0.000 A 
ATOM      8  C   UNL     1      -3.120  13.866  20.901  0.00  0.00    +0.000 A 
ATOM      9  C   UNL     1      -3.360  14.051  22.258  0.00  0.00    +0.000 A 
ATOM     10  N   UNL     1      -4.156  15.096  22.664  0.00  0.00    +0.000 N 
ATOM     11  C   UNL     1      -4.858  15.043  23.947  0.00  0.00    +0.000 C 
ATOM     12  C   UNL     1      -6.182  15.809  23.744  0.00  0.00    +0.000 C 
ATOM     13  O   UNL     1      -5.950  17.167  23.310  0.00  0.00    +0.000 OA
ATOM     14  C   UNL     1      -5.195  17.198  22.083  0.00  0.00    +0.000 C 
ATOM     15  C   UNL     1      -3.855  16.463  22.231  0.00  0.00    +0.000 C 
ATOM     16  N   UNL     1      -2.871  13.152  23.133  0.00  0.00    +0.000 NA
ATOM     17  N   UNL     1      -2.071  12.107  22.707  0.00  0.00    +0.000 NA
ATOM     18  C   UNL     1      -0.245   9.948  21.711  0.00  0.00    +0.000 A 
ATOM     19  C   UNL     1      -0.515   9.615  23.139  0.00  0.00    +0.000 C 
ENDROOT
BRANCH   1  20
ATOM     20  C   UNL     1       1.590   8.223  21.203  0.00  0.00    +0.000 C 
BRANCH  20  21
ATOM     21  C   UNL     1       1.057   6.805  20.974  0.00  0.00    +0.000 C 
BRANCH  21  23
ATOM     22  N   UNL     1       2.451   6.647  18.978  0.00  0.00    +0.000 N 
ATOM     23  C   UNL     1       2.096   6.044  20.169  0.00  0.00    +0.000 C 
ATOM     24  O   UNL     1       2.545   4.980  20.584  0.00  0.00    +0.000 OA
ATOM     25  H   UNL     1       2.031   7.542  18.754  0.00  0.00    +0.000 HD
BRANCH  22  29
ATOM     26  C   UNL     1       5.216   5.012  16.203  0.00  0.00    +0.000 A 
ATOM     27  C   UNL     1       5.172   6.385  16.403  0.00  0.00    +0.000 A 
ATOM     28  C   UNL     1       4.274   6.932  17.316  0.00  0.00    +0.000 A 
ATOM     29  C   UNL     1       3.395   6.128  18.054  0.00  0.00    +0.000 A 
ATOM     30  C   UNL     1       3.449   4.744  17.860  0.00  0.00    +0.000 A 
ATOM     31  C   UNL     1       4.353   4.188  16.940  0.00  0.00    +0.000 A 
BRANCH  26  32
ATOM     32  C   UNL     1       6.202   4.514  15.207  0.00  0.00    +0.000 C 
ATOM     33  O   UNL     1       5.911   4.102  14.095  0.00  0.00    +0.000 OA
BRANCH  32  35
ATOM     34  C   UNL     1       7.485   4.538  17.150  0.00  0.00    +0.000 C 
ATOM     35  O   UNL     1       7.453   4.590  15.726  0.00  0.00    +0.000 OA
ENDBRANCH  32  35
ENDBRANCH  26  32
ENDBRANCH  22  29
ENDBRANCH  21  23
ENDBRANCH  20  21
ENDBRANCH   1  20
TORSDOF 6
ENDMDL
MODEL 4
REMARK VINA RESULT:      -7.6      1.866      2.101
REMARK  Name = 
REMARK  9 active torsions:
REMARK  status: ('A' for Active; 'I' for Inactive)
REMARK    1  A    between atoms: C_1  and  O_2
REMARK    2  A    between atoms: O_2  and  C_3
REMARK    3  A    between atoms: C_3  and  C_5
REMARK    4  A    between atoms: C_8  and  N_9
REMARK    5  A    between atoms: C_10  and  C_12
REMARK    6  A    between atoms: C_12  and  C_13
REMARK    7  A    between atoms: C_13  and  C_14
REMARK    8  A    between atoms: C_15  and  C_16
REMARK    9  A    between atoms: C_31  and  C_32
REMARK                            x       y       z     vdW  Elec       q    Type
REMARK                         _______ _______ _______ _____ _____    ______ ____
ROOT
ATOM      1  C   UNL     1       0.952   8.400  20.374  0.00  0.00    +0.000 A 
ATOM      2  C   UNL     1       1.345   9.202  19.278  0.00  0.00    +0.000 A 
ATOM      3  C   UNL     1       1.992   8.808  18.001  0.00  0.00    +0.000 C 
ATOM      4  N   UNL     1       1.043  10.486  19.473  0.00  0.00    +0.000 NA
ATOM      5  N   UNL     1       0.471  10.551  20.710  0.00  0.00    +0.000 N 
ATOM      6  C   UNL     1       0.168  11.822  21.280  0.00  0.00    +0.000 A 
ATOM      7  C   UNL     1       0.383  12.966  20.531  0.00  0.00    +0.000 A 
ATOM      8  C   UNL     1       0.210  14.203  21.141  0.00  0.00    +0.000 A 
ATOM      9  C   UNL     1      -0.194  14.289  22.468  0.00  0.00    +0.000 A 
ATOM     10  N   UNL     1      -0.388  15.527  23.035  0.00  0.00    +0.000 N 
ATOM     11  C   UNL     1      -1.279  15.689  24.184  0.00  0.00    +0.000 C 
ATOM     12  C   UNL     1      -1.916  17.086  24.040  0.00  0.00    +0.000 C 
ATOM     13  O   UNL     1      -0.915  18.125  23.982  0.00  0.00    +0.000 OA
ATOM     14  C   UNL     1      -0.004  17.907  22.887  0.00  0.00    +0.000 C 
ATOM     15  C   UNL     1       0.676  16.534  22.987  0.00  0.00    +0.000 C 
ATOM     16  N   UNL     1      -0.461  13.153  23.141  0.00  0.00    +0.000 NA
ATOM     17  N   UNL     1      -0.259  11.916  22.555  0.00  0.00    +0.000 NA
ATOM     18  C   UNL     1       0.327   9.280  21.253  0.00  0.00    +0.000 A 
ATOM     19  C   UNL     1      -0.391   8.950  22.518  0.00  0.00    +0.000 C 
ENDROOT
BRANCH   1  20
ATOM     20  C   UNL     1       1.038   6.920  20.530  0.00  0.00    +0.000 C 
BRANCH  20  21
ATOM     21  C   UNL     1       2.445   6.323  20.634  0.00  0.00    +0.000 C 
BRANCH  21  23
ATOM     22  N   UNL     1       4.160   6.004  18.928  0.00  0.00    +0.000 N 
ATOM     23  C   UNL     1       2.833   5.806  19.260  0.00  0.00    +0.000 C 
ATOM     24  O   UNL     1       1.997   5.272  18.540  0.00  0.00    +0.000 OA
ATOM     25  H   UNL     1       4.764   6.435  19.618  0.00  0.00    +0.000 HD
BRANCH  22  29
ATOM     26  C   UNL     1       5.923   4.741  15.279  0.00  0.00    +0.000 A 
ATOM     27  C   UNL     1       5.493   6.054  15.417  0.00  0.00    +0.000 A 
ATOM     28  C   UNL     1       4.919   6.482  16.613  0.00  0.00    +0.000 A 
ATOM     29  C   UNL     1       4.757   5.614  17.701  0.00  0.00    +0.000 A 
ATOM     30  C   UNL     1       5.202   4.296  17.564  0.00  0.00    +0.000 A 
ATOM     31  C   UNL     1       5.781   3.860  16.360  0.00  0.00    +0.000 A 
BRANCH  26  32
ATOM     32  C   UNL     1       6.520   4.370  13.968  0.00  0.00    +0.000 C 
ATOM     33  O   UNL     1       6.183   3.401  13.307  0.00  0.00    +0.000 OA
BRANCH  32  35
ATOM     34  C   UNL     1       7.691   5.384  12.229  0.00  0.00    +0.000 C 
ATOM     35  O   UNL     1       7.481   5.267  13.634  0.00  0.00    +0.000 OA
ENDBRANCH  32  35
ENDBRANCH  26  32
ENDBRANCH  22  29
ENDBRANCH  21  23
ENDBRANCH  20  21
ENDBRANCH   1  20
TORSDOF 6
ENDMDL
MODEL 5
REMARK VINA RESULT:      -7.6      3.040     12.038
REMARK  Name = 
REMARK  9 active torsions:
REMARK  status: ('A' for Active; 'I' for Inactive)
REMARK    1  A    between atoms: C_1  and  O_2
REMARK    2  A    between atoms: O_2  and  C_3
REMARK    3  A    between atoms: C_3  and  C_5
REMARK    4  A    between atoms: C_8  and  N_9
REMARK    5  A    between atoms: C_10  and  C_12
REMARK    6  A    between atoms: C_12  and  C_13
REMARK    7  A    between atoms: C_13  and  C_14
REMARK    8  A    between atoms: C_15  and  C_16
REMARK    9  A    between atoms: C_31  and  C_32
REMARK                            x       y       z     vdW  Elec       q    Type
REMARK                         _______ _______ _______ _____ _____    ______ ____
ROOT
ATOM      1  C   UNL     1       0.796  11.336  19.961  0.00  0.00    +0.000 A 
ATOM      2  C   UNL     1       0.411  10.739  21.184  0.00  0.00    +0.000 A 
ATOM      3  C   UNL     1      -0.186  11.360  22.393  0.00  0.00    +0.000 C 
ATOM      4  N   UNL     1       0.619   9.422  21.177  0.00  0.00    +0.000 NA
ATOM      5  N   UNL     1       1.168   9.138  19.961  0.00  0.00    +0.000 N 
ATOM      6  C   UNL     1       1.648   7.821  19.695  0.00  0.00    +0.000 A 
ATOM      7  C   UNL     1       1.471   6.834  20.649  0.00  0.00    +0.000 A 
ATOM      8  C   UNL     1       2.058   5.592  20.436  0.00  0.00    +0.000 A 
ATOM      9  C   UNL     1       2.787   5.341  19.279  0.00  0.00    +0.000 A 
ATOM     10  N   UNL     1       3.328   4.092  19.082  0.00  0.00    +0.000 N 
ATOM     11  C   UNL     1       3.625   3.613  17.732  0.00  0.00    +0.000 C 
ATOM     12  C   UNL     1       3.391   2.089  17.755  0.00  0.00    +0.000 C 
ATOM     13  O   UNL     1       4.209   1.438  18.751  0.00  0.00    +0.000 OA
ATOM     14  C   UNL     1       3.953   1.975  20.064  0.00  0.00    +0.000 C 
ATOM     15  C   UNL     1       4.189   3.492  20.106  0.00  0.00    +0.000 C 
ATOM     16  N   UNL     1       2.875   6.305  18.344  0.00  0.00    +0.000 NA
ATOM     17  N   UNL     1       2.324   7.557  18.560  0.00  0.00    +0.000 NA
ATOM     18  C   UNL     1       1.213  10.274  19.163  0.00  0.00    +0.000 A 
ATOM     19  C   UNL     1       1.608  10.315  17.725  0.00  0.00    +0.000 C 
ENDROOT
BRANCH   1  20
ATOM     20  C   UNL     1       0.664  12.757  19.530  0.00  0.00    +0.000 C 
BRANCH  20  21
ATOM     21  C   UNL     1      -0.414  13.058  18.484  0.00  0.00    +0.000 C 
BRANCH  21  23
ATOM     22  N   UNL     1      -2.232  13.347  20.084  0.00  0.00    +0.000 N 
ATOM     23  C   UNL     1      -1.745  12.585  19.040  0.00  0.00    +0.000 C 
ATOM     24  O   UNL     1      -2.298  11.596  18.570  0.00  0.00    +0.000 OA
ATOM     25  H   UNL     1      -1.699  14.160  20.369  0.00  0.00    +0.000 HD
BRANCH  22  29
ATOM     26  C   UNL     1      -5.842  12.671  22.214  0.00  0.00    +0.000 A 
ATOM     27  C   UNL     1      -5.827  12.557  20.831  0.00  0.00    +0.000 A 
ATOM     28  C   UNL     1      -4.647  12.769  20.122  0.00  0.00    +0.000 A 
ATOM     29  C   UNL     1      -3.451  13.103  20.771  0.00  0.00    +0.000 A 
ATOM     30  C   UNL     1      -3.464  13.205  22.165  0.00  0.00    +0.000 A 
ATOM     31  C   UNL     1      -4.652  12.992  22.884  0.00  0.00    +0.000 A 
BRANCH  26  32
ATOM     32  C   UNL     1      -7.145  12.431  22.890  0.00  0.00    +0.000 C 
ATOM     33  O   UNL     1      -7.505  11.352  23.331  0.00  0.00    +0.000 OA
BRANCH  32  35
ATOM     34  C   UNL     1      -7.911  14.175  24.230  0.00  0.00    +0.000 C 
ATOM     35  O   UNL     1      -7.855  13.586  22.933  0.00  0.00    +0.000 OA
ENDBRANCH  32  35
ENDBRANCH  26  32
ENDBRANCH  22  29
ENDBRANCH  21  23
ENDBRANCH  20  21
ENDBRANCH   1  20
TORSDOF 6
ENDMDL
MODEL 6
REMARK VINA RESULT:      -7.5      4.520     10.213
REMARK  Name = 
REMARK  9 active torsions:
REMARK  status: ('A' for Active; 'I' for Inactive)
REMARK    1  A    between atoms: C_1  and  O_2
REMARK    2  A    between atoms: O_2  and  C_3
REMARK    3  A    between atoms: C_3  and  C_5
REMARK    4  A    between atoms: C_8  and  N_9
REMARK    5  A    between atoms: C_10  and  C_12
REMARK    6  A    between atoms: C_12  and  C_13
REMARK    7  A    between atoms: C_13  and  C_14
REMARK    8  A    between atoms: C_15  and  C_16
REMARK    9  A    between atoms: C_31  and  C_32
REMARK                            x       y       z     vdW  Elec       q    Type
REMARK                         _______ _______ _______ _____ _____    ______ ____
ROOT
ATOM      1  C   UNL     1      -0.258  10.339  20.785  0.00  0.00    +0.000 A 
ATOM      2  C   UNL     1       0.018   9.345  21.752  0.00  0.00    +0.000 A 
ATOM      3  C   UNL     1      -0.458   9.229  23.153  0.00  0.00    +0.000 C 
ATOM      4  N   UNL     1       0.811   8.389  21.264  0.00  0.00    +0.000 NA
ATOM      5  N   UNL     1       1.087   8.755  19.979  0.00  0.00    +0.000 N 
ATOM      6  C   UNL     1       2.039   8.008  19.225  0.00  0.00    +0.000 A 
ATOM      7  C   UNL     1       2.604   6.874  19.784  0.00  0.00    +0.000 A 
ATOM      8  C   UNL     1       3.626   6.231  19.095  0.00  0.00    +0.000 A 
ATOM      9  C   UNL     1       4.055   6.704  17.859  0.00  0.00    +0.000 A 
ATOM     10  N   UNL     1       5.045   6.028  17.186  0.00  0.00    +0.000 N 
ATOM     11  C   UNL     1       5.166   6.136  15.732  0.00  0.00    +0.000 C 
ATOM     12  C   UNL     1       5.689   4.770  15.241  0.00  0.00    +0.000 C 
ATOM     13  O   UNL     1       6.946   4.427  15.864  0.00  0.00    +0.000 OA
ATOM     14  C   UNL     1       6.824   4.397  17.300  0.00  0.00    +0.000 C 
ATOM     15  C   UNL     1       6.321   5.740  17.848  0.00  0.00    +0.000 C 
ATOM     16  N   UNL     1       3.431   7.767  17.318  0.00  0.00    +0.000 NA
ATOM     17  N   UNL     1       2.436   8.436  18.010  0.00  0.00    +0.000 NA
ATOM     18  C   UNL     1       0.383   9.900  19.630  0.00  0.00    +0.000 A 
ATOM     19  C   UNL     1       0.319  10.502  18.267  0.00  0.00    +0.000 C 
ENDROOT
BRANCH   1  20
ATOM     20  C   UNL     1      -1.149  11.529  20.895  0.00  0.00    +0.000 C 
BRANCH  20  21
ATOM     21  C   UNL     1      -0.586  12.738  21.650  0.00  0.00    +0.000 C 
BRANCH  21  23
ATOM     22  N   UNL     1       1.731  13.307  21.139  0.00  0.00    +0.000 N 
ATOM     23  C   UNL     1       0.414  13.429  20.739  0.00  0.00    +0.000 C 
ATOM     24  O   UNL     1       0.031  14.038  19.746  0.00  0.00    +0.000 OA
ATOM     25  H   UNL     1       1.929  12.755  21.965  0.00  0.00    +0.000 HD
BRANCH  22  29
ATOM     26  C   UNL     1       4.999  14.993  19.018  0.00  0.00    +0.000 A 
ATOM     27  C   UNL     1       4.981  15.040  20.405  0.00  0.00    +0.000 A 
ATOM     28  C   UNL     1       3.917  14.483  21.112  0.00  0.00    +0.000 A 
ATOM     29  C   UNL     1       2.843  13.868  20.458  0.00  0.00    +0.000 A 
ATOM     30  C   UNL     1       2.868  13.811  19.061  0.00  0.00    +0.000 A 
ATOM     31  C   UNL     1       3.938  14.371  18.343  0.00  0.00    +0.000 A 
BRANCH  26  32
ATOM     32  C   UNL     1       6.170  15.615  18.345  0.00  0.00    +0.000 C 
ATOM     33  O   UNL     1       6.579  16.742  18.574  0.00  0.00    +0.000 OA
BRANCH  32  35
ATOM     34  C   UNL     1       7.742  13.935  17.988  0.00  0.00    +0.000 C 
ATOM     35  O   UNL     1       6.698  14.743  17.451  0.00  0.00    +0.000 OA
ENDBRANCH  32  35
ENDBRANCH  26  32
ENDBRANCH  22  29
ENDBRANCH  21  23
ENDBRANCH  20  21
ENDBRANCH   1  20
TORSDOF 6
ENDMDL
MODEL 7
REMARK VINA RESULT:      -7.5      3.408      5.546
REMARK  Name = 
REMARK  9 active torsions:
REMARK  status: ('A' for Active; 'I' for Inactive)
REMARK    1  A    between atoms: C_1  and  O_2
REMARK    2  A    between atoms: O_2  and  C_3
REMARK    3  A    between atoms: C_3  and  C_5
REMARK    4  A    between atoms: C_8  and  N_9
REMARK    5  A    between atoms: C_10  and  C_12
REMARK    6  A    between atoms: C_12  and  C_13
REMARK    7  A    between atoms: C_13  and  C_14
REMARK    8  A    between atoms: C_15  and  C_16
REMARK    9  A    between atoms: C_31  and  C_32
REMARK                            x       y       z     vdW  Elec       q    Type
REMARK                         _______ _______ _______ _____ _____    ______ ____
ROOT
ATOM      1  C   UNL     1       2.596   5.061  18.977  0.00  0.00    +0.000 A 
ATOM      2  C   UNL     1       2.171   4.707  20.278  0.00  0.00    +0.000 A 
ATOM      3  C   UNL     1       2.141   3.376  20.934  0.00  0.00    +0.000 C 
ATOM      4  N   UNL     1       1.772   5.773  20.974  0.00  0.00    +0.000 NA
ATOM      5  N   UNL     1       1.904   6.838  20.131  0.00  0.00    +0.000 N 
ATOM      6  C   UNL     1       1.416   8.117  20.532  0.00  0.00    +0.000 A 
ATOM      7  C   UNL     1       0.891   8.271  21.804  0.00  0.00    +0.000 A 
ATOM      8  C   UNL     1       0.298   9.483  22.137  0.00  0.00    +0.000 A 
ATOM      9  C   UNL     1       0.255  10.527  21.218  0.00  0.00    +0.000 A 
ATOM     10  N   UNL     1      -0.309  11.725  21.587  0.00  0.00    +0.000 N 
ATOM     11  C   UNL     1       0.069  12.966  20.911  0.00  0.00    +0.000 C 
ATOM     12  C   UNL     1      -0.012  14.079  21.977  0.00  0.00    +0.000 C 
ATOM     13  O   UNL     1      -1.329  14.162  22.562  0.00  0.00    +0.000 OA
ATOM     14  C   UNL     1      -1.713  12.907  23.159  0.00  0.00    +0.000 C 
ATOM     15  C   UNL     1      -1.667  11.763  22.137  0.00  0.00    +0.000 C 
ATOM     16  N   UNL     1       0.840  10.360  20.017  0.00  0.00    +0.000 NA
ATOM     17  N   UNL     1       1.402   9.146  19.662  0.00  0.00    +0.000 NA
ATOM     18  C   UNL     1       2.482   6.448  18.931  0.00  0.00    +0.000 A 
ATOM     19  C   UNL     1       2.916   7.362  17.834  0.00  0.00    +0.000 C 
ENDROOT
BRANCH   1  20
ATOM     20  C   UNL     1       3.178   4.193  17.914  0.00  0.00    +0.000 C 
BRANCH  20  21
ATOM     21  C   UNL     1       4.616   3.712  18.134  0.00  0.00    +0.000 C 
BRANCH  21  23
ATOM     22  N   UNL     1       6.031   5.639  17.648  0.00  0.00    +0.000 N 
ATOM     23  C   UNL     1       5.427   4.891  18.641  0.00  0.00    +0.000 C 
ATOM     24  O   UNL     1       5.514   5.114  19.844  0.00  0.00    +0.000 OA
ATOM     25  H   UNL     1       5.864   5.373  16.684  0.00  0.00    +0.000 HD
BRANCH  22  29
ATOM     26  C   UNL     1       8.378   9.118  18.288  0.00  0.00    +0.000 A 
ATOM     27  C   UNL     1       8.724   7.929  18.915  0.00  0.00    +0.000 A 
ATOM     28  C   UNL     1       7.966   6.779  18.707  0.00  0.00    +0.000 A 
ATOM     29  C   UNL     1       6.842   6.782  17.870  0.00  0.00    +0.000 A 
ATOM     30  C   UNL     1       6.501   7.978  17.230  0.00  0.00    +0.000 A 
ATOM     31  C   UNL     1       7.263   9.140  17.437  0.00  0.00    +0.000 A 
BRANCH  26  32
ATOM     32  C   UNL     1       9.240  10.296  18.569  0.00  0.00    +0.000 C 
ATOM     33  O   UNL     1      10.191  10.635  17.883  0.00  0.00    +0.000 OA
BRANCH  32  35
ATOM     34  C   UNL     1       9.823  11.101  20.675  0.00  0.00    +0.000 C 
ATOM     35  O   UNL     1       8.806  10.920  19.692  0.00  0.00    +0.000 OA
ENDBRANCH  32  35
ENDBRANCH  26  32
ENDBRANCH  22  29
ENDBRANCH  21  23
ENDBRANCH  20  21
ENDBRANCH   1  20
TORSDOF 6
ENDMDL
MODEL 8
REMARK VINA RESULT:      -7.5      5.379     10.262
REMARK  Name = 
REMARK  9 active torsions:
REMARK  status: ('A' for Active; 'I' for Inactive)
REMARK    1  A    between atoms: C_1  and  O_2
REMARK    2  A    between atoms: O_2  and  C_3
REMARK    3  A    between atoms: C_3  and  C_5
REMARK    4  A    between atoms: C_8  and  N_9
REMARK    5  A    between atoms: C_10  and  C_12
REMARK    6  A    between atoms: C_12  and  C_13
REMARK    7  A    between atoms: C_13  and  C_14
REMARK    8  A    between atoms: C_15  and  C_16
REMARK    9  A    between atoms: C_31  and  C_32
REMARK                            x       y       z     vdW  Elec       q    Type
REMARK                         _______ _______ _______ _____ _____    ______ ____
ROOT
ATOM      1  C   UNL     1       6.579   5.502  17.260  0.00  0.00    +0.000 A 
ATOM      2  C   UNL     1       6.106   6.388  16.265  0.00  0.00    +0.000 A 
ATOM      3  C   UNL     1       5.254   6.113  15.081  0.00  0.00    +0.000 C 
ATOM      4  N   UNL     1       6.499   7.641  16.493  0.00  0.00    +0.000 NA
ATOM      5  N   UNL     1       7.257   7.594  17.626  0.00  0.00    +0.000 N 
ATOM      6  C   UNL     1       7.954   8.762  18.056  0.00  0.00    +0.000 A 
ATOM      7  C   UNL     1       7.781   9.945  17.360  0.00  0.00    +0.000 A 
ATOM      8  C   UNL     1       8.565  11.041  17.705  0.00  0.00    +0.000 A 
ATOM      9  C   UNL     1       9.485  10.954  18.744  0.00  0.00    +0.000 A 
ATOM     10  N   UNL     1      10.223  12.064  19.084  0.00  0.00    +0.000 N 
ATOM     11  C   UNL     1      10.782  12.203  20.428  0.00  0.00    +0.000 C 
ATOM     12  C   UNL     1      10.767  13.713  20.746  0.00  0.00    +0.000 C 
ATOM     13  O   UNL     1      11.514  14.470  19.769  0.00  0.00    +0.000 OA
ATOM     14  C   UNL     1      10.992  14.262  18.442  0.00  0.00    +0.000 C 
ATOM     15  C   UNL     1      10.999  12.774  18.063  0.00  0.00    +0.000 C 
ATOM     16  N   UNL     1       9.572   9.806  19.442  0.00  0.00    +0.000 NA
ATOM     17  N   UNL     1       8.823   8.699  19.085  0.00  0.00    +0.000 NA
ATOM     18  C   UNL     1       7.257   6.314  18.165  0.00  0.00    +0.000 A 
ATOM     19  C   UNL     1       7.851   5.920  19.475  0.00  0.00    +0.000 C 
ENDROOT
BRANCH   1  20
ATOM     20  C   UNL     1       6.310   4.044  17.420  0.00  0.00    +0.000 C 
BRANCH  20  21
ATOM     21  C   UNL     1       4.852   3.639  17.657  0.00  0.00    +0.000 C 
BRANCH  21  23
ATOM     22  N   UNL     1       3.339   5.500  18.105  0.00  0.00    +0.000 N 
ATOM     23  C   UNL     1       4.253   4.619  18.650  0.00  0.00    +0.000 C 
ATOM     24  O   UNL     1       4.594   4.594  19.828  0.00  0.00    +0.000 OA
ATOM     25  H   UNL     1       3.117   5.407  17.121  0.00  0.00    +0.000 HD
BRANCH  22  29
ATOM     26  C   UNL     1       1.259   8.563  20.181  0.00  0.00    +0.000 A 
ATOM     27  C   UNL     1       1.445   7.327  20.785  0.00  0.00    +0.000 A 
ATOM     28  C   UNL     1       2.133   6.317  20.116  0.00  0.00    +0.000 A 
ATOM     29  C   UNL     1       2.651   6.509  18.828  0.00  0.00    +0.000 A 
ATOM     30  C   UNL     1       2.473   7.759  18.226  0.00  0.00    +0.000 A 
ATOM     31  C   UNL     1       1.779   8.781  18.897  0.00  0.00    +0.000 A 
BRANCH  26  32
ATOM     32  C   UNL     1       0.510   9.582  20.964  0.00  0.00    +0.000 C 
ATOM     33  O   UNL     1       0.438  10.764  20.668  0.00  0.00    +0.000 OA
BRANCH  32  35
ATOM     34  C   UNL     1      -0.486   9.920  23.042  0.00  0.00    +0.000 C 
ATOM     35  O   UNL     1      -0.066   8.995  22.043  0.00  0.00    +0.000 OA
ENDBRANCH  32  35
ENDBRANCH  26  32
ENDBRANCH  22  29
ENDBRANCH  21  23
ENDBRANCH  20  21
ENDBRANCH   1  20
TORSDOF 6
ENDMDL
MODEL 9
REMARK VINA RESULT:      -7.4      5.470     10.181
REMARK  Name = 
REMARK  9 active torsions:
REMARK  status: ('A' for Active; 'I' for Inactive)
REMARK    1  A    between atoms: C_1  and  O_2
REMARK    2  A    between atoms: O_2  and  C_3
REMARK    3  A    between atoms: C_3  and  C_5
REMARK    4  A    between atoms: C_8  and  N_9
REMARK    5  A    between atoms: C_10  and  C_12
REMARK    6  A    between atoms: C_12  and  C_13
REMARK    7  A    between atoms: C_13  and  C_14
REMARK    8  A    between atoms: C_15  and  C_16
REMARK    9  A    between atoms: C_31  and  C_32
REMARK                            x       y       z     vdW  Elec       q    Type
REMARK                         _______ _______ _______ _____ _____    ______ ____
ROOT
ATOM      1  C   UNL     1       6.479   5.427  17.495  0.00  0.00    +0.000 A 
ATOM      2  C   UNL     1       6.059   6.266  16.438  0.00  0.00    +0.000 A 
ATOM      3  C   UNL     1       5.218   5.951  15.257  0.00  0.00    +0.000 C 
ATOM      4  N   UNL     1       6.498   7.516  16.597  0.00  0.00    +0.000 NA
ATOM      5  N   UNL     1       7.234   7.509  17.745  0.00  0.00    +0.000 N 
ATOM      6  C   UNL     1       7.969   8.673  18.117  0.00  0.00    +0.000 A 
ATOM      7  C   UNL     1       7.856   9.818  17.346  0.00  0.00    +0.000 A 
ATOM      8  C   UNL     1       8.676  10.901  17.639  0.00  0.00    +0.000 A 
ATOM      9  C   UNL     1       9.574  10.844  18.699  0.00  0.00    +0.000 A 
ATOM     10  N   UNL     1      10.350  11.943  18.985  0.00  0.00    +0.000 N 
ATOM     11  C   UNL     1      10.891  12.144  20.330  0.00  0.00    +0.000 C 
ATOM     12  C   UNL     1      10.931  13.669  20.554  0.00  0.00    +0.000 C 
ATOM     13  O   UNL     1      11.723  14.335  19.547  0.00  0.00    +0.000 OA
ATOM     14  C   UNL     1      11.217  14.066  18.225  0.00  0.00    +0.000 C 
ATOM     15  C   UNL     1      11.171  12.558  17.939  0.00  0.00    +0.000 C 
ATOM     16  N   UNL     1       9.603   9.739  19.468  0.00  0.00    +0.000 NA
ATOM     17  N   UNL     1       8.817   8.641  19.165  0.00  0.00    +0.000 NA
ATOM     18  C   UNL     1       7.174   6.266  18.362  0.00  0.00    +0.000 A 
ATOM     19  C   UNL     1       7.728   5.932  19.706  0.00  0.00    +0.000 C 
ENDROOT
BRANCH   1  20
ATOM     20  C   UNL     1       6.150   3.993  17.739  0.00  0.00    +0.000 C 
BRANCH  20  21
ATOM     21  C   UNL     1       4.989   3.711  18.698  0.00  0.00    +0.000 C 
BRANCH  21  23
ATOM     22  N   UNL     1       3.919   5.847  19.193  0.00  0.00    +0.000 N 
ATOM     23  C   UNL     1       3.889   4.715  18.401  0.00  0.00    +0.000 C 
ATOM     24  O   UNL     1       3.061   4.488  17.525  0.00  0.00    +0.000 OA
ATOM     25  H   UNL     1       4.670   5.937  19.867  0.00  0.00    +0.000 HD
BRANCH  22  29
ATOM     26  C   UNL     1       1.159   9.069  19.044  0.00  0.00    +0.000 A 
ATOM     27  C   UNL     1       1.962   8.800  17.944  0.00  0.00    +0.000 A 
ATOM     28  C   UNL     1       2.866   7.740  17.979  0.00  0.00    +0.000 A 
ATOM     29  C   UNL     1       2.996   6.923  19.109  0.00  0.00    +0.000 A 
ATOM     30  C   UNL     1       2.178   7.188  20.212  0.00  0.00    +0.000 A 
ATOM     31  C   UNL     1       1.265   8.256  20.181  0.00  0.00    +0.000 A 
BRANCH  26  32
ATOM     32  C   UNL     1       0.225  10.221  18.921  0.00  0.00    +0.000 C 
ATOM     33  O   UNL     1      -0.982  10.151  19.091  0.00  0.00    +0.000 OA
BRANCH  32  35
ATOM     34  C   UNL     1       0.486  12.505  19.289  0.00  0.00    +0.000 C 
ATOM     35  O   UNL     1       0.921  11.338  18.595  0.00  0.00    +0.000 OA
ENDBRANCH  32  35
ENDBRANCH  26  32
ENDBRANCH  22  29
ENDBRANCH  21  23
ENDBRANCH  20  21
ENDBRANCH   1  20
TORSDOF 6
ENDMDL
