MODEL 1
REMARK VINA RESULT:      -7.9      0.000      0.000
REMARK  Name = 
REMARK  8 active torsions:
REMARK  status: ('A' for Active; 'I' for Inactive)
REMARK    1  A    between atoms: C_1  and  O_2
REMARK    2  A    between atoms: O_2  and  C_3
REMARK    3  A    between atoms: C_5  and  N_6
REMARK    4  A    between atoms: C_7  and  C_9
REMARK    5  A    between atoms: C_13  and  N_14
REMARK    6  A    between atoms: C_21  and  C_22
REMARK    7  A    between atoms: C_23  and  C_24
REMARK    8  A    between atoms: C_24  and  O_26
REMARK                            x       y       z     vdW  Elec       q    Type
REMARK                         _______ _______ _______ _____ _____    ______ ____
ROOT
ATOM      1  N   UNL     1       1.829   7.376  20.007  0.00  0.00    +0.000 N 
ATOM      2  C   UNL     1       2.467   7.335  18.774  0.00  0.00    +0.000 C 
ATOM      3  O   UNL     1       2.706   8.278  18.030  0.00  0.00    +0.000 OA
ATOM      4  H   UNL     1       1.881   6.550  20.588  0.00  0.00    +0.000 HD
ENDROOT
BRANCH   1   7
ATOM      5  C   UNL     1       0.015  10.630  20.375  0.00  0.00    +0.000 A 
ATOM      6  C   UNL     1       0.653   9.525  19.797  0.00  0.00    +0.000 A 
ATOM      7  C   UNL     1       1.195   8.505  20.577  0.00  0.00    +0.000 A 
ATOM      8  C   UNL     1       1.087   8.587  21.964  0.00  0.00    +0.000 A 
ATOM      9  C   UNL     1       0.434   9.678  22.557  0.00  0.00    +0.000 A 
ATOM     10  C   UNL     1      -0.131  10.700  21.774  0.00  0.00    +0.000 A 
BRANCH   5  12
ATOM     11  C   UNL     1      -1.751  11.406  18.973  0.00  0.00    +0.000 C 
ATOM     12  O   UNL     1      -0.501  11.659  19.616  0.00  0.00    +0.000 OA
ENDBRANCH   5  12
BRANCH  10  13
ATOM     13  C   UNL     1      -0.789  11.811  22.490  0.00  0.00    +0.000 C 
ATOM     14  C   UNL     1      -2.072  11.801  22.886  0.00  0.00    +0.000 C 
BRANCH  14  15
ATOM     15  C   UNL     1      -2.633  12.975  23.575  0.00  0.00    +0.000 C 
ATOM     16  O   UNL     1      -2.183  14.104  23.506  0.00  0.00    +0.000 OA
BRANCH  15  17
ATOM     17  O   UNL     1      -3.728  12.650  24.293  0.00  0.00    +0.000 OA
ATOM     18  H   UNL     1      -4.238  13.414  24.622  0.00  0.00    +0.000 HD
ENDBRANCH  15  17
ENDBRANCH  14  15
ENDBRANCH  10  13
ENDBRANCH   1   7
BRANCH   2  19
ATOM     19  C   UNL     1       2.948   5.997  18.357  0.00  0.00    +0.000 A 
ATOM     20  C   UNL     1       2.054   5.020  17.912  0.00  0.00    +0.000 A 
ATOM     21  C   UNL     1       2.542   3.772  17.544  0.00  0.00    +0.000 A 
ATOM     22  C   UNL     1       3.913   3.511  17.621  0.00  0.00    +0.000 A 
ATOM     23  C   UNL     1       4.832   4.487  18.047  0.00  0.00    +0.000 A 
ATOM     24  C   UNL     1       4.331   5.744  18.394  0.00  0.00    +0.000 A 
BRANCH  23  25
ATOM     25  N   UNL     1       6.192   4.145  18.095  0.00  0.00    +0.000 N 
ATOM     26  C   UNL     1       7.256   4.606  17.394  0.00  0.00    +0.000 C 
ATOM     27  N   UNL     1       7.316   5.320  16.331  0.00  0.00    +0.000 NA
ATOM     28  N   UNL     1       8.424   4.172  17.920  0.00  0.00    +0.000 N 
ATOM     29  H   UNL     1       6.397   3.313  18.631  0.00  0.00    +0.000 HD
ATOM     30  H   UNL     1       6.370   5.514  15.995  0.00  0.00    +0.000 HD
ATOM     31  H   UNL     1       8.528   4.406  18.901  0.00  0.00    +0.000 HD
ATOM     32  H   UNL     1       9.189   4.583  17.391  0.00  0.00    +0.000 HD
ENDBRANCH  23  25
ENDBRANCH   2  19
TORSDOF 7
ENDMDL
MODEL 2
REMARK VINA RESULT:      -7.8      1.031      1.440
REMARK  Name = 
REMARK  8 active torsions:
REMARK  status: ('A' for Active; 'I' for Inactive)
REMARK    1  A    between atoms: C_1  and  O_2
REMARK    2  A    between atoms: O_2  and  C_3
REMARK    3  A    between atoms: C_5  and  N_6
REMARK    4  A    between atoms: C_7  and  C_9
REMARK    5  A    between atoms: C_13  and  N_14
REMARK    6  A    between atoms: C_21  and  C_22
REMARK    7  A    between atoms: C_23  and  C_24
REMARK    8  A    between atoms: C_24  and  O_26
REMARK                            x       y       z     vdW  Elec       q    Type
REMARK                         _______ _______ _______ _____ _____    ______ ____
ROOT
ATOM      1  N   UNL     1       1.754   8.007  19.883  0.00  0.00    +0.000 N 
ATOM      2  C   UNL     1       2.332   8.137  18.628  0.00  0.00    +0.000 C 
ATOM      3  O   UNL     1       2.431   9.158  17.958  0.00  0.00    +0.000 OA
ATOM      4  H   UNL     1       1.923   7.148  20.389  0.00  0.00    +0.000 HD
ENDROOT
BRANCH   1   7
ATOM      5  C   UNL     1      -0.354  11.017  20.598  0.00  0.00    +0.000 A 
ATOM      6  C   UNL     1       0.372  10.041  19.905  0.00  0.00    +0.000 A 
ATOM      7  C   UNL     1       1.029   9.008  20.572  0.00  0.00    +0.000 A 
ATOM      8  C   UNL     1       0.947   8.945  21.962  0.00  0.00    +0.000 A 
ATOM      9  C   UNL     1       0.207   9.904  22.669  0.00  0.00    +0.000 A 
ATOM     10  C   UNL     1      -0.473  10.936  21.999  0.00  0.00    +0.000 A 
BRANCH   5  12
ATOM     11  C   UNL     1      -0.331  12.575  18.793  0.00  0.00    +0.000 C 
ATOM     12  O   UNL     1      -0.985  12.060  19.953  0.00  0.00    +0.000 OA
ENDBRANCH   5  12
BRANCH  10  13
ATOM     13  C   UNL     1      -1.216  11.903  22.831  0.00  0.00    +0.000 C 
ATOM     14  C   UNL     1      -2.527  11.813  23.106  0.00  0.00    +0.000 C 
BRANCH  14  15
ATOM     15  C   UNL     1      -3.174  12.847  23.931  0.00  0.00    +0.000 C 
ATOM     16  O   UNL     1      -4.093  12.646  24.704  0.00  0.00    +0.000 OA
BRANCH  15  17
ATOM     17  O   UNL     1      -2.614  14.058  23.736  0.00  0.00    +0.000 OA
ATOM     18  H   UNL     1      -1.749  14.178  24.168  0.00  0.00    +0.000 HD
ENDBRANCH  15  17
ENDBRANCH  14  15
ENDBRANCH  10  13
ENDBRANCH   1   7
BRANCH   2  19
ATOM     19  C   UNL     1       2.936   6.900  18.080  0.00  0.00    +0.000 A 
ATOM     20  C   UNL     1       2.411   5.644  18.397  0.00  0.00    +0.000 A 
ATOM     21  C   UNL     1       3.015   4.506  17.877  0.00  0.00    +0.000 A 
ATOM     22  C   UNL     1       4.132   4.630  17.045  0.00  0.00    +0.000 A 
ATOM     23  C   UNL     1       4.663   5.885  16.697  0.00  0.00    +0.000 A 
ATOM     24  C   UNL     1       4.034   7.022  17.211  0.00  0.00    +0.000 A 
BRANCH  23  25
ATOM     25  N   UNL     1       5.785   5.923  15.856  0.00  0.00    +0.000 N 
ATOM     26  C   UNL     1       6.984   5.297  15.933  0.00  0.00    +0.000 C 
ATOM     27  N   UNL     1       7.541   4.666  16.900  0.00  0.00    +0.000 NA
ATOM     28  N   UNL     1       7.691   5.431  14.788  0.00  0.00    +0.000 N 
ATOM     29  H   UNL     1       5.760   6.651  15.155  0.00  0.00    +0.000 HD
ATOM     30  H   UNL     1       6.938   4.703  17.726  0.00  0.00    +0.000 HD
ATOM     31  H   UNL     1       7.186   5.110  13.970  0.00  0.00    +0.000 HD
ATOM     32  H   UNL     1       8.557   4.906  14.879  0.00  0.00    +0.000 HD
ENDBRANCH  23  25
ENDBRANCH   2  19
TORSDOF 7
ENDMDL
MODEL 3
REMARK VINA RESULT:      -7.8      1.848      2.435
REMARK  Name = 
REMARK  8 active torsions:
REMARK  status: ('A' for Active; 'I' for Inactive)
REMARK    1  A    between atoms: C_1  and  O_2
REMARK    2  A    between atoms: O_2  and  C_3
REMARK    3  A    between atoms: C_5  and  N_6
REMARK    4  A    between atoms: C_7  and  C_9
REMARK    5  A    between atoms: C_13  and  N_14
REMARK    6  A    between atoms: C_21  and  C_22
REMARK    7  A    between atoms: C_23  and  C_24
REMARK    8  A    between atoms: C_24  and  O_26
REMARK                            x       y       z     vdW  Elec       q    Type
REMARK                         _______ _______ _______ _____ _____    ______ ____
ROOT
ATOM      1  N   UNL     1       1.737   8.366  19.603  0.00  0.00    +0.000 N 
ATOM      2  C   UNL     1       1.987   7.034  19.903  0.00  0.00    +0.000 C 
ATOM      3  O   UNL     1       1.505   6.376  20.818  0.00  0.00    +0.000 OA
ATOM      4  H   UNL     1       2.056   8.711  18.707  0.00  0.00    +0.000 HD
ENDROOT
BRANCH   1   7
ATOM      5  C   UNL     1      -0.435  11.239  20.626  0.00  0.00    +0.000 A 
ATOM      6  C   UNL     1       0.318  10.361  19.837  0.00  0.00    +0.000 A 
ATOM      7  C   UNL     1       0.985   9.269  20.391  0.00  0.00    +0.000 A 
ATOM      8  C   UNL     1       0.886   9.045  21.763  0.00  0.00    +0.000 A 
ATOM      9  C   UNL     1       0.120   9.905  22.564  0.00  0.00    +0.000 A 
ATOM     10  C   UNL     1      -0.570  10.996  22.007  0.00  0.00    +0.000 A 
BRANCH   5  12
ATOM     11  C   UNL     1      -0.245  13.310  19.460  0.00  0.00    +0.000 C 
ATOM     12  O   UNL     1      -1.076  12.337  20.095  0.00  0.00    +0.000 OA
ENDBRANCH   5  12
BRANCH  10  13
ATOM     13  C   UNL     1      -1.342  11.848  22.932  0.00  0.00    +0.000 C 
ATOM     14  C   UNL     1      -2.671  11.770  23.102  0.00  0.00    +0.000 C 
BRANCH  14  15
ATOM     15  C   UNL     1      -3.345  12.685  24.038  0.00  0.00    +0.000 C 
ATOM     16  O   UNL     1      -2.992  13.827  24.268  0.00  0.00    +0.000 OA
BRANCH  15  17
ATOM     17  O   UNL     1      -4.421  12.106  24.609  0.00  0.00    +0.000 OA
ATOM     18  H   UNL     1      -4.581  11.186  24.330  0.00  0.00    +0.000 HD
ENDBRANCH  15  17
ENDBRANCH  14  15
ENDBRANCH  10  13
ENDBRANCH   1   7
BRANCH   2  19
ATOM     19  C   UNL     1       2.902   6.337  18.970  0.00  0.00    +0.000 A 
ATOM     20  C   UNL     1       3.516   7.025  17.919  0.00  0.00    +0.000 A 
ATOM     21  C   UNL     1       4.355   6.334  17.054  0.00  0.00    +0.000 A 
ATOM     22  C   UNL     1       4.577   4.967  17.245  0.00  0.00    +0.000 A 
ATOM     23  C   UNL     1       3.986   4.260  18.308  0.00  0.00    +0.000 A 
ATOM     24  C   UNL     1       3.160   4.972  19.182  0.00  0.00    +0.000 A 
BRANCH  23  25
ATOM     25  N   UNL     1       4.261   2.890  18.431  0.00  0.00    +0.000 N 
ATOM     26  C   UNL     1       3.467   1.802  18.289  0.00  0.00    +0.000 C 
ATOM     27  N   UNL     1       2.191   1.695  18.223  0.00  0.00    +0.000 NA
ATOM     28  N   UNL     1       4.190   0.658  18.263  0.00  0.00    +0.000 N 
ATOM     29  H   UNL     1       5.160   2.677  18.841  0.00  0.00    +0.000 HD
ATOM     30  H   UNL     1       1.765   2.618  18.330  0.00  0.00    +0.000 HD
ATOM     31  H   UNL     1       4.908   0.659  17.548  0.00  0.00    +0.000 HD
ATOM     32  H   UNL     1       3.556  -0.122  18.107  0.00  0.00    +0.000 HD
ENDBRANCH  23  25
ENDBRANCH   2  19
TORSDOF 7
ENDMDL
MODEL 4
REMARK VINA RESULT:      -7.8      1.170      1.189
REMARK  Name = 
REMARK  8 active torsions:
REMARK  status: ('A' for Active; 'I' for Inactive)
REMARK    1  A    between atoms: C_1  and  O_2
REMARK    2  A    between atoms: O_2  and  C_3
REMARK    3  A    between atoms: C_5  and  N_6
REMARK    4  A    between atoms: C_7  and  C_9
REMARK    5  A    between atoms: C_13  and  N_14
REMARK    6  A    between atoms: C_21  and  C_22
REMARK    7  A    between atoms: C_23  and  C_24
REMARK    8  A    between atoms: C_24  and  O_26
REMARK                            x       y       z     vdW  Elec       q    Type
REMARK                         _______ _______ _______ _____ _____    ______ ____
ROOT
ATOM      1  N   UNL     1       1.449   7.462  21.112  0.00  0.00    +0.000 N 
ATOM      2  C   UNL     1       2.121   7.199  19.926  0.00  0.00    +0.000 C 
ATOM      3  O   UNL     1       2.323   7.975  19.000  0.00  0.00    +0.000 OA
ATOM      4  H   UNL     1       1.534   6.783  21.857  0.00  0.00    +0.000 HD
ENDROOT
BRANCH   1   7
ATOM      5  C   UNL     1      -0.399  10.697  20.748  0.00  0.00    +0.000 A 
ATOM      6  C   UNL     1       0.320   9.538  20.432  0.00  0.00    +0.000 A 
ATOM      7  C   UNL     1       0.734   8.644  21.418  0.00  0.00    +0.000 A 
ATOM      8  C   UNL     1       0.412   8.911  22.748  0.00  0.00    +0.000 A 
ATOM      9  C   UNL     1      -0.324  10.058  23.078  0.00  0.00    +0.000 A 
ATOM     10  C   UNL     1      -0.761  10.952  22.085  0.00  0.00    +0.000 A 
BRANCH   5  12
ATOM     11  C   UNL     1      -1.736  11.135  18.823  0.00  0.00    +0.000 C 
ATOM     12  O   UNL     1      -0.791  11.603  19.786  0.00  0.00    +0.000 OA
ENDBRANCH   5  12
BRANCH  10  13
ATOM     13  C   UNL     1      -1.522  12.136  22.532  0.00  0.00    +0.000 C 
ATOM     14  C   UNL     1      -2.664  12.079  23.235  0.00  0.00    +0.000 C 
BRANCH  14  15
ATOM     15  C   UNL     1      -3.353  13.325  23.612  0.00  0.00    +0.000 C 
ATOM     16  O   UNL     1      -3.401  14.329  22.925  0.00  0.00    +0.000 OA
BRANCH  15  17
ATOM     17  O   UNL     1      -3.945  13.217  24.819  0.00  0.00    +0.000 OA
ATOM     18  H   UNL     1      -3.811  13.984  25.406  0.00  0.00    +0.000 HD
ENDBRANCH  15  17
ENDBRANCH  14  15
ENDBRANCH  10  13
ENDBRANCH   1   7
BRANCH   2  19
ATOM     19  C   UNL     1       2.691   5.837  19.812  0.00  0.00    +0.000 A 
ATOM     20  C   UNL     1       1.932   4.711  20.144  0.00  0.00    +0.000 A 
ATOM     21  C   UNL     1       2.507   3.451  20.039  0.00  0.00    +0.000 A 
ATOM     22  C   UNL     1       3.829   3.324  19.604  0.00  0.00    +0.000 A 
ATOM     23  C   UNL     1       4.604   4.442  19.245  0.00  0.00    +0.000 A 
ATOM     24  C   UNL     1       4.007   5.702  19.335  0.00  0.00    +0.000 A 
BRANCH  23  25
ATOM     25  N   UNL     1       5.923   4.229  18.816  0.00  0.00    +0.000 N 
ATOM     26  C   UNL     1       6.525   4.460  17.626  0.00  0.00    +0.000 C 
ATOM     27  N   UNL     1       6.032   4.728  16.473  0.00  0.00    +0.000 NA
ATOM     28  N   UNL     1       7.869   4.329  17.713  0.00  0.00    +0.000 N 
ATOM     29  H   UNL     1       6.484   3.671  19.446  0.00  0.00    +0.000 HD
ATOM     30  H   UNL     1       5.011   4.724  16.527  0.00  0.00    +0.000 HD
ATOM     31  H   UNL     1       8.279   4.917  18.429  0.00  0.00    +0.000 HD
ATOM     32  H   UNL     1       8.276   4.559  16.810  0.00  0.00    +0.000 HD
ENDBRANCH  23  25
ENDBRANCH   2  19
TORSDOF 7
ENDMDL
MODEL 5
REMARK VINA RESULT:      -7.8      2.468      3.580
REMARK  Name = 
REMARK  8 active torsions:
REMARK  status: ('A' for Active; 'I' for Inactive)
REMARK    1  A    between atoms: C_1  and  O_2
REMARK    2  A    between atoms: O_2  and  C_3
REMARK    3  A    between atoms: C_5  and  N_6
REMARK    4  A    between atoms: C_7  and  C_9
REMARK    5  A    between atoms: C_13  and  N_14
REMARK    6  A    between atoms: C_21  and  C_22
REMARK    7  A    between atoms: C_23  and  C_24
REMARK    8  A    between atoms: C_24  and  O_26
REMARK                            x       y       z     vdW  Elec       q    Type
REMARK                         _______ _______ _______ _____ _____    ______ ____
ROOT
ATOM      1  N   UNL     1       3.011   7.874  18.422  0.00  0.00    +0.000 N 
ATOM      2  C   UNL     1       3.073   6.502  18.218  0.00  0.00    +0.000 C 
ATOM      3  O   UNL     1       2.133   5.732  18.063  0.00  0.00    +0.000 OA
ATOM      4  H   UNL     1       3.872   8.398  18.335  0.00  0.00    +0.000 HD
ENDROOT
BRANCH   1   7
ATOM      5  C   UNL     1       0.231   9.720  20.118  0.00  0.00    +0.000 A 
ATOM      6  C   UNL     1       1.389   8.959  19.918  0.00  0.00    +0.000 A 
ATOM      7  C   UNL     1       1.835   8.630  18.638  0.00  0.00    +0.000 A 
ATOM      8  C   UNL     1       1.113   9.083  17.536  0.00  0.00    +0.000 A 
ATOM      9  C   UNL     1      -0.038   9.863  17.720  0.00  0.00    +0.000 A 
ATOM     10  C   UNL     1      -0.481  10.213  19.007  0.00  0.00    +0.000 A 
BRANCH   5  12
ATOM     11  C   UNL     1      -0.472   8.926  22.253  0.00  0.00    +0.000 C 
ATOM     12  O   UNL     1      -0.236  10.029  21.378  0.00  0.00    +0.000 OA
ENDBRANCH   5  12
BRANCH  10  13
ATOM     13  C   UNL     1      -1.708  11.029  19.099  0.00  0.00    +0.000 C 
ATOM     14  C   UNL     1      -2.725  10.966  18.225  0.00  0.00    +0.000 C 
BRANCH  14  15
ATOM     15  C   UNL     1      -3.895  11.842  18.399  0.00  0.00    +0.000 C 
ATOM     16  O   UNL     1      -4.316  12.236  19.471  0.00  0.00    +0.000 OA
BRANCH  15  17
ATOM     17  O   UNL     1      -4.446  12.173  17.213  0.00  0.00    +0.000 OA
ATOM     18  H   UNL     1      -4.770  13.091  17.159  0.00  0.00    +0.000 HD
ENDBRANCH  15  17
ENDBRANCH  14  15
ENDBRANCH  10  13
ENDBRANCH   1   7
BRANCH   2  19
ATOM     19  C   UNL     1       4.440   5.938  18.132  0.00  0.00    +0.000 A 
ATOM     20  C   UNL     1       5.037   5.330  19.241  0.00  0.00    +0.000 A 
ATOM     21  C   UNL     1       6.326   4.827  19.126  0.00  0.00    +0.000 A 
ATOM     22  C   UNL     1       7.007   4.930  17.909  0.00  0.00    +0.000 A 
ATOM     23  C   UNL     1       6.418   5.519  16.776  0.00  0.00    +0.000 A 
ATOM     24  C   UNL     1       5.113   6.003  16.899  0.00  0.00    +0.000 A 
BRANCH  23  25
ATOM     25  N   UNL     1       7.168   5.582  15.591  0.00  0.00    +0.000 N 
ATOM     26  C   UNL     1       7.082   4.877  14.439  0.00  0.00    +0.000 C 
ATOM     27  N   UNL     1       6.450   3.797  14.160  0.00  0.00    +0.000 NA
ATOM     28  N   UNL     1       7.848   5.420  13.464  0.00  0.00    +0.000 N 
ATOM     29  H   UNL     1       8.009   6.139  15.657  0.00  0.00    +0.000 HD
ATOM     30  H   UNL     1       5.976   3.451  14.997  0.00  0.00    +0.000 HD
ATOM     31  H   UNL     1       7.635   6.395  13.290  0.00  0.00    +0.000 HD
ATOM     32  H   UNL     1       7.712   4.885  12.610  0.00  0.00    +0.000 HD
ENDBRANCH  23  25
ENDBRANCH   2  19
TORSDOF 7
ENDMDL
MODEL 6
REMARK VINA RESULT:      -7.8      3.673      9.793
REMARK  Name = 
REMARK  8 active torsions:
REMARK  status: ('A' for Active; 'I' for Inactive)
REMARK    1  A    between atoms: C_1  and  O_2
REMARK    2  A    between atoms: O_2  and  C_3
REMARK    3  A    between atoms: C_5  and  N_6
REMARK    4  A    between atoms: C_7  and  C_9
REMARK    5  A    between atoms: C_13  and  N_14
REMARK    6  A    between atoms: C_21  and  C_22
REMARK    7  A    between atoms: C_23  and  C_24
REMARK    8  A    between atoms: C_24  and  O_26
REMARK                            x       y       z     vdW  Elec       q    Type
REMARK                         _______ _______ _______ _____ _____    ______ ____
ROOT
ATOM      1  N   UNL     1       1.020   9.238  19.248  0.00  0.00    +0.000 N 
ATOM      2  C   UNL     1       0.711   9.718  20.514  0.00  0.00    +0.000 C 
ATOM      3  O   UNL     1       1.283   9.457  21.566  0.00  0.00    +0.000 OA
ATOM      4  H   UNL     1       0.584   9.694  18.457  0.00  0.00    +0.000 HD
ENDROOT
BRANCH   1   7
ATOM      5  C   UNL     1       3.048   6.096  19.417  0.00  0.00    +0.000 A 
ATOM      6  C   UNL     1       2.114   7.090  19.734  0.00  0.00    +0.000 A 
ATOM      7  C   UNL     1       1.969   8.233  18.948  0.00  0.00    +0.000 A 
ATOM      8  C   UNL     1       2.768   8.378  17.816  0.00  0.00    +0.000 A 
ATOM      9  C   UNL     1       3.695   7.382  17.475  0.00  0.00    +0.000 A 
ATOM     10  C   UNL     1       3.831   6.218  18.253  0.00  0.00    +0.000 A 
BRANCH   5  12
ATOM     11  C   UNL     1       2.114   4.601  21.023  0.00  0.00    +0.000 C 
ATOM     12  O   UNL     1       3.220   4.975  20.200  0.00  0.00    +0.000 OA
ENDBRANCH   5  12
BRANCH  10  13
ATOM     13  C   UNL     1       4.840   5.232  17.818  0.00  0.00    +0.000 C 
ATOM     14  C   UNL     1       5.752   5.456  16.860  0.00  0.00    +0.000 C 
BRANCH  14  15
ATOM     15  C   UNL     1       6.700   4.392  16.489  0.00  0.00    +0.000 C 
ATOM     16  O   UNL     1       7.906   4.451  16.639  0.00  0.00    +0.000 OA
BRANCH  15  17
ATOM     17  O   UNL     1       6.064   3.323  15.967  0.00  0.00    +0.000 OA
ATOM     18  H   UNL     1       5.917   2.593  16.595  0.00  0.00    +0.000 HD
ENDBRANCH  15  17
ENDBRANCH  14  15
ENDBRANCH  10  13
ENDBRANCH   1   7
BRANCH   2  19
ATOM     19  C   UNL     1      -0.405  10.690  20.566  0.00  0.00    +0.000 A 
ATOM     20  C   UNL     1      -0.713  11.366  21.750  0.00  0.00    +0.000 A 
ATOM     21  C   UNL     1      -1.777  12.258  21.765  0.00  0.00    +0.000 A 
ATOM     22  C   UNL     1      -2.522  12.471  20.601  0.00  0.00    +0.000 A 
ATOM     23  C   UNL     1      -2.217  11.816  19.394  0.00  0.00    +0.000 A 
ATOM     24  C   UNL     1      -1.131  10.937  19.388  0.00  0.00    +0.000 A 
BRANCH  23  25
ATOM     25  N   UNL     1      -3.013  12.086  18.270  0.00  0.00    +0.000 N 
ATOM     26  C   UNL     1      -4.174  11.534  17.843  0.00  0.00    +0.000 C 
ATOM     27  N   UNL     1      -4.776  10.461  18.202  0.00  0.00    +0.000 NA
ATOM     28  N   UNL     1      -4.725  12.251  16.836  0.00  0.00    +0.000 N 
ATOM     29  H   UNL     1      -2.578  12.684  17.581  0.00  0.00    +0.000 HD
ATOM     30  H   UNL     1      -4.221   9.977  18.911  0.00  0.00    +0.000 HD
ATOM     31  H   UNL     1      -4.872  13.224  17.077  0.00  0.00    +0.000 HD
ATOM     32  H   UNL     1      -5.614  11.826  16.585  0.00  0.00    +0.000 HD
ENDBRANCH  23  25
ENDBRANCH   2  19
TORSDOF 7
ENDMDL
MODEL 7
REMARK VINA RESULT:      -7.7      1.022      1.032
REMARK  Name = 
REMARK  8 active torsions:
REMARK  status: ('A' for Active; 'I' for Inactive)
REMARK    1  A    between atoms: C_1  and  O_2
REMARK    2  A    between atoms: O_2  and  C_3
REMARK    3  A    between atoms: C_5  and  N_6
REMARK    4  A    between atoms: C_7  and  C_9
REMARK    5  A    between atoms: C_13  and  N_14
REMARK    6  A    between atoms: C_21  and  C_22
REMARK    7  A    between atoms: C_23  and  C_24
REMARK    8  A    between atoms: C_24  and  O_26
REMARK                            x       y       z     vdW  Elec       q    Type
REMARK                         _______ _______ _______ _____ _____    ______ ____
ROOT
ATOM      1  N   UNL     1       1.936   7.751  20.346  0.00  0.00    +0.000 N 
ATOM      2  C   UNL     1       2.210   7.523  19.005  0.00  0.00    +0.000 C 
ATOM      3  O   UNL     1       1.926   8.245  18.056  0.00  0.00    +0.000 OA
ATOM      4  H   UNL     1       2.404   7.164  21.025  0.00  0.00    +0.000 HD
ENDROOT
BRANCH   1   7
ATOM      5  C   UNL     1      -0.193  10.820  20.581  0.00  0.00    +0.000 A 
ATOM      6  C   UNL     1       0.606   9.798  20.055  0.00  0.00    +0.000 A 
ATOM      7  C   UNL     1       1.139   8.797  20.866  0.00  0.00    +0.000 A 
ATOM      8  C   UNL     1       0.857   8.815  22.231  0.00  0.00    +0.000 A 
ATOM      9  C   UNL     1       0.041   9.821  22.769  0.00  0.00    +0.000 A 
ATOM     10  C   UNL     1      -0.514  10.821  21.952  0.00  0.00    +0.000 A 
BRANCH   5  12
ATOM     11  C   UNL     1      -1.789  11.477  18.935  0.00  0.00    +0.000 C 
ATOM     12  O   UNL     1      -0.704  11.831  19.794  0.00  0.00    +0.000 OA
ENDBRANCH   5  12
BRANCH  10  13
ATOM     13  C   UNL     1      -1.351  11.843  22.613  0.00  0.00    +0.000 C 
ATOM     14  C   UNL     1      -2.483  11.575  23.282  0.00  0.00    +0.000 C 
BRANCH  14  15
ATOM     15  C   UNL     1      -3.254  12.675  23.886  0.00  0.00    +0.000 C 
ATOM     16  O   UNL     1      -2.931  13.848  23.856  0.00  0.00    +0.000 OA
BRANCH  15  17
ATOM     17  O   UNL     1      -4.381  12.225  24.474  0.00  0.00    +0.000 OA
ATOM     18  H   UNL     1      -4.317  11.321  24.834  0.00  0.00    +0.000 HD
ENDBRANCH  15  17
ENDBRANCH  14  15
ENDBRANCH  10  13
ENDBRANCH   1   7
BRANCH   2  19
ATOM     19  C   UNL     1       2.977   6.288  18.717  0.00  0.00    +0.000 A 
ATOM     20  C   UNL     1       2.405   5.242  17.988  0.00  0.00    +0.000 A 
ATOM     21  C   UNL     1       3.149   4.093  17.753  0.00  0.00    +0.000 A 
ATOM     22  C   UNL     1       4.455   3.999  18.242  0.00  0.00    +0.000 A 
ATOM     23  C   UNL     1       5.057   5.048  18.960  0.00  0.00    +0.000 A 
ATOM     24  C   UNL     1       4.304   6.206  19.172  0.00  0.00    +0.000 A 
BRANCH  23  25
ATOM     25  N   UNL     1       6.373   4.875  19.416  0.00  0.00    +0.000 N 
ATOM     26  C   UNL     1       7.482   5.635  19.258  0.00  0.00    +0.000 C 
ATOM     27  N   UNL     1       7.724   6.615  18.467  0.00  0.00    +0.000 NA
ATOM     28  N   UNL     1       8.489   5.220  20.061  0.00  0.00    +0.000 N 
ATOM     29  H   UNL     1       6.568   3.959  19.797  0.00  0.00    +0.000 HD
ATOM     30  H   UNL     1       6.913   6.778  17.866  0.00  0.00    +0.000 HD
ATOM     31  H   UNL     1       8.228   5.187  21.039  0.00  0.00    +0.000 HD
ATOM     32  H   UNL     1       9.279   5.850  19.942  0.00  0.00    +0.000 HD
ENDBRANCH  23  25
ENDBRANCH   2  19
TORSDOF 7
ENDMDL
MODEL 8
REMARK VINA RESULT:      -7.7      3.579      9.981
REMARK  Name = 
REMARK  8 active torsions:
REMARK  status: ('A' for Active; 'I' for Inactive)
REMARK    1  A    between atoms: C_1  and  O_2
REMARK    2  A    between atoms: O_2  and  C_3
REMARK    3  A    between atoms: C_5  and  N_6
REMARK    4  A    between atoms: C_7  and  C_9
REMARK    5  A    between atoms: C_13  and  N_14
REMARK    6  A    between atoms: C_21  and  C_22
REMARK    7  A    between atoms: C_23  and  C_24
REMARK    8  A    between atoms: C_24  and  O_26
REMARK                            x       y       z     vdW  Elec       q    Type
REMARK                         _______ _______ _______ _____ _____    ______ ____
ROOT
ATOM      1  N   UNL     1       1.813   7.823  20.049  0.00  0.00    +0.000 N 
ATOM      2  C   UNL     1       1.141   8.987  19.701  0.00  0.00    +0.000 C 
ATOM      3  O   UNL     1       1.068   9.498  18.590  0.00  0.00    +0.000 OA
ATOM      4  H   UNL     1       1.618   7.425  20.959  0.00  0.00    +0.000 HD
ENDROOT
BRANCH   1   7
ATOM      5  C   UNL     1       3.809   5.005  18.605  0.00  0.00    +0.000 A 
ATOM      6  C   UNL     1       2.967   5.736  19.451  0.00  0.00    +0.000 A 
ATOM      7  C   UNL     1       2.674   7.077  19.210  0.00  0.00    +0.000 A 
ATOM      8  C   UNL     1       3.228   7.697  18.092  0.00  0.00    +0.000 A 
ATOM      9  C   UNL     1       4.058   6.973  17.224  0.00  0.00    +0.000 A 
ATOM     10  C   UNL     1       4.341   5.615  17.452  0.00  0.00    +0.000 A 
BRANCH   5  12
ATOM     11  C   UNL     1       3.411   3.044  19.901  0.00  0.00    +0.000 C 
ATOM     12  O   UNL     1       4.128   3.686  18.846  0.00  0.00    +0.000 OA
ENDBRANCH   5  12
BRANCH  10  13
ATOM     13  C   UNL     1       5.233   4.942  16.487  0.00  0.00    +0.000 C 
ATOM     14  C   UNL     1       5.637   5.482  15.326  0.00  0.00    +0.000 C 
BRANCH  14  15
ATOM     15  C   UNL     1       6.511   4.712  14.427  0.00  0.00    +0.000 C 
ATOM     16  O   UNL     1       6.217   3.648  13.912  0.00  0.00    +0.000 OA
BRANCH  15  17
ATOM     17  O   UNL     1       7.689   5.337  14.226  0.00  0.00    +0.000 OA
ATOM     18  H   UNL     1       7.628   6.161  13.708  0.00  0.00    +0.000 HD
ENDBRANCH  15  17
ENDBRANCH  14  15
ENDBRANCH  10  13
ENDBRANCH   1   7
BRANCH   2  19
ATOM     19  C   UNL     1       0.393   9.637  20.802  0.00  0.00    +0.000 A 
ATOM     20  C   UNL     1       0.430   9.119  22.099  0.00  0.00    +0.000 A 
ATOM     21  C   UNL     1      -0.298   9.747  23.102  0.00  0.00    +0.000 A 
ATOM     22  C   UNL     1      -1.052  10.886  22.804  0.00  0.00    +0.000 A 
ATOM     23  C   UNL     1      -1.086  11.437  21.510  0.00  0.00    +0.000 A 
ATOM     24  C   UNL     1      -0.334  10.806  20.515  0.00  0.00    +0.000 A 
BRANCH  23  25
ATOM     25  N   UNL     1      -1.867  12.583  21.294  0.00  0.00    +0.000 N 
ATOM     26  C   UNL     1      -2.698  12.921  20.280  0.00  0.00    +0.000 C 
ATOM     27  N   UNL     1      -2.852  12.411  19.114  0.00  0.00    +0.000 NA
ATOM     28  N   UNL     1      -3.433  14.016  20.583  0.00  0.00    +0.000 N 
ATOM     29  H   UNL     1      -1.664  13.352  21.918  0.00  0.00    +0.000 HD
ATOM     30  H   UNL     1      -2.188  11.644  18.985  0.00  0.00    +0.000 HD
ATOM     31  H   UNL     1      -3.960  13.914  21.442  0.00  0.00    +0.000 HD
ATOM     32  H   UNL     1      -4.072  14.200  19.813  0.00  0.00    +0.000 HD
ENDBRANCH  23  25
ENDBRANCH   2  19
TORSDOF 7
ENDMDL
MODEL 9
REMARK VINA RESULT:      -7.7      2.033      2.645
REMARK  Name = 
REMARK  8 active torsions:
REMARK  status: ('A' for Active; 'I' for Inactive)
REMARK    1  A    between atoms: C_1  and  O_2
REMARK    2  A    between atoms: O_2  and  C_3
REMARK    3  A    between atoms: C_5  and  N_6
REMARK    4  A    between atoms: C_7  and  C_9
REMARK    5  A    between atoms: C_13  and  N_14
REMARK    6  A    between atoms: C_21  and  C_22
REMARK    7  A    between atoms: C_23  and  C_24
REMARK    8  A    between atoms: C_24  and  O_26
REMARK                            x       y       z     vdW  Elec       q    Type
REMARK                         _______ _______ _______ _____ _____    ______ ____
ROOT
ATOM      1  N   UNL     1       1.819   8.106  19.882  0.00  0.00    +0.000 N 
ATOM      2  C   UNL     1       2.277   8.228  18.577  0.00  0.00    +0.000 C 
ATOM      3  O   UNL     1       2.217   9.220  17.859  0.00  0.00    +0.000 OA
ATOM      4  H   UNL     1       2.115   7.294  20.407  0.00  0.00    +0.000 HD
ENDROOT
BRANCH   1   7
ATOM      5  C   UNL     1      -0.355  11.054  20.655  0.00  0.00    +0.000 A 
ATOM      6  C   UNL     1       0.410  10.120  19.946  0.00  0.00    +0.000 A 
ATOM      7  C   UNL     1       1.056   9.065  20.588  0.00  0.00    +0.000 A 
ATOM      8  C   UNL     1       0.923   8.936  21.970  0.00  0.00    +0.000 A 
ATOM      9  C   UNL     1       0.145   9.852  22.692  0.00  0.00    +0.000 A 
ATOM     10  C   UNL     1      -0.524  10.906  22.046  0.00  0.00    +0.000 A 
BRANCH   5  12
ATOM     11  C   UNL     1      -1.878  11.795  18.977  0.00  0.00    +0.000 C 
ATOM     12  O   UNL     1      -0.975  12.118  20.036  0.00  0.00    +0.000 OA
ENDBRANCH   5  12
BRANCH  10  13
ATOM     13  C   UNL     1      -1.310  11.824  22.893  0.00  0.00    +0.000 C 
ATOM     14  C   UNL     1      -2.616  11.670  23.166  0.00  0.00    +0.000 C 
BRANCH  14  15
ATOM     15  C   UNL     1      -3.309  12.659  24.007  0.00  0.00    +0.000 C 
ATOM     16  O   UNL     1      -2.937  13.805  24.184  0.00  0.00    +0.000 OA
BRANCH  15  17
ATOM     17  O   UNL     1      -4.428  12.144  24.557  0.00  0.00    +0.000 OA
ATOM     18  H   UNL     1      -4.306  11.773  25.450  0.00  0.00    +0.000 HD
ENDBRANCH  15  17
ENDBRANCH  14  15
ENDBRANCH  10  13
ENDBRANCH   1   7
BRANCH   2  19
ATOM     19  C   UNL     1       2.956   7.030  18.031  0.00  0.00    +0.000 A 
ATOM     20  C   UNL     1       4.151   7.146  17.316  0.00  0.00    +0.000 A 
ATOM     21  C   UNL     1       4.750   6.002  16.805  0.00  0.00    +0.000 A 
ATOM     22  C   UNL     1       4.155   4.754  17.013  0.00  0.00    +0.000 A 
ATOM     23  C   UNL     1       2.963   4.613  17.748  0.00  0.00    +0.000 A 
ATOM     24  C   UNL     1       2.382   5.770  18.273  0.00  0.00    +0.000 A 
BRANCH  23  25
ATOM     25  N   UNL     1       2.431   3.325  17.913  0.00  0.00    +0.000 N 
ATOM     26  C   UNL     1       2.331   2.531  19.005  0.00  0.00    +0.000 C 
ATOM     27  N   UNL     1       2.886   2.615  20.158  0.00  0.00    +0.000 NA
ATOM     28  N   UNL     1       1.537   1.460  18.772  0.00  0.00    +0.000 N 
ATOM     29  H   UNL     1       2.223   2.843  17.049  0.00  0.00    +0.000 HD
ATOM     30  H   UNL     1       3.515   3.421  20.178  0.00  0.00    +0.000 HD
ATOM     31  H   UNL     1       0.613   1.716  18.445  0.00  0.00    +0.000 HD
ATOM     32  H   UNL     1       1.456   0.925  19.633  0.00  0.00    +0.000 HD
ENDBRANCH  23  25
ENDBRANCH   2  19
TORSDOF 7
ENDMDL
