MODEL 1
REMARK VINA RESULT:      -6.8      0.000      0.000
REMARK  Name = 
REMARK  15 active torsions:
REMARK  status: ('A' for Active; 'I' for Inactive)
REMARK    1  A    between atoms: C_1  and  C_2
REMARK    2  A    between atoms: C_5  and  C_6
REMARK    3  A    between atoms: C_7  and  C_8
REMARK    4  A    between atoms: C_8  and  C_9
REMARK    5  A    between atoms: C_14  and  C_15
REMARK    6  A    between atoms: C_15  and  C_16
REMARK    7  A    between atoms: C_16  and  C_17
REMARK    8  A    between atoms: C_17  and  C_18
REMARK    9  A    between atoms: C_18  and  C_19
REMARK   10  A    between atoms: C_19  and  O_20
REMARK   11  A    between atoms: N_23  and  C_24
REMARK   12  A    between atoms: N_27  and  C_28
REMARK   13  A    between atoms: C_28  and  C_29
REMARK   14  A    between atoms: C_29  and  C_30
REMARK   15  A    between atoms: C_29  and  C_31
REMARK                            x       y       z     vdW  Elec       q    Type
REMARK                         _______ _______ _______ _____ _____    ______ ____
ROOT
ATOM      1  C   UNL     1      -2.264  11.151  18.447  0.00  0.00    +0.000 A 
ATOM      2  N   UNL     1      -2.624  11.874  19.552  0.00  0.00    +0.000 NA
ATOM      3  C   UNL     1      -3.905  12.299  19.659  0.00  0.00    +0.000 A 
ATOM      4  C   UNL     1      -4.819  11.937  18.691  0.00  0.00    +0.000 A 
ATOM      5  N   UNL     1      -4.517  11.134  17.633  0.00  0.00    +0.000 NA
ATOM      6  C   UNL     1      -3.221  10.750  17.505  0.00  0.00    +0.000 A 
ATOM      7  C   UNL     1      -6.186  12.478  18.772  0.00  0.00    +0.000 A 
ATOM      8  O   UNL     1      -7.035  12.139  17.953  0.00  0.00    +0.000 OA
ATOM      9  N   UNL     1      -6.429  13.390  19.796  0.00  0.00    +0.000 N 
ATOM     10  C   UNL     1      -7.753  13.972  19.898  0.00  0.00    +0.000 C 
ATOM     11  C   UNL     1      -5.504  13.773  20.762  0.00  0.00    +0.000 A 
ATOM     12  O   UNL     1      -5.779  14.622  21.611  0.00  0.00    +0.000 OA
ATOM     13  N   UNL     1      -4.266  13.160  20.720  0.00  0.00    +0.000 N 
ENDROOT
BRANCH   1  14
ATOM     14  C   UNL     1      -0.786  10.885  18.330  0.00  0.00    +0.000 C 
BRANCH  14  21
ATOM     15  C   UNL     1       0.517   9.746  21.022  0.00  0.00    +0.000 C 
ATOM     16  C   UNL     1       0.534  11.154  20.550  0.00  0.00    +0.000 A 
ATOM     17  N   UNL     1       1.116  12.089  21.305  0.00  0.00    +0.000 NA
ATOM     18  N   UNL     1       0.912  13.223  20.633  0.00  0.00    +0.000 N 
ATOM     19  C   UNL     1       0.211  13.059  19.469  0.00  0.00    +0.000 A 
ATOM     20  C   UNL     1      -0.137  14.244  18.646  0.00  0.00    +0.000 C 
ATOM     21  C   UNL     1      -0.032  11.694  19.351  0.00  0.00    +0.000 A 
ATOM     22  H   UNL     1       1.265  14.085  21.034  0.00  0.00    +0.000 HD
ENDBRANCH  14  21
ENDBRANCH   1  14
BRANCH   6  23
ATOM     23  C   UNL     1      -2.932   9.939  16.269  0.00  0.00    +0.000 C 
BRANCH  23  24
ATOM     24  C   UNL     1      -3.074  10.663  14.922  0.00  0.00    +0.000 C 
BRANCH  24  25
ATOM     25  C   UNL     1      -3.094   9.793  13.653  0.00  0.00    +0.000 C 
BRANCH  25  26
ATOM     26  C   UNL     1      -4.549   9.601  13.195  0.00  0.00    +0.000 C 
BRANCH  26  27
ATOM     27  C   UNL     1      -4.774   9.800  11.702  0.00  0.00    +0.000 C 
BRANCH  27  28
ATOM     28  O   UNL     1      -3.512   9.817  11.037  0.00  0.00    +0.000 OA
ATOM     29  H   UNL     1      -2.928   9.188  11.494  0.00  0.00    +0.000 HD
ENDBRANCH  27  28
ENDBRANCH  26  27
ENDBRANCH  25  26
ENDBRANCH  24  25
ENDBRANCH  23  24
ENDBRANCH   6  23
BRANCH  13  30
ATOM     30  C   UNL     1      -3.284  13.434  21.771  0.00  0.00    +0.000 C 
BRANCH  30  31
ATOM     31  C   UNL     1      -3.220  12.378  22.899  0.00  0.00    +0.000 C 
ATOM     32  C   UNL     1      -1.791  11.962  23.258  0.00  0.00    +0.000 C 
ATOM     33  C   UNL     1      -3.969  12.800  24.162  0.00  0.00    +0.000 C 
ENDBRANCH  30  31
ENDBRANCH  13  30
TORSDOF 10
ENDMDL
MODEL 2
REMARK VINA RESULT:      -6.7      8.355     10.559
REMARK  Name = 
REMARK  15 active torsions:
REMARK  status: ('A' for Active; 'I' for Inactive)
REMARK    1  A    between atoms: C_1  and  C_2
REMARK    2  A    between atoms: C_5  and  C_6
REMARK    3  A    between atoms: C_7  and  C_8
REMARK    4  A    between atoms: C_8  and  C_9
REMARK    5  A    between atoms: C_14  and  C_15
REMARK    6  A    between atoms: C_15  and  C_16
REMARK    7  A    between atoms: C_16  and  C_17
REMARK    8  A    between atoms: C_17  and  C_18
REMARK    9  A    between atoms: C_18  and  C_19
REMARK   10  A    between atoms: C_19  and  O_20
REMARK   11  A    between atoms: N_23  and  C_24
REMARK   12  A    between atoms: N_27  and  C_28
REMARK   13  A    between atoms: C_28  and  C_29
REMARK   14  A    between atoms: C_29  and  C_30
REMARK   15  A    between atoms: C_29  and  C_31
REMARK                            x       y       z     vdW  Elec       q    Type
REMARK                         _______ _______ _______ _____ _____    ______ ____
ROOT
ATOM      1  C   UNL     1       5.215   5.937  16.870  0.00  0.00    +0.000 A 
ATOM      2  N   UNL     1       4.403   6.059  17.965  0.00  0.00    +0.000 NA
ATOM      3  C   UNL     1       3.522   5.066  18.232  0.00  0.00    +0.000 A 
ATOM      4  C   UNL     1       3.514   3.939  17.437  0.00  0.00    +0.000 A 
ATOM      5  N   UNL     1       4.378   3.742  16.402  0.00  0.00    +0.000 NA
ATOM      6  C   UNL     1       5.227   4.760  16.110  0.00  0.00    +0.000 A 
ATOM      7  C   UNL     1       2.493   2.908  17.683  0.00  0.00    +0.000 A 
ATOM      8  O   UNL     1       2.488   1.872  17.024  0.00  0.00    +0.000 OA
ATOM      9  N   UNL     1       1.552   3.194  18.668  0.00  0.00    +0.000 N 
ATOM     10  C   UNL     1       0.508   2.220  18.926  0.00  0.00    +0.000 C 
ATOM     11  C   UNL     1       1.543   4.339  19.458  0.00  0.00    +0.000 A 
ATOM     12  O   UNL     1       0.649   4.545  20.279  0.00  0.00    +0.000 OA
ATOM     13  N   UNL     1       2.582   5.233  19.274  0.00  0.00    +0.000 N 
ENDROOT
BRANCH   1  14
ATOM     14  C   UNL     1       6.024   7.167  16.553  0.00  0.00    +0.000 C 
BRANCH  14  21
ATOM     15  C   UNL     1       7.466   9.936  17.262  0.00  0.00    +0.000 C 
ATOM     16  C   UNL     1       7.733   8.610  17.874  0.00  0.00    +0.000 A 
ATOM     17  N   UNL     1       8.686   8.500  18.803  0.00  0.00    +0.000 NA
ATOM     18  N   UNL     1       8.703   7.198  19.098  0.00  0.00    +0.000 N 
ATOM     19  C   UNL     1       7.799   6.456  18.387  0.00  0.00    +0.000 A 
ATOM     20  C   UNL     1       7.746   4.985  18.573  0.00  0.00    +0.000 C 
ATOM     21  C   UNL     1       7.104   7.357  17.585  0.00  0.00    +0.000 A 
ATOM     22  H   UNL     1       9.374   6.874  19.787  0.00  0.00    +0.000 HD
ENDBRANCH  14  21
ENDBRANCH   1  14
BRANCH   6  23
ATOM     23  C   UNL     1       6.094   4.519  14.902  0.00  0.00    +0.000 C 
BRANCH  23  24
ATOM     24  C   UNL     1       5.385   4.024  13.632  0.00  0.00    +0.000 C 
BRANCH  24  25
ATOM     25  C   UNL     1       6.263   3.409  12.528  0.00  0.00    +0.000 C 
BRANCH  25  26
ATOM     26  C   UNL     1       5.358   2.823  11.432  0.00  0.00    +0.000 C 
BRANCH  26  27
ATOM     27  C   UNL     1       3.902   3.262  11.511  0.00  0.00    +0.000 C 
BRANCH  27  28
ATOM     28  O   UNL     1       3.524   3.855  10.270  0.00  0.00    +0.000 OA
ATOM     29  H   UNL     1       4.339   4.075   9.787  0.00  0.00    +0.000 HD
ENDBRANCH  27  28
ENDBRANCH  26  27
ENDBRANCH  25  26
ENDBRANCH  24  25
ENDBRANCH  23  24
ENDBRANCH   6  23
BRANCH  13  30
ATOM     30  C   UNL     1       2.696   6.404  20.147  0.00  0.00    +0.000 C 
BRANCH  30  31
ATOM     31  C   UNL     1       1.668   7.526  19.873  0.00  0.00    +0.000 C 
ATOM     32  C   UNL     1       1.366   8.383  21.105  0.00  0.00    +0.000 C 
ATOM     33  C   UNL     1       2.059   8.426  18.700  0.00  0.00    +0.000 C 
ENDBRANCH  30  31
ENDBRANCH  13  30
TORSDOF 10
ENDMDL
MODEL 3
REMARK VINA RESULT:      -6.6      0.883      1.687
REMARK  Name = 
REMARK  15 active torsions:
REMARK  status: ('A' for Active; 'I' for Inactive)
REMARK    1  A    between atoms: C_1  and  C_2
REMARK    2  A    between atoms: C_5  and  C_6
REMARK    3  A    between atoms: C_7  and  C_8
REMARK    4  A    between atoms: C_8  and  C_9
REMARK    5  A    between atoms: C_14  and  C_15
REMARK    6  A    between atoms: C_15  and  C_16
REMARK    7  A    between atoms: C_16  and  C_17
REMARK    8  A    between atoms: C_17  and  C_18
REMARK    9  A    between atoms: C_18  and  C_19
REMARK   10  A    between atoms: C_19  and  O_20
REMARK   11  A    between atoms: N_23  and  C_24
REMARK   12  A    between atoms: N_27  and  C_28
REMARK   13  A    between atoms: C_28  and  C_29
REMARK   14  A    between atoms: C_29  and  C_30
REMARK   15  A    between atoms: C_29  and  C_31
REMARK                            x       y       z     vdW  Elec       q    Type
REMARK                         _______ _______ _______ _____ _____    ______ ____
ROOT
ATOM      1  C   UNL     1      -2.076  10.844  18.295  0.00  0.00    +0.000 A 
ATOM      2  N   UNL     1      -2.413  11.642  19.354  0.00  0.00    +0.000 NA
ATOM      3  C   UNL     1      -3.653  12.184  19.388  0.00  0.00    +0.000 A 
ATOM      4  C   UNL     1      -4.556  11.864  18.396  0.00  0.00    +0.000 A 
ATOM      5  N   UNL     1      -4.286  10.993  17.384  0.00  0.00    +0.000 NA
ATOM      6  C   UNL     1      -3.027  10.490  17.328  0.00  0.00    +0.000 A 
ATOM      7  C   UNL     1      -5.870  12.528  18.396  0.00  0.00    +0.000 A 
ATOM      8  O   UNL     1      -6.713  12.231  17.555  0.00  0.00    +0.000 OA
ATOM      9  N   UNL     1      -6.070  13.500  19.372  0.00  0.00    +0.000 N 
ATOM     10  C   UNL     1      -7.339  14.202  19.394  0.00  0.00    +0.000 C 
ATOM     11  C   UNL     1      -5.154  13.840  20.362  0.00  0.00    +0.000 A 
ATOM     12  O   UNL     1      -5.384  14.746  21.165  0.00  0.00    +0.000 OA
ATOM     13  N   UNL     1      -3.976  13.118  20.399  0.00  0.00    +0.000 N 
ENDROOT
BRANCH   1  14
ATOM     14  C   UNL     1      -0.624  10.442  18.253  0.00  0.00    +0.000 C 
BRANCH  14  21
ATOM     15  C   UNL     1       1.037  13.125  18.790  0.00  0.00    +0.000 C 
ATOM     16  C   UNL     1       0.794  12.019  19.751  0.00  0.00    +0.000 A 
ATOM     17  N   UNL     1       1.327  12.088  20.974  0.00  0.00    +0.000 NA
ATOM     18  N   UNL     1       0.969  10.939  21.550  0.00  0.00    +0.000 N 
ATOM     19  C   UNL     1       0.227  10.121  20.742  0.00  0.00    +0.000 A 
ATOM     20  C   UNL     1      -0.194   8.786  21.233  0.00  0.00    +0.000 C 
ATOM     21  C   UNL     1       0.052  10.812  19.546  0.00  0.00    +0.000 A 
ATOM     22  H   UNL     1       1.280  10.764  22.500  0.00  0.00    +0.000 HD
ENDBRANCH  14  21
ENDBRANCH   1  14
BRANCH   6  23
ATOM     23  C   UNL     1      -2.763   9.605  16.138  0.00  0.00    +0.000 C 
BRANCH  23  24
ATOM     24  C   UNL     1      -2.911  10.251  14.753  0.00  0.00    +0.000 C 
BRANCH  24  25
ATOM     25  C   UNL     1      -4.231  10.012  14.000  0.00  0.00    +0.000 C 
BRANCH  25  26
ATOM     26  C   UNL     1      -3.928   9.774  12.511  0.00  0.00    +0.000 C 
BRANCH  26  27
ATOM     27  C   UNL     1      -5.161   9.646  11.627  0.00  0.00    +0.000 C 
BRANCH  27  28
ATOM     28  O   UNL     1      -6.200   9.003  12.364  0.00  0.00    +0.000 OA
ATOM     29  H   UNL     1      -6.516   8.250  11.835  0.00  0.00    +0.000 HD
ENDBRANCH  27  28
ENDBRANCH  26  27
ENDBRANCH  25  26
ENDBRANCH  24  25
ENDBRANCH  23  24
ENDBRANCH   6  23
BRANCH  13  30
ATOM     30  C   UNL     1      -3.016  13.348  21.480  0.00  0.00    +0.000 C 
BRANCH  30  31
ATOM     31  C   UNL     1      -3.218  12.463  22.733  0.00  0.00    +0.000 C 
ATOM     32  C   UNL     1      -1.932  11.776  23.200  0.00  0.00    +0.000 C 
ATOM     33  C   UNL     1      -3.859  13.212  23.901  0.00  0.00    +0.000 C 
ENDBRANCH  30  31
ENDBRANCH  13  30
TORSDOF 10
ENDMDL
MODEL 4
REMARK VINA RESULT:      -6.6      2.523      5.294
REMARK  Name = 
REMARK  15 active torsions:
REMARK  status: ('A' for Active; 'I' for Inactive)
REMARK    1  A    between atoms: C_1  and  C_2
REMARK    2  A    between atoms: C_5  and  C_6
REMARK    3  A    between atoms: C_7  and  C_8
REMARK    4  A    between atoms: C_8  and  C_9
REMARK    5  A    between atoms: C_14  and  C_15
REMARK    6  A    between atoms: C_15  and  C_16
REMARK    7  A    between atoms: C_16  and  C_17
REMARK    8  A    between atoms: C_17  and  C_18
REMARK    9  A    between atoms: C_18  and  C_19
REMARK   10  A    between atoms: C_19  and  O_20
REMARK   11  A    between atoms: N_23  and  C_24
REMARK   12  A    between atoms: N_27  and  C_28
REMARK   13  A    between atoms: C_28  and  C_29
REMARK   14  A    between atoms: C_29  and  C_30
REMARK   15  A    between atoms: C_29  and  C_31
REMARK                            x       y       z     vdW  Elec       q    Type
REMARK                         _______ _______ _______ _____ _____    ______ ____
ROOT
ATOM      1  C   UNL     1      -3.956  12.294  19.171  0.00  0.00    +0.000 A 
ATOM      2  N   UNL     1      -3.327  12.422  20.379  0.00  0.00    +0.000 NA
ATOM      3  C   UNL     1      -2.151  11.779  20.568  0.00  0.00    +0.000 A 
ATOM      4  C   UNL     1      -1.591  11.074  19.523  0.00  0.00    +0.000 A 
ATOM      5  N   UNL     1      -2.141  11.011  18.278  0.00  0.00    +0.000 NA
ATOM      6  C   UNL     1      -3.343  11.617  18.107  0.00  0.00    +0.000 A 
ATOM      7  C   UNL     1      -0.359  10.308  19.768  0.00  0.00    +0.000 A 
ATOM      8  O   UNL     1       0.189   9.708  18.848  0.00  0.00    +0.000 OA
ATOM      9  N   UNL     1       0.111  10.295  21.078  0.00  0.00    +0.000 N 
ATOM     10  C   UNL     1       1.307   9.530  21.373  0.00  0.00    +0.000 C 
ATOM     11  C   UNL     1      -0.462  10.989  22.139  0.00  0.00    +0.000 A 
ATOM     12  O   UNL     1      -0.017  10.891  23.284  0.00  0.00    +0.000 OA
ATOM     13  N   UNL     1      -1.553  11.786  21.849  0.00  0.00    +0.000 N 
ENDROOT
BRANCH   1  14
ATOM     14  C   UNL     1      -5.339  12.889  19.120  0.00  0.00    +0.000 C 
BRANCH  14  21
ATOM     15  C   UNL     1      -6.066  13.954  22.050  0.00  0.00    +0.000 C 
ATOM     16  C   UNL     1      -6.537  12.697  21.417  0.00  0.00    +0.000 A 
ATOM     17  N   UNL     1      -7.327  11.873  22.110  0.00  0.00    +0.000 NA
ATOM     18  N   UNL     1      -7.518  10.839  21.289  0.00  0.00    +0.000 N 
ATOM     19  C   UNL     1      -6.874  10.958  20.087  0.00  0.00    +0.000 A 
ATOM     20  C   UNL     1      -6.954   9.856  19.096  0.00  0.00    +0.000 C 
ATOM     21  C   UNL     1      -6.237  12.195  20.110  0.00  0.00    +0.000 A 
ATOM     22  H   UNL     1      -8.090  10.068  21.617  0.00  0.00    +0.000 HD
ENDBRANCH  14  21
ENDBRANCH   1  14
BRANCH   6  23
ATOM     23  C   UNL     1      -3.941  11.437  16.737  0.00  0.00    +0.000 C 
BRANCH  23  24
ATOM     24  C   UNL     1      -3.112  10.635  15.723  0.00  0.00    +0.000 C 
BRANCH  24  25
ATOM     25  C   UNL     1      -3.880   9.745  14.730  0.00  0.00    +0.000 C 
BRANCH  25  26
ATOM     26  C   UNL     1      -3.384  10.036  13.303  0.00  0.00    +0.000 C 
BRANCH  26  27
ATOM     27  C   UNL     1      -4.435   9.847  12.217  0.00  0.00    +0.000 C 
BRANCH  27  28
ATOM     28  O   UNL     1      -3.782   9.622  10.969  0.00  0.00    +0.000 OA
ATOM     29  H   UNL     1      -3.740   8.661  10.825  0.00  0.00    +0.000 HD
ENDBRANCH  27  28
ENDBRANCH  26  27
ENDBRANCH  25  26
ENDBRANCH  24  25
ENDBRANCH  23  24
ENDBRANCH   6  23
BRANCH  13  30
ATOM     30  C   UNL     1      -2.137  12.628  22.896  0.00  0.00    +0.000 C 
BRANCH  30  31
ATOM     31  C   UNL     1      -1.504  14.033  23.032  0.00  0.00    +0.000 C 
ATOM     32  C   UNL     1      -2.120  15.067  22.085  0.00  0.00    +0.000 C 
ATOM     33  C   UNL     1      -1.526  14.566  24.464  0.00  0.00    +0.000 C 
ENDBRANCH  30  31
ENDBRANCH  13  30
TORSDOF 10
ENDMDL
MODEL 5
REMARK VINA RESULT:      -6.5      2.312      3.343
REMARK  Name = 
REMARK  15 active torsions:
REMARK  status: ('A' for Active; 'I' for Inactive)
REMARK    1  A    between atoms: C_1  and  C_2
REMARK    2  A    between atoms: C_5  and  C_6
REMARK    3  A    between atoms: C_7  and  C_8
REMARK    4  A    between atoms: C_8  and  C_9
REMARK    5  A    between atoms: C_14  and  C_15
REMARK    6  A    between atoms: C_15  and  C_16
REMARK    7  A    between atoms: C_16  and  C_17
REMARK    8  A    between atoms: C_17  and  C_18
REMARK    9  A    between atoms: C_18  and  C_19
REMARK   10  A    between atoms: C_19  and  O_20
REMARK   11  A    between atoms: N_23  and  C_24
REMARK   12  A    between atoms: N_27  and  C_28
REMARK   13  A    between atoms: C_28  and  C_29
REMARK   14  A    between atoms: C_29  and  C_30
REMARK   15  A    between atoms: C_29  and  C_31
REMARK                            x       y       z     vdW  Elec       q    Type
REMARK                         _______ _______ _______ _____ _____    ______ ____
ROOT
ATOM      1  C   UNL     1      -1.145  12.134  20.484  0.00  0.00    +0.000 A 
ATOM      2  N   UNL     1      -1.638  12.643  21.655  0.00  0.00    +0.000 NA
ATOM      3  C   UNL     1      -2.936  13.025  21.700  0.00  0.00    +0.000 A 
ATOM      4  C   UNL     1      -3.735  12.830  20.593  0.00  0.00    +0.000 A 
ATOM      5  N   UNL     1      -3.302  12.233  19.447  0.00  0.00    +0.000 NA
ATOM      6  C   UNL     1      -1.989  11.895  19.391  0.00  0.00    +0.000 A 
ATOM      7  C   UNL     1      -5.120  13.330  20.624  0.00  0.00    +0.000 A 
ATOM      8  O   UNL     1      -5.870  13.131  19.674  0.00  0.00    +0.000 OA
ATOM      9  N   UNL     1      -5.494  14.040  21.761  0.00  0.00    +0.000 N 
ATOM     10  C   UNL     1      -6.840  14.577  21.825  0.00  0.00    +0.000 C 
ATOM     11  C   UNL     1      -4.684  14.256  22.872  0.00  0.00    +0.000 A 
ATOM     12  O   UNL     1      -5.070  14.936  23.824  0.00  0.00    +0.000 OA
ATOM     13  N   UNL     1      -3.429  13.677  22.853  0.00  0.00    +0.000 N 
ENDROOT
BRANCH   1  14
ATOM     14  C   UNL     1       0.345  11.913  20.478  0.00  0.00    +0.000 C 
BRANCH  14  21
ATOM     15  C   UNL     1       1.635   9.933  18.319  0.00  0.00    +0.000 C 
ATOM     16  C   UNL     1       1.225   9.595  19.705  0.00  0.00    +0.000 A 
ATOM     17  N   UNL     1       1.360   8.338  20.138  0.00  0.00    +0.000 NA
ATOM     18  N   UNL     1       0.861   8.365  21.375  0.00  0.00    +0.000 N 
ATOM     19  C   UNL     1       0.399   9.595  21.760  0.00  0.00    +0.000 A 
ATOM     20  C   UNL     1      -0.234   9.760  23.092  0.00  0.00    +0.000 C 
ATOM     21  C   UNL     1       0.652  10.455  20.696  0.00  0.00    +0.000 A 
ATOM     22  H   UNL     1       0.848   7.500  21.904  0.00  0.00    +0.000 HD
ENDBRANCH  14  21
ENDBRANCH   1  14
BRANCH   6  23
ATOM     23  C   UNL     1      -1.550  11.323  18.068  0.00  0.00    +0.000 C 
BRANCH  23  24
ATOM     24  C   UNL     1      -2.162   9.974  17.664  0.00  0.00    +0.000 C 
BRANCH  24  25
ATOM     25  C   UNL     1      -2.550   9.790  16.186  0.00  0.00    +0.000 C 
BRANCH  25  26
ATOM     26  C   UNL     1      -3.350  11.016  15.717  0.00  0.00    +0.000 C 
BRANCH  26  27
ATOM     27  C   UNL     1      -4.713  11.173  16.379  0.00  0.00    +0.000 C 
BRANCH  27  28
ATOM     28  O   UNL     1      -4.812  12.480  16.943  0.00  0.00    +0.000 OA
ATOM     29  H   UNL     1      -5.364  12.417  17.741  0.00  0.00    +0.000 HD
ENDBRANCH  27  28
ENDBRANCH  26  27
ENDBRANCH  25  26
ENDBRANCH  24  25
ENDBRANCH  23  24
ENDBRANCH   6  23
BRANCH  13  30
ATOM     30  C   UNL     1      -2.567  13.772  24.033  0.00  0.00    +0.000 C 
BRANCH  30  31
ATOM     31  C   UNL     1      -1.994  15.181  24.313  0.00  0.00    +0.000 C 
ATOM     32  C   UNL     1      -1.774  15.459  25.802  0.00  0.00    +0.000 C 
ATOM     33  C   UNL     1      -0.710  15.473  23.537  0.00  0.00    +0.000 C 
ENDBRANCH  30  31
ENDBRANCH  13  30
TORSDOF 10
ENDMDL
MODEL 6
REMARK VINA RESULT:      -6.5      2.598      5.343
REMARK  Name = 
REMARK  15 active torsions:
REMARK  status: ('A' for Active; 'I' for Inactive)
REMARK    1  A    between atoms: C_1  and  C_2
REMARK    2  A    between atoms: C_5  and  C_6
REMARK    3  A    between atoms: C_7  and  C_8
REMARK    4  A    between atoms: C_8  and  C_9
REMARK    5  A    between atoms: C_14  and  C_15
REMARK    6  A    between atoms: C_15  and  C_16
REMARK    7  A    between atoms: C_16  and  C_17
REMARK    8  A    between atoms: C_17  and  C_18
REMARK    9  A    between atoms: C_18  and  C_19
REMARK   10  A    between atoms: C_19  and  O_20
REMARK   11  A    between atoms: N_23  and  C_24
REMARK   12  A    between atoms: N_27  and  C_28
REMARK   13  A    between atoms: C_28  and  C_29
REMARK   14  A    between atoms: C_29  and  C_30
REMARK   15  A    between atoms: C_29  and  C_31
REMARK                            x       y       z     vdW  Elec       q    Type
REMARK                         _______ _______ _______ _____ _____    ______ ____
ROOT
ATOM      1  C   UNL     1      -3.822  12.262  19.433  0.00  0.00    +0.000 A 
ATOM      2  N   UNL     1      -3.262  12.269  20.682  0.00  0.00    +0.000 NA
ATOM      3  C   UNL     1      -2.087  11.624  20.868  0.00  0.00    +0.000 A 
ATOM      4  C   UNL     1      -1.459  11.040  19.788  0.00  0.00    +0.000 A 
ATOM      5  N   UNL     1      -1.939  11.102  18.514  0.00  0.00    +0.000 NA
ATOM      6  C   UNL     1      -3.141  11.709  18.341  0.00  0.00    +0.000 A 
ATOM      7  C   UNL     1      -0.228  10.266  20.020  0.00  0.00    +0.000 A 
ATOM      8  O   UNL     1       0.379   9.773  19.074  0.00  0.00    +0.000 OA
ATOM      9  N   UNL     1       0.169  10.120  21.346  0.00  0.00    +0.000 N 
ATOM     10  C   UNL     1       1.361   9.342  21.625  0.00  0.00    +0.000 C 
ATOM     11  C   UNL     1      -0.472  10.691  22.440  0.00  0.00    +0.000 A 
ATOM     12  O   UNL     1      -0.088  10.479  23.591  0.00  0.00    +0.000 OA
ATOM     13  N   UNL     1      -1.560  11.502  22.174  0.00  0.00    +0.000 N 
ENDROOT
BRANCH   1  14
ATOM     14  C   UNL     1      -5.211  12.843  19.368  0.00  0.00    +0.000 C 
BRANCH  14  21
ATOM     15  C   UNL     1      -6.891  10.158  18.913  0.00  0.00    +0.000 C 
ATOM     16  C   UNL     1      -6.842  10.979  20.148  0.00  0.00    +0.000 A 
ATOM     17  N   UNL     1      -7.581  10.619  21.201  0.00  0.00    +0.000 NA
ATOM     18  N   UNL     1      -7.351  11.577  22.102  0.00  0.00    +0.000 N 
ATOM     19  C   UNL     1      -6.492  12.551  21.669  0.00  0.00    +0.000 A 
ATOM     20  C   UNL     1      -6.189  13.708  22.547  0.00  0.00    +0.000 C 
ATOM     21  C   UNL     1      -6.098  12.179  20.387  0.00  0.00    +0.000 A 
ATOM     22  H   UNL     1      -7.828  11.516  22.995  0.00  0.00    +0.000 HD
ENDBRANCH  14  21
ENDBRANCH   1  14
BRANCH   6  23
ATOM     23  C   UNL     1      -3.660  11.667  16.928  0.00  0.00    +0.000 C 
BRANCH  23  24
ATOM     24  C   UNL     1      -4.046  10.287  16.375  0.00  0.00    +0.000 C 
BRANCH  24  25
ATOM     25  C   UNL     1      -2.971   9.516  15.590  0.00  0.00    +0.000 C 
BRANCH  25  26
ATOM     26  C   UNL     1      -2.867  10.099  14.170  0.00  0.00    +0.000 C 
BRANCH  26  27
ATOM     27  C   UNL     1      -4.074   9.822  13.283  0.00  0.00    +0.000 C 
BRANCH  27  28
ATOM     28  O   UNL     1      -3.642   9.708  11.929  0.00  0.00    +0.000 OA
ATOM     29  H   UNL     1      -3.681   8.767  11.684  0.00  0.00    +0.000 HD
ENDBRANCH  27  28
ENDBRANCH  26  27
ENDBRANCH  25  26
ENDBRANCH  24  25
ENDBRANCH  23  24
ENDBRANCH   6  23
BRANCH  13  30
ATOM     30  C   UNL     1      -2.214  12.222  23.269  0.00  0.00    +0.000 C 
BRANCH  30  31
ATOM     31  C   UNL     1      -2.088  13.762  23.206  0.00  0.00    +0.000 C 
ATOM     32  C   UNL     1      -2.659  14.466  24.441  0.00  0.00    +0.000 C 
ATOM     33  C   UNL     1      -0.658  14.238  22.955  0.00  0.00    +0.000 C 
ENDBRANCH  30  31
ENDBRANCH  13  30
TORSDOF 10
ENDMDL
MODEL 7
REMARK VINA RESULT:      -6.5      7.748     10.016
REMARK  Name = 
REMARK  15 active torsions:
REMARK  status: ('A' for Active; 'I' for Inactive)
REMARK    1  A    between atoms: C_1  and  C_2
REMARK    2  A    between atoms: C_5  and  C_6
REMARK    3  A    between atoms: C_7  and  C_8
REMARK    4  A    between atoms: C_8  and  C_9
REMARK    5  A    between atoms: C_14  and  C_15
REMARK    6  A    between atoms: C_15  and  C_16
REMARK    7  A    between atoms: C_16  and  C_17
REMARK    8  A    between atoms: C_17  and  C_18
REMARK    9  A    between atoms: C_18  and  C_19
REMARK   10  A    between atoms: C_19  and  O_20
REMARK   11  A    between atoms: N_23  and  C_24
REMARK   12  A    between atoms: N_27  and  C_28
REMARK   13  A    between atoms: C_28  and  C_29
REMARK   14  A    between atoms: C_29  and  C_30
REMARK   15  A    between atoms: C_29  and  C_31
REMARK                            x       y       z     vdW  Elec       q    Type
REMARK                         _______ _______ _______ _____ _____    ______ ____
ROOT
ATOM      1  C   UNL     1       4.405   5.473  18.332  0.00  0.00    +0.000 A 
ATOM      2  N   UNL     1       3.398   5.614  19.248  0.00  0.00    +0.000 NA
ATOM      3  C   UNL     1       2.668   6.754  19.237  0.00  0.00    +0.000 A 
ATOM      4  C   UNL     1       2.915   7.705  18.268  0.00  0.00    +0.000 A 
ATOM      5  N   UNL     1       3.841   7.550  17.281  0.00  0.00    +0.000 NA
ATOM      6  C   UNL     1       4.602   6.426  17.324  0.00  0.00    +0.000 A 
ATOM      7  C   UNL     1       2.177   8.977  18.322  0.00  0.00    +0.000 A 
ATOM      8  O   UNL     1       2.340   9.824  17.449  0.00  0.00    +0.000 OA
ATOM      9  N   UNL     1       1.327   9.152  19.411  0.00  0.00    +0.000 N 
ATOM     10  C   UNL     1       0.600  10.402  19.522  0.00  0.00    +0.000 C 
ATOM     11  C   UNL     1       1.090   8.204  20.401  0.00  0.00    +0.000 A 
ATOM     12  O   UNL     1       0.359   8.449  21.361  0.00  0.00    +0.000 OA
ATOM     13  N   UNL     1       1.717   6.980  20.258  0.00  0.00    +0.000 N 
ENDROOT
BRANCH   1  14
ATOM     14  C   UNL     1       5.273   4.259  18.541  0.00  0.00    +0.000 C 
BRANCH  14  21
ATOM     15  C   UNL     1       2.851   3.542  16.576  0.00  0.00    +0.000 C 
ATOM     16  C   UNL     1       3.340   2.732  17.721  0.00  0.00    +0.000 A 
ATOM     17  N   UNL     1       2.720   1.588  18.023  0.00  0.00    +0.000 NA
ATOM     18  N   UNL     1       3.361   1.148  19.108  0.00  0.00    +0.000 N 
ATOM     19  C   UNL     1       4.373   1.970  19.525  0.00  0.00    +0.000 A 
ATOM     20  C   UNL     1       5.136   1.633  20.753  0.00  0.00    +0.000 C 
ATOM     21  C   UNL     1       4.422   3.020  18.613  0.00  0.00    +0.000 A 
ATOM     22  H   UNL     1       3.047   0.281  19.529  0.00  0.00    +0.000 HD
ENDBRANCH  14  21
ENDBRANCH   1  14
BRANCH   6  23
ATOM     23  C   UNL     1       5.666   6.355  16.261  0.00  0.00    +0.000 C 
BRANCH  23  24
ATOM     24  C   UNL     1       5.310   5.587  14.979  0.00  0.00    +0.000 C 
BRANCH  24  25
ATOM     25  C   UNL     1       5.955   4.204  14.783  0.00  0.00    +0.000 C 
BRANCH  25  26
ATOM     26  C   UNL     1       6.589   4.136  13.384  0.00  0.00    +0.000 C 
BRANCH  26  27
ATOM     27  C   UNL     1       5.810   3.301  12.376  0.00  0.00    +0.000 C 
BRANCH  27  28
ATOM     28  O   UNL     1       6.655   2.269  11.872  0.00  0.00    +0.000 OA
ATOM     29  H   UNL     1       6.165   1.430  11.927  0.00  0.00    +0.000 HD
ENDBRANCH  27  28
ENDBRANCH  26  27
ENDBRANCH  25  26
ENDBRANCH  24  25
ENDBRANCH  23  24
ENDBRANCH   6  23
BRANCH  13  30
ATOM     30  C   UNL     1       1.426   5.900  21.203  0.00  0.00    +0.000 C 
BRANCH  30  31
ATOM     31  C   UNL     1       1.715   4.475  20.677  0.00  0.00    +0.000 C 
ATOM     32  C   UNL     1       2.171   3.507  21.773  0.00  0.00    +0.000 C 
ATOM     33  C   UNL     1       0.543   3.868  19.906  0.00  0.00    +0.000 C 
ENDBRANCH  30  31
ENDBRANCH  13  30
TORSDOF 10
ENDMDL
MODEL 8
REMARK VINA RESULT:      -6.4      8.765     10.837
REMARK  Name = 
REMARK  15 active torsions:
REMARK  status: ('A' for Active; 'I' for Inactive)
REMARK    1  A    between atoms: C_1  and  C_2
REMARK    2  A    between atoms: C_5  and  C_6
REMARK    3  A    between atoms: C_7  and  C_8
REMARK    4  A    between atoms: C_8  and  C_9
REMARK    5  A    between atoms: C_14  and  C_15
REMARK    6  A    between atoms: C_15  and  C_16
REMARK    7  A    between atoms: C_16  and  C_17
REMARK    8  A    between atoms: C_17  and  C_18
REMARK    9  A    between atoms: C_18  and  C_19
REMARK   10  A    between atoms: C_19  and  O_20
REMARK   11  A    between atoms: N_23  and  C_24
REMARK   12  A    between atoms: N_27  and  C_28
REMARK   13  A    between atoms: C_28  and  C_29
REMARK   14  A    between atoms: C_29  and  C_30
REMARK   15  A    between atoms: C_29  and  C_31
REMARK                            x       y       z     vdW  Elec       q    Type
REMARK                         _______ _______ _______ _____ _____    ______ ____
ROOT
ATOM      1  C   UNL     1       5.339   5.590  16.828  0.00  0.00    +0.000 A 
ATOM      2  N   UNL     1       4.513   5.876  17.881  0.00  0.00    +0.000 NA
ATOM      3  C   UNL     1       3.601   4.949  18.259  0.00  0.00    +0.000 A 
ATOM      4  C   UNL     1       3.575   3.728  17.619  0.00  0.00    +0.000 A 
ATOM      5  N   UNL     1       4.449   3.375  16.635  0.00  0.00    +0.000 NA
ATOM      6  C   UNL     1       5.331   4.323  16.229  0.00  0.00    +0.000 A 
ATOM      7  C   UNL     1       2.522   2.764  17.978  0.00  0.00    +0.000 A 
ATOM      8  O   UNL     1       2.499   1.651  17.460  0.00  0.00    +0.000 OA
ATOM      9  N   UNL     1       1.573   3.201  18.898  0.00  0.00    +0.000 N 
ATOM     10  C   UNL     1       0.499   2.296  19.261  0.00  0.00    +0.000 C 
ATOM     11  C   UNL     1       1.584   4.439  19.531  0.00  0.00    +0.000 A 
ATOM     12  O   UNL     1       0.682   4.774  20.300  0.00  0.00    +0.000 OA
ATOM     13  N   UNL     1       2.649   5.275  19.252  0.00  0.00    +0.000 N 
ENDROOT
BRANCH   1  14
ATOM     14  C   UNL     1       6.187   6.747  16.369  0.00  0.00    +0.000 C 
BRANCH  14  21
ATOM     15  C   UNL     1       7.543   4.678  18.399  0.00  0.00    +0.000 C 
ATOM     16  C   UNL     1       7.791   6.139  18.318  0.00  0.00    +0.000 A 
ATOM     17  N   UNL     1       8.640   6.706  19.180  0.00  0.00    +0.000 NA
ATOM     18  N   UNL     1       8.594   8.004  18.875  0.00  0.00    +0.000 N 
ATOM     19  C   UNL     1       7.739   8.303  17.849  0.00  0.00    +0.000 A 
ATOM     20  C   UNL     1       7.545   9.716  17.440  0.00  0.00    +0.000 C 
ATOM     21  C   UNL     1       7.208   7.090  17.420  0.00  0.00    +0.000 A 
ATOM     22  H   UNL     1       9.162   8.643  19.421  0.00  0.00    +0.000 HD
ENDBRANCH  14  21
ENDBRANCH   1  14
BRANCH   6  23
ATOM     23  C   UNL     1       6.210   3.904  15.080  0.00  0.00    +0.000 C 
BRANCH  23  24
ATOM     24  C   UNL     1       5.752   4.319  13.675  0.00  0.00    +0.000 C 
BRANCH  24  25
ATOM     25  C   UNL     1       6.409   3.607  12.479  0.00  0.00    +0.000 C 
BRANCH  25  26
ATOM     26  C   UNL     1       5.373   2.693  11.805  0.00  0.00    +0.000 C 
BRANCH  26  27
ATOM     27  C   UNL     1       5.938   1.386  11.264  0.00  0.00    +0.000 C 
BRANCH  27  28
ATOM     28  O   UNL     1       7.363   1.461  11.256  0.00  0.00    +0.000 OA
ATOM     29  H   UNL     1       7.696   0.839  11.925  0.00  0.00    +0.000 HD
ENDBRANCH  27  28
ENDBRANCH  26  27
ENDBRANCH  25  26
ENDBRANCH  24  25
ENDBRANCH  23  24
ENDBRANCH   6  23
BRANCH  13  30
ATOM     30  C   UNL     1       2.781   6.547  19.966  0.00  0.00    +0.000 C 
BRANCH  30  31
ATOM     31  C   UNL     1       1.802   7.655  19.514  0.00  0.00    +0.000 C 
ATOM     32  C   UNL     1       1.354   8.569  20.658  0.00  0.00    +0.000 C 
ATOM     33  C   UNL     1       2.341   8.499  18.359  0.00  0.00    +0.000 C 
ENDBRANCH  30  31
ENDBRANCH  13  30
TORSDOF 10
ENDMDL
MODEL 9
REMARK VINA RESULT:      -6.4      2.441      5.149
REMARK  Name = 
REMARK  15 active torsions:
REMARK  status: ('A' for Active; 'I' for Inactive)
REMARK    1  A    between atoms: C_1  and  C_2
REMARK    2  A    between atoms: C_5  and  C_6
REMARK    3  A    between atoms: C_7  and  C_8
REMARK    4  A    between atoms: C_8  and  C_9
REMARK    5  A    between atoms: C_14  and  C_15
REMARK    6  A    between atoms: C_15  and  C_16
REMARK    7  A    between atoms: C_16  and  C_17
REMARK    8  A    between atoms: C_17  and  C_18
REMARK    9  A    between atoms: C_18  and  C_19
REMARK   10  A    between atoms: C_19  and  O_20
REMARK   11  A    between atoms: N_23  and  C_24
REMARK   12  A    between atoms: N_27  and  C_28
REMARK   13  A    between atoms: C_28  and  C_29
REMARK   14  A    between atoms: C_29  and  C_30
REMARK   15  A    between atoms: C_29  and  C_31
REMARK                            x       y       z     vdW  Elec       q    Type
REMARK                         _______ _______ _______ _____ _____    ______ ____
ROOT
ATOM      1  C   UNL     1      -4.768  12.461  19.330  0.00  0.00    +0.000 A 
ATOM      2  N   UNL     1      -4.149  13.177  20.319  0.00  0.00    +0.000 NA
ATOM      3  C   UNL     1      -2.815  13.027  20.489  0.00  0.00    +0.000 A 
ATOM      4  C   UNL     1      -2.111  12.215  19.624  0.00  0.00    +0.000 A 
ATOM      5  N   UNL     1      -2.680  11.568  18.568  0.00  0.00    +0.000 NA
ATOM      6  C   UNL     1      -4.026  11.684  18.431  0.00  0.00    +0.000 A 
ATOM      7  C   UNL     1      -0.678  11.990  19.874  0.00  0.00    +0.000 A 
ATOM      8  O   UNL     1      -0.014  11.310  19.097  0.00  0.00    +0.000 OA
ATOM      9  N   UNL     1      -0.155  12.567  21.027  0.00  0.00    +0.000 N 
ATOM     10  C   UNL     1       1.247  12.350  21.330  0.00  0.00    +0.000 C 
ATOM     11  C   UNL     1      -0.865  13.371  21.913  0.00  0.00    +0.000 A 
ATOM     12  O   UNL     1      -0.345  13.808  22.940  0.00  0.00    +0.000 OA
ATOM     13  N   UNL     1      -2.180  13.650  21.587  0.00  0.00    +0.000 N 
ENDROOT
BRANCH   1  14
ATOM     14  C   UNL     1      -6.272  12.553  19.340  0.00  0.00    +0.000 C 
BRANCH  14  21
ATOM     15  C   UNL     1      -7.132   9.471  19.394  0.00  0.00    +0.000 C 
ATOM     16  C   UNL     1      -7.209  10.437  20.519  0.00  0.00    +0.000 A 
ATOM     17  N   UNL     1      -7.709  10.037  21.691  0.00  0.00    +0.000 NA
ATOM     18  N   UNL     1      -7.685  11.136  22.447  0.00  0.00    +0.000 N 
ATOM     19  C   UNL     1      -7.192  12.240  21.805  0.00  0.00    +0.000 A 
ATOM     20  C   UNL     1      -7.158  13.546  22.508  0.00  0.00    +0.000 C 
ATOM     21  C   UNL     1      -6.827  11.817  20.530  0.00  0.00    +0.000 A 
ATOM     22  H   UNL     1      -8.037  11.070  23.396  0.00  0.00    +0.000 HD
ENDBRANCH  14  21
ENDBRANCH   1  14
BRANCH   6  23
ATOM     23  C   UNL     1      -4.607  10.876  17.301  0.00  0.00    +0.000 C 
BRANCH  23  24
ATOM     24  C   UNL     1      -4.136  11.234  15.883  0.00  0.00    +0.000 C 
BRANCH  24  25
ATOM     25  C   UNL     1      -3.269  10.200  15.146  0.00  0.00    +0.000 C 
BRANCH  25  26
ATOM     26  C   UNL     1      -3.880   9.922  13.762  0.00  0.00    +0.000 C 
BRANCH  26  27
ATOM     27  C   UNL     1      -2.872   9.525  12.693  0.00  0.00    +0.000 C 
BRANCH  27  28
ATOM     28  O   UNL     1      -3.450   9.730  11.405  0.00  0.00    +0.000 OA
ATOM     29  H   UNL     1      -3.726  10.661  11.349  0.00  0.00    +0.000 HD
ENDBRANCH  27  28
ENDBRANCH  26  27
ENDBRANCH  25  26
ENDBRANCH  24  25
ENDBRANCH  23  24
ENDBRANCH   6  23
BRANCH  13  30
ATOM     30  C   UNL     1      -2.952  14.578  22.416  0.00  0.00    +0.000 C 
BRANCH  30  31
ATOM     31  C   UNL     1      -3.649  13.937  23.639  0.00  0.00    +0.000 C 
ATOM     32  C   UNL     1      -3.506  12.413  23.686  0.00  0.00    +0.000 C 
ATOM     33  C   UNL     1      -3.201  14.539  24.971  0.00  0.00    +0.000 C 
ENDBRANCH  30  31
ENDBRANCH  13  30
TORSDOF 10
ENDMDL
