MODEL 1
REMARK VINA RESULT:      -7.9      0.000      0.000
REMARK  Name = 
REMARK  15 active torsions:
REMARK  status: ('A' for Active; 'I' for Inactive)
REMARK    1  A    between atoms: C_1  and  C_2
REMARK    2  A    between atoms: C_2  and  C_3
REMARK    3  A    between atoms: C_4  and  C_5
REMARK    4  A    between atoms: C_5  and  C_6
REMARK    5  A    between atoms: C_6  and  C_7
REMARK    6  A    between atoms: C_9  and  C_10
REMARK    7  A    between atoms: C_10  and  C_11
REMARK    8  A    between atoms: C_10  and  C_12
REMARK    9  A    between atoms: C_10  and  C_13
REMARK   10  A    between atoms: C_15  and  C_16
REMARK   11  A    between atoms: C_16  and  C_17
REMARK   12  A    between atoms: C_16  and  C_18
REMARK   13  A    between atoms: C_16  and  C_19
REMARK   14  A    between atoms: C_23  and  C_24
REMARK   15  A    between atoms: C_24  and  O_26
REMARK                            x       y       z     vdW  Elec       q    Type
REMARK                         _______ _______ _______ _____ _____    ______ ____
ROOT
ATOM      1  C   UNL     1       2.859   6.585  18.023  0.00  0.00    +0.000 A 
ATOM      2  C   UNL     1       2.255   5.337  18.268  0.00  0.00    +0.000 A 
ATOM      3  C   UNL     1       3.039   4.186  18.450  0.00  0.00    +0.000 A 
ATOM      4  C   UNL     1       4.428   4.296  18.198  0.00  0.00    +0.000 A 
ATOM      5  C   UNL     1       5.056   5.513  17.864  0.00  0.00    +0.000 A 
ATOM      6  C   UNL     1       4.222   6.624  17.704  0.00  0.00    +0.000 A 
ENDROOT
BRANCH   3   7
ATOM      7  C   UNL     1       2.438   2.959  19.177  0.00  0.00    +0.000 C 
ATOM      8  C   UNL     1       2.667   2.976  20.704  0.00  0.00    +0.000 C 
ATOM      9  C   UNL     1       0.913   2.817  18.962  0.00  0.00    +0.000 C 
ATOM     10  C   UNL     1       3.095   1.676  18.602  0.00  0.00    +0.000 C 
ENDBRANCH   3   7
BRANCH   5  11
ATOM     11  C   UNL     1       6.583   5.709  17.858  0.00  0.00    +0.000 C 
ATOM     12  C   UNL     1       7.334   4.671  16.996  0.00  0.00    +0.000 C 
ATOM     13  C   UNL     1       6.934   7.114  17.331  0.00  0.00    +0.000 C 
ATOM     14  C   UNL     1       7.159   5.554  19.292  0.00  0.00    +0.000 C 
ENDBRANCH   5  11
BRANCH   1  15
ATOM     15  C   UNL     1       2.182   7.872  18.494  0.00  0.00    +0.000 C 
ATOM     16  C   UNL     1       1.243   8.650  17.591  0.00  0.00    +0.000 C 
ATOM     17  C   UNL     1       2.620   9.182  17.842  0.00  0.00    +0.000 C 
BRANCH  15  18
ATOM     18  C   UNL     1       1.936   7.860  20.042  0.00  0.00    +0.000 C 
BRANCH  18  20
ATOM     19  C   UNL     1      -0.071   9.171  21.080  0.00  0.00    +0.000 C 
ATOM     20  C   UNL     1       1.176   9.089  20.554  0.00  0.00    +0.000 C 
BRANCH  19  22
ATOM     21  C   UNL     1      -1.110  11.388  20.356  0.00  0.00    +0.000 C 
ATOM     22  C   UNL     1      -0.720  10.449  21.470  0.00  0.00    +0.000 C 
ATOM     23  C   UNL     1      -0.905  10.804  22.755  0.00  0.00    +0.000 C 
BRANCH  23  24
ATOM     24  C   UNL     1      -1.519  12.092  23.184  0.00  0.00    +0.000 C 
ATOM     25  O   UNL     1      -2.710  12.299  23.368  0.00  0.00    +0.000 OA
BRANCH  24  26
ATOM     26  O   UNL     1      -0.594  13.061  23.343  0.00  0.00    +0.000 OA
ATOM     27  H   UNL     1      -0.842  13.934  23.008  0.00  0.00    +0.000 HD
ENDBRANCH  24  26
ENDBRANCH  23  24
ENDBRANCH  19  22
ENDBRANCH  18  20
ENDBRANCH  15  18
ENDBRANCH   1  15
TORSDOF 8
ENDMDL
MODEL 2
REMARK VINA RESULT:      -7.9      0.931      1.432
REMARK  Name = 
REMARK  15 active torsions:
REMARK  status: ('A' for Active; 'I' for Inactive)
REMARK    1  A    between atoms: C_1  and  C_2
REMARK    2  A    between atoms: C_2  and  C_3
REMARK    3  A    between atoms: C_4  and  C_5
REMARK    4  A    between atoms: C_5  and  C_6
REMARK    5  A    between atoms: C_6  and  C_7
REMARK    6  A    between atoms: C_9  and  C_10
REMARK    7  A    between atoms: C_10  and  C_11
REMARK    8  A    between atoms: C_10  and  C_12
REMARK    9  A    between atoms: C_10  and  C_13
REMARK   10  A    between atoms: C_15  and  C_16
REMARK   11  A    between atoms: C_16  and  C_17
REMARK   12  A    between atoms: C_16  and  C_18
REMARK   13  A    between atoms: C_16  and  C_19
REMARK   14  A    between atoms: C_23  and  C_24
REMARK   15  A    between atoms: C_24  and  O_26
REMARK                            x       y       z     vdW  Elec       q    Type
REMARK                         _______ _______ _______ _____ _____    ______ ____
ROOT
ATOM      1  C   UNL     1       2.919   6.278  17.816  0.00  0.00    +0.000 A 
ATOM      2  C   UNL     1       2.397   5.005  18.111  0.00  0.00    +0.000 A 
ATOM      3  C   UNL     1       3.217   3.866  18.064  0.00  0.00    +0.000 A 
ATOM      4  C   UNL     1       4.522   4.023  17.538  0.00  0.00    +0.000 A 
ATOM      5  C   UNL     1       5.050   5.271  17.149  0.00  0.00    +0.000 A 
ATOM      6  C   UNL     1       4.186   6.367  17.226  0.00  0.00    +0.000 A 
ENDROOT
BRANCH   3   7
ATOM      7  C   UNL     1       2.797   2.589  18.831  0.00  0.00    +0.000 C 
ATOM      8  C   UNL     1       3.563   1.324  18.387  0.00  0.00    +0.000 C 
ATOM      9  C   UNL     1       2.996   2.711  20.360  0.00  0.00    +0.000 C 
ATOM     10  C   UNL     1       1.283   2.348  18.594  0.00  0.00    +0.000 C 
ENDBRANCH   3   7
BRANCH   5  11
ATOM     11  C   UNL     1       6.540   5.505  16.840  0.00  0.00    +0.000 C 
ATOM     12  C   UNL     1       6.925   5.184  15.379  0.00  0.00    +0.000 C 
ATOM     13  C   UNL     1       6.914   6.973  17.122  0.00  0.00    +0.000 C 
ATOM     14  C   UNL     1       7.431   4.584  17.717  0.00  0.00    +0.000 C 
ENDBRANCH   5  11
BRANCH   1  15
ATOM     15  C   UNL     1       2.337   7.522  18.487  0.00  0.00    +0.000 C 
ATOM     16  C   UNL     1       1.390   8.451  17.749  0.00  0.00    +0.000 C 
ATOM     17  C   UNL     1       2.805   8.884  17.979  0.00  0.00    +0.000 C 
BRANCH  15  18
ATOM     18  C   UNL     1       2.176   7.322  20.033  0.00  0.00    +0.000 C 
BRANCH  18  20
ATOM     19  C   UNL     1       1.427   9.260  21.617  0.00  0.00    +0.000 C 
ATOM     20  C   UNL     1       1.196   8.304  20.683  0.00  0.00    +0.000 C 
BRANCH  19  22
ATOM     21  C   UNL     1      -0.422   9.496  23.360  0.00  0.00    +0.000 C 
ATOM     22  C   UNL     1       0.361  10.098  22.221  0.00  0.00    +0.000 C 
ATOM     23  C   UNL     1       0.047  11.319  21.750  0.00  0.00    +0.000 C 
BRANCH  23  24
ATOM     24  C   UNL     1      -1.039  12.174  22.307  0.00  0.00    +0.000 C 
ATOM     25  O   UNL     1      -2.204  12.195  21.936  0.00  0.00    +0.000 OA
BRANCH  24  26
ATOM     26  O   UNL     1      -0.591  12.976  23.295  0.00  0.00    +0.000 OA
ATOM     27  H   UNL     1      -0.706  12.636  24.193  0.00  0.00    +0.000 HD
ENDBRANCH  24  26
ENDBRANCH  23  24
ENDBRANCH  19  22
ENDBRANCH  18  20
ENDBRANCH  15  18
ENDBRANCH   1  15
TORSDOF 8
ENDMDL
MODEL 3
REMARK VINA RESULT:      -7.8      0.570      1.009
REMARK  Name = 
REMARK  15 active torsions:
REMARK  status: ('A' for Active; 'I' for Inactive)
REMARK    1  A    between atoms: C_1  and  C_2
REMARK    2  A    between atoms: C_2  and  C_3
REMARK    3  A    between atoms: C_4  and  C_5
REMARK    4  A    between atoms: C_5  and  C_6
REMARK    5  A    between atoms: C_6  and  C_7
REMARK    6  A    between atoms: C_9  and  C_10
REMARK    7  A    between atoms: C_10  and  C_11
REMARK    8  A    between atoms: C_10  and  C_12
REMARK    9  A    between atoms: C_10  and  C_13
REMARK   10  A    between atoms: C_15  and  C_16
REMARK   11  A    between atoms: C_16  and  C_17
REMARK   12  A    between atoms: C_16  and  C_18
REMARK   13  A    between atoms: C_16  and  C_19
REMARK   14  A    between atoms: C_23  and  C_24
REMARK   15  A    between atoms: C_24  and  O_26
REMARK                            x       y       z     vdW  Elec       q    Type
REMARK                         _______ _______ _______ _____ _____    ______ ____
ROOT
ATOM      1  C   UNL     1       2.746   6.787  18.085  0.00  0.00    +0.000 A 
ATOM      2  C   UNL     1       2.132   5.562  18.408  0.00  0.00    +0.000 A 
ATOM      3  C   UNL     1       2.904   4.405  18.606  0.00  0.00    +0.000 A 
ATOM      4  C   UNL     1       4.283   4.479  18.295  0.00  0.00    +0.000 A 
ATOM      5  C   UNL     1       4.917   5.670  17.883  0.00  0.00    +0.000 A 
ATOM      6  C   UNL     1       4.095   6.787  17.710  0.00  0.00    +0.000 A 
ENDROOT
BRANCH   3   7
ATOM      7  C   UNL     1       2.313   3.221  19.410  0.00  0.00    +0.000 C 
ATOM      8  C   UNL     1       1.773   3.628  20.798  0.00  0.00    +0.000 C 
ATOM      9  C   UNL     1       1.151   2.513  18.674  0.00  0.00    +0.000 C 
ATOM     10  C   UNL     1       3.428   2.161  19.614  0.00  0.00    +0.000 C 
ENDBRANCH   3   7
BRANCH   5  11
ATOM     11  C   UNL     1       6.445   5.837  17.808  0.00  0.00    +0.000 C 
ATOM     12  C   UNL     1       7.153   5.662  19.170  0.00  0.00    +0.000 C 
ATOM     13  C   UNL     1       7.040   4.810  16.823  0.00  0.00    +0.000 C 
ATOM     14  C   UNL     1       6.816   7.265  17.327  0.00  0.00    +0.000 C 
ENDBRANCH   5  11
BRANCH   1  15
ATOM     15  C   UNL     1       2.111   8.104  18.528  0.00  0.00    +0.000 C 
ATOM     16  C   UNL     1       1.255   8.929  17.584  0.00  0.00    +0.000 C 
ATOM     17  C   UNL     1       2.643   9.392  17.903  0.00  0.00    +0.000 C 
BRANCH  15  18
ATOM     18  C   UNL     1       1.789   8.103  20.062  0.00  0.00    +0.000 C 
BRANCH  18  20
ATOM     19  C   UNL     1       0.737  10.227  21.161  0.00  0.00    +0.000 C 
ATOM     20  C   UNL     1       0.668   9.070  20.457  0.00  0.00    +0.000 C 
BRANCH  19  22
ATOM     21  C   UNL     1      -1.240  11.662  20.423  0.00  0.00    +0.000 C 
ATOM     22  C   UNL     1      -0.449  11.034  21.543  0.00  0.00    +0.000 C 
ATOM     23  C   UNL     1      -0.786  11.263  22.825  0.00  0.00    +0.000 C 
BRANCH  23  24
ATOM     24  C   UNL     1      -1.946  12.098  23.247  0.00  0.00    +0.000 C 
ATOM     25  O   UNL     1      -3.101  11.716  23.376  0.00  0.00    +0.000 OA
BRANCH  24  26
ATOM     26  O   UNL     1      -1.590  13.381  23.466  0.00  0.00    +0.000 OA
ATOM     27  H   UNL     1      -0.728  13.640  23.113  0.00  0.00    +0.000 HD
ENDBRANCH  24  26
ENDBRANCH  23  24
ENDBRANCH  19  22
ENDBRANCH  18  20
ENDBRANCH  15  18
ENDBRANCH   1  15
TORSDOF 8
ENDMDL
MODEL 4
REMARK VINA RESULT:      -7.8      0.794      1.699
REMARK  Name = 
REMARK  15 active torsions:
REMARK  status: ('A' for Active; 'I' for Inactive)
REMARK    1  A    between atoms: C_1  and  C_2
REMARK    2  A    between atoms: C_2  and  C_3
REMARK    3  A    between atoms: C_4  and  C_5
REMARK    4  A    between atoms: C_5  and  C_6
REMARK    5  A    between atoms: C_6  and  C_7
REMARK    6  A    between atoms: C_9  and  C_10
REMARK    7  A    between atoms: C_10  and  C_11
REMARK    8  A    between atoms: C_10  and  C_12
REMARK    9  A    between atoms: C_10  and  C_13
REMARK   10  A    between atoms: C_15  and  C_16
REMARK   11  A    between atoms: C_16  and  C_17
REMARK   12  A    between atoms: C_16  and  C_18
REMARK   13  A    between atoms: C_16  and  C_19
REMARK   14  A    between atoms: C_23  and  C_24
REMARK   15  A    between atoms: C_24  and  O_26
REMARK                            x       y       z     vdW  Elec       q    Type
REMARK                         _______ _______ _______ _____ _____    ______ ____
ROOT
ATOM      1  C   UNL     1       2.735   6.567  17.908  0.00  0.00    +0.000 A 
ATOM      2  C   UNL     1       2.158   5.309  18.165  0.00  0.00    +0.000 A 
ATOM      3  C   UNL     1       2.944   4.145  18.148  0.00  0.00    +0.000 A 
ATOM      4  C   UNL     1       4.278   4.265  17.690  0.00  0.00    +0.000 A 
ATOM      5  C   UNL     1       4.864   5.499  17.339  0.00  0.00    +0.000 A 
ATOM      6  C   UNL     1       4.032   6.621  17.383  0.00  0.00    +0.000 A 
ENDROOT
BRANCH   3   7
ATOM      7  C   UNL     1       2.447   2.877  18.882  0.00  0.00    +0.000 C 
ATOM      8  C   UNL     1       0.948   2.583  18.657  0.00  0.00    +0.000 C 
ATOM      9  C   UNL     1       3.213   1.599  18.466  0.00  0.00    +0.000 C 
ATOM     10  C   UNL     1       2.681   3.065  20.405  0.00  0.00    +0.000 C 
ENDBRANCH   3   7
BRANCH   5  11
ATOM     11  C   UNL     1       6.374   5.687  17.107  0.00  0.00    +0.000 C 
ATOM     12  C   UNL     1       6.858   7.135  17.340  0.00  0.00    +0.000 C 
ATOM     13  C   UNL     1       7.172   4.758  18.044  0.00  0.00    +0.000 C 
ATOM     14  C   UNL     1       6.747   5.355  15.637  0.00  0.00    +0.000 C 
ENDBRANCH   5  11
BRANCH   1  15
ATOM     15  C   UNL     1       2.159   7.824  18.559  0.00  0.00    +0.000 C 
ATOM     16  C   UNL     1       1.161   8.708  17.834  0.00  0.00    +0.000 C 
ATOM     17  C   UNL     1       2.575   9.175  17.982  0.00  0.00    +0.000 C 
BRANCH  15  18
ATOM     18  C   UNL     1       2.074   7.678  20.118  0.00  0.00    +0.000 C 
BRANCH  18  20
ATOM     19  C   UNL     1       1.192   9.735  21.467  0.00  0.00    +0.000 C 
ATOM     20  C   UNL     1       1.023   8.586  20.765  0.00  0.00    +0.000 C 
BRANCH  19  22
ATOM     21  C   UNL     1      -0.683   9.770  23.199  0.00  0.00    +0.000 C 
ATOM     22  C   UNL     1       0.081  10.481  22.110  0.00  0.00    +0.000 C 
ATOM     23  C   UNL     1      -0.288  11.713  21.713  0.00  0.00    +0.000 C 
BRANCH  23  24
ATOM     24  C   UNL     1      -1.419  12.478  22.309  0.00  0.00    +0.000 C 
ATOM     25  O   UNL     1      -1.372  13.170  23.316  0.00  0.00    +0.000 OA
BRANCH  24  26
ATOM     26  O   UNL     1      -2.561  12.312  21.610  0.00  0.00    +0.000 OA
ATOM     27  H   UNL     1      -2.849  11.397  21.493  0.00  0.00    +0.000 HD
ENDBRANCH  24  26
ENDBRANCH  23  24
ENDBRANCH  19  22
ENDBRANCH  18  20
ENDBRANCH  15  18
ENDBRANCH   1  15
TORSDOF 8
ENDMDL
MODEL 5
REMARK VINA RESULT:      -7.8      0.393      1.160
REMARK  Name = 
REMARK  15 active torsions:
REMARK  status: ('A' for Active; 'I' for Inactive)
REMARK    1  A    between atoms: C_1  and  C_2
REMARK    2  A    between atoms: C_2  and  C_3
REMARK    3  A    between atoms: C_4  and  C_5
REMARK    4  A    between atoms: C_5  and  C_6
REMARK    5  A    between atoms: C_6  and  C_7
REMARK    6  A    between atoms: C_9  and  C_10
REMARK    7  A    between atoms: C_10  and  C_11
REMARK    8  A    between atoms: C_10  and  C_12
REMARK    9  A    between atoms: C_10  and  C_13
REMARK   10  A    between atoms: C_15  and  C_16
REMARK   11  A    between atoms: C_16  and  C_17
REMARK   12  A    between atoms: C_16  and  C_18
REMARK   13  A    between atoms: C_16  and  C_19
REMARK   14  A    between atoms: C_23  and  C_24
REMARK   15  A    between atoms: C_24  and  O_26
REMARK                            x       y       z     vdW  Elec       q    Type
REMARK                         _______ _______ _______ _____ _____    ______ ____
ROOT
ATOM      1  C   UNL     1       2.804   6.758  18.004  0.00  0.00    +0.000 A 
ATOM      2  C   UNL     1       2.200   5.519  18.287  0.00  0.00    +0.000 A 
ATOM      3  C   UNL     1       2.981   4.365  18.464  0.00  0.00    +0.000 A 
ATOM      4  C   UNL     1       4.363   4.462  18.170  0.00  0.00    +0.000 A 
ATOM      5  C   UNL     1       4.989   5.669  17.798  0.00  0.00    +0.000 A 
ATOM      6  C   UNL     1       4.158   6.783  17.645  0.00  0.00    +0.000 A 
ENDROOT
BRANCH   3   7
ATOM      7  C   UNL     1       2.395   3.155  19.229  0.00  0.00    +0.000 C 
ATOM      8  C   UNL     1       3.356   1.949  19.304  0.00  0.00    +0.000 C 
ATOM      9  C   UNL     1       2.000   3.495  20.685  0.00  0.00    +0.000 C 
ATOM     10  C   UNL     1       1.099   2.698  18.508  0.00  0.00    +0.000 C 
ENDBRANCH   3   7
BRANCH   5  11
ATOM     11  C   UNL     1       6.516   5.854  17.745  0.00  0.00    +0.000 C 
ATOM     12  C   UNL     1       6.951   7.263  17.285  0.00  0.00    +0.000 C 
ATOM     13  C   UNL     1       7.128   5.594  19.135  0.00  0.00    +0.000 C 
ATOM     14  C   UNL     1       7.151   4.869  16.726  0.00  0.00    +0.000 C 
ENDBRANCH   5  11
BRANCH   1  15
ATOM     15  C   UNL     1       2.150   8.057  18.474  0.00  0.00    +0.000 C 
ATOM     16  C   UNL     1       1.196   8.832  17.583  0.00  0.00    +0.000 C 
ATOM     17  C   UNL     1       2.584   9.354  17.795  0.00  0.00    +0.000 C 
BRANCH  15  18
ATOM     18  C   UNL     1       1.940   8.068  20.027  0.00  0.00    +0.000 C 
BRANCH  18  20
ATOM     19  C   UNL     1       0.110   9.220  21.494  0.00  0.00    +0.000 C 
ATOM     20  C   UNL     1       1.055   9.218  20.521  0.00  0.00    +0.000 C 
BRANCH  19  22
ATOM     21  C   UNL     1      -1.092  11.322  20.687  0.00  0.00    +0.000 C 
ATOM     22  C   UNL     1      -0.735  10.395  21.822  0.00  0.00    +0.000 C 
ATOM     23  C   UNL     1      -1.123  10.678  23.080  0.00  0.00    +0.000 C 
BRANCH  23  24
ATOM     24  C   UNL     1      -1.939  11.868  23.453  0.00  0.00    +0.000 C 
ATOM     25  O   UNL     1      -3.152  11.892  23.604  0.00  0.00    +0.000 OA
BRANCH  24  26
ATOM     26  O   UNL     1      -1.180  12.974  23.599  0.00  0.00    +0.000 OA
ATOM     27  H   UNL     1      -0.235  12.816  23.734  0.00  0.00    +0.000 HD
ENDBRANCH  24  26
ENDBRANCH  23  24
ENDBRANCH  19  22
ENDBRANCH  18  20
ENDBRANCH  15  18
ENDBRANCH   1  15
TORSDOF 8
ENDMDL
MODEL 6
REMARK VINA RESULT:      -7.8      0.844      1.421
REMARK  Name = 
REMARK  15 active torsions:
REMARK  status: ('A' for Active; 'I' for Inactive)
REMARK    1  A    between atoms: C_1  and  C_2
REMARK    2  A    between atoms: C_2  and  C_3
REMARK    3  A    between atoms: C_4  and  C_5
REMARK    4  A    between atoms: C_5  and  C_6
REMARK    5  A    between atoms: C_6  and  C_7
REMARK    6  A    between atoms: C_9  and  C_10
REMARK    7  A    between atoms: C_10  and  C_11
REMARK    8  A    between atoms: C_10  and  C_12
REMARK    9  A    between atoms: C_10  and  C_13
REMARK   10  A    between atoms: C_15  and  C_16
REMARK   11  A    between atoms: C_16  and  C_17
REMARK   12  A    between atoms: C_16  and  C_18
REMARK   13  A    between atoms: C_16  and  C_19
REMARK   14  A    between atoms: C_23  and  C_24
REMARK   15  A    between atoms: C_24  and  O_26
REMARK                            x       y       z     vdW  Elec       q    Type
REMARK                         _______ _______ _______ _____ _____    ______ ____
ROOT
ATOM      1  C   UNL     1       2.822   6.393  17.907  0.00  0.00    +0.000 A 
ATOM      2  C   UNL     1       2.278   5.126  18.188  0.00  0.00    +0.000 A 
ATOM      3  C   UNL     1       3.090   3.980  18.176  0.00  0.00    +0.000 A 
ATOM      4  C   UNL     1       4.415   4.124  17.699  0.00  0.00    +0.000 A 
ATOM      5  C   UNL     1       4.968   5.366  17.324  0.00  0.00    +0.000 A 
ATOM      6  C   UNL     1       4.111   6.469  17.364  0.00  0.00    +0.000 A 
ENDROOT
BRANCH   3   7
ATOM      7  C   UNL     1       2.631   2.710  18.932  0.00  0.00    +0.000 C 
ATOM      8  C   UNL     1       2.810   2.807  20.463  0.00  0.00    +0.000 C 
ATOM      9  C   UNL     1       1.144   2.364  18.683  0.00  0.00    +0.000 C 
ATOM     10  C   UNL     1       3.464   1.505  18.421  0.00  0.00    +0.000 C 
ENDBRANCH   3   7
BRANCH   5  11
ATOM     11  C   UNL     1       6.470   5.585  17.070  0.00  0.00    +0.000 C 
ATOM     12  C   UNL     1       6.924   7.047  17.279  0.00  0.00    +0.000 C 
ATOM     13  C   UNL     1       7.302   4.687  18.008  0.00  0.00    +0.000 C 
ATOM     14  C   UNL     1       6.832   5.243  15.600  0.00  0.00    +0.000 C 
ENDBRANCH   5  11
BRANCH   1  15
ATOM     15  C   UNL     1       2.226   7.645  18.550  0.00  0.00    +0.000 C 
ATOM     16  C   UNL     1       1.310   8.575  17.776  0.00  0.00    +0.000 C 
ATOM     17  C   UNL     1       2.719   9.001  18.050  0.00  0.00    +0.000 C 
BRANCH  15  18
ATOM     18  C   UNL     1       2.013   7.456  20.091  0.00  0.00    +0.000 C 
BRANCH  18  20
ATOM     19  C   UNL     1       0.152   8.947  21.158  0.00  0.00    +0.000 C 
ATOM     20  C   UNL     1       1.431   8.690  20.789  0.00  0.00    +0.000 C 
BRANCH  19  22
ATOM     21  C   UNL     1      -0.797  10.176  23.183  0.00  0.00    +0.000 C 
ATOM     22  C   UNL     1      -0.293  10.227  21.763  0.00  0.00    +0.000 C 
ATOM     23  C   UNL     1      -0.314  11.384  21.075  0.00  0.00    +0.000 C 
BRANCH  23  24
ATOM     24  C   UNL     1      -0.787  12.680  21.636  0.00  0.00    +0.000 C 
ATOM     25  O   UNL     1      -1.935  13.102  21.614  0.00  0.00    +0.000 OA
BRANCH  24  26
ATOM     26  O   UNL     1       0.222  13.389  22.184  0.00  0.00    +0.000 OA
ATOM     27  H   UNL     1       1.110  13.144  21.890  0.00  0.00    +0.000 HD
ENDBRANCH  24  26
ENDBRANCH  23  24
ENDBRANCH  19  22
ENDBRANCH  18  20
ENDBRANCH  15  18
ENDBRANCH   1  15
TORSDOF 8
ENDMDL
MODEL 7
REMARK VINA RESULT:      -7.8      0.685      1.223
REMARK  Name = 
REMARK  15 active torsions:
REMARK  status: ('A' for Active; 'I' for Inactive)
REMARK    1  A    between atoms: C_1  and  C_2
REMARK    2  A    between atoms: C_2  and  C_3
REMARK    3  A    between atoms: C_4  and  C_5
REMARK    4  A    between atoms: C_5  and  C_6
REMARK    5  A    between atoms: C_6  and  C_7
REMARK    6  A    between atoms: C_9  and  C_10
REMARK    7  A    between atoms: C_10  and  C_11
REMARK    8  A    between atoms: C_10  and  C_12
REMARK    9  A    between atoms: C_10  and  C_13
REMARK   10  A    between atoms: C_15  and  C_16
REMARK   11  A    between atoms: C_16  and  C_17
REMARK   12  A    between atoms: C_16  and  C_18
REMARK   13  A    between atoms: C_16  and  C_19
REMARK   14  A    between atoms: C_23  and  C_24
REMARK   15  A    between atoms: C_24  and  O_26
REMARK                            x       y       z     vdW  Elec       q    Type
REMARK                         _______ _______ _______ _____ _____    ______ ____
ROOT
ATOM      1  C   UNL     1       2.867   6.468  18.089  0.00  0.00    +0.000 A 
ATOM      2  C   UNL     1       2.403   5.269  18.661  0.00  0.00    +0.000 A 
ATOM      3  C   UNL     1       3.267   4.172  18.824  0.00  0.00    +0.000 A 
ATOM      4  C   UNL     1       4.550   4.259  18.232  0.00  0.00    +0.000 A 
ATOM      5  C   UNL     1       5.018   5.414  17.573  0.00  0.00    +0.000 A 
ATOM      6  C   UNL     1       4.113   6.473  17.449  0.00  0.00    +0.000 A 
ENDROOT
BRANCH   3   7
ATOM      7  C   UNL     1       2.918   3.072  19.855  0.00  0.00    +0.000 C 
ATOM      8  C   UNL     1       4.144   2.262  20.328  0.00  0.00    +0.000 C 
ATOM      9  C   UNL     1       2.241   3.631  21.128  0.00  0.00    +0.000 C 
ATOM     10  C   UNL     1       1.909   2.089  19.204  0.00  0.00    +0.000 C 
ENDBRANCH   3   7
BRANCH   5  11
ATOM     11  C   UNL     1       6.488   5.626  17.170  0.00  0.00    +0.000 C 
ATOM     12  C   UNL     1       7.485   4.807  18.020  0.00  0.00    +0.000 C 
ATOM     13  C   UNL     1       6.691   5.242  15.691  0.00  0.00    +0.000 C 
ATOM     14  C   UNL     1       6.899   7.111  17.363  0.00  0.00    +0.000 C 
ENDBRANCH   5  11
BRANCH   1  15
ATOM     15  C   UNL     1       2.255   7.805  18.505  0.00  0.00    +0.000 C 
ATOM     16  C   UNL     1       1.440   8.640  17.534  0.00  0.00    +0.000 C 
ATOM     17  C   UNL     1       2.832   9.073  17.879  0.00  0.00    +0.000 C 
BRANCH  15  18
ATOM     18  C   UNL     1       1.901   7.827  20.032  0.00  0.00    +0.000 C 
BRANCH  18  20
ATOM     19  C   UNL     1       0.322   9.218  21.580  0.00  0.00    +0.000 C 
ATOM     20  C   UNL     1       1.045   9.028  20.448  0.00  0.00    +0.000 C 
BRANCH  19  22
ATOM     21  C   UNL     1      -0.876  11.262  20.630  0.00  0.00    +0.000 C 
ATOM     22  C   UNL     1      -0.531  10.409  21.825  0.00  0.00    +0.000 C 
ATOM     23  C   UNL     1      -0.936  10.767  23.057  0.00  0.00    +0.000 C 
BRANCH  23  24
ATOM     24  C   UNL     1      -1.761  11.974  23.346  0.00  0.00    +0.000 C 
ATOM     25  O   UNL     1      -1.354  13.123  23.430  0.00  0.00    +0.000 OA
BRANCH  24  26
ATOM     26  O   UNL     1      -3.060  11.662  23.533  0.00  0.00    +0.000 OA
ATOM     27  H   UNL     1      -3.697  12.285  23.156  0.00  0.00    +0.000 HD
ENDBRANCH  24  26
ENDBRANCH  23  24
ENDBRANCH  19  22
ENDBRANCH  18  20
ENDBRANCH  15  18
ENDBRANCH   1  15
TORSDOF 8
ENDMDL
MODEL 8
REMARK VINA RESULT:      -7.7      0.718      1.595
REMARK  Name = 
REMARK  15 active torsions:
REMARK  status: ('A' for Active; 'I' for Inactive)
REMARK    1  A    between atoms: C_1  and  C_2
REMARK    2  A    between atoms: C_2  and  C_3
REMARK    3  A    between atoms: C_4  and  C_5
REMARK    4  A    between atoms: C_5  and  C_6
REMARK    5  A    between atoms: C_6  and  C_7
REMARK    6  A    between atoms: C_9  and  C_10
REMARK    7  A    between atoms: C_10  and  C_11
REMARK    8  A    between atoms: C_10  and  C_12
REMARK    9  A    between atoms: C_10  and  C_13
REMARK   10  A    between atoms: C_15  and  C_16
REMARK   11  A    between atoms: C_16  and  C_17
REMARK   12  A    between atoms: C_16  and  C_18
REMARK   13  A    between atoms: C_16  and  C_19
REMARK   14  A    between atoms: C_23  and  C_24
REMARK   15  A    between atoms: C_24  and  O_26
REMARK                            x       y       z     vdW  Elec       q    Type
REMARK                         _______ _______ _______ _____ _____    ______ ____
ROOT
ATOM      1  C   UNL     1       2.852   6.627  18.038  0.00  0.00    +0.000 A 
ATOM      2  C   UNL     1       2.279   5.351  18.198  0.00  0.00    +0.000 A 
ATOM      3  C   UNL     1       3.090   4.207  18.271  0.00  0.00    +0.000 A 
ATOM      4  C   UNL     1       4.470   4.366  17.999  0.00  0.00    +0.000 A 
ATOM      5  C   UNL     1       5.066   5.619  17.747  0.00  0.00    +0.000 A 
ATOM      6  C   UNL     1       4.207   6.720  17.693  0.00  0.00    +0.000 A 
ENDROOT
BRANCH   3   7
ATOM      7  C   UNL     1       2.531   2.914  18.914  0.00  0.00    +0.000 C 
ATOM      8  C   UNL     1       3.168   1.624  18.354  0.00  0.00    +0.000 C 
ATOM      9  C   UNL     1       2.724   2.872  20.448  0.00  0.00    +0.000 C 
ATOM     10  C   UNL     1       1.003   2.855  18.651  0.00  0.00    +0.000 C 
ENDBRANCH   3   7
BRANCH   5  11
ATOM     11  C   UNL     1       6.588   5.847  17.724  0.00  0.00    +0.000 C 
ATOM     12  C   UNL     1       7.261   5.661  19.102  0.00  0.00    +0.000 C 
ATOM     13  C   UNL     1       7.253   4.873  16.731  0.00  0.00    +0.000 C 
ATOM     14  C   UNL     1       6.916   7.302  17.293  0.00  0.00    +0.000 C 
ENDBRANCH   5  11
BRANCH   1  15
ATOM     15  C   UNL     1       2.161   7.858  18.623  0.00  0.00    +0.000 C 
ATOM     16  C   UNL     1       1.168   8.671  17.812  0.00  0.00    +0.000 C 
ATOM     17  C   UNL     1       2.540   9.222  18.049  0.00  0.00    +0.000 C 
BRANCH  15  18
ATOM     18  C   UNL     1       1.975   7.732  20.174  0.00  0.00    +0.000 C 
BRANCH  18  20
ATOM     19  C   UNL     1       1.079   9.825  21.456  0.00  0.00    +0.000 C 
ATOM     20  C   UNL     1       0.916   8.681  20.746  0.00  0.00    +0.000 C 
BRANCH  19  22
ATOM     21  C   UNL     1      -0.790  10.011  23.185  0.00  0.00    +0.000 C 
ATOM     22  C   UNL     1      -0.045  10.614  22.021  0.00  0.00    +0.000 C 
ATOM     23  C   UNL     1      -0.441  11.788  21.494  0.00  0.00    +0.000 C 
BRANCH  23  24
ATOM     24  C   UNL     1      -1.586  12.589  22.009  0.00  0.00    +0.000 C 
ATOM     25  O   UNL     1      -1.591  13.271  23.024  0.00  0.00    +0.000 OA
BRANCH  24  26
ATOM     26  O   UNL     1      -2.676  12.473  21.223  0.00  0.00    +0.000 OA
ATOM     27  H   UNL     1      -3.392  11.930  21.579  0.00  0.00    +0.000 HD
ENDBRANCH  24  26
ENDBRANCH  23  24
ENDBRANCH  19  22
ENDBRANCH  18  20
ENDBRANCH  15  18
ENDBRANCH   1  15
TORSDOF 8
ENDMDL
MODEL 9
REMARK VINA RESULT:      -7.7      0.798      1.377
REMARK  Name = 
REMARK  15 active torsions:
REMARK  status: ('A' for Active; 'I' for Inactive)
REMARK    1  A    between atoms: C_1  and  C_2
REMARK    2  A    between atoms: C_2  and  C_3
REMARK    3  A    between atoms: C_4  and  C_5
REMARK    4  A    between atoms: C_5  and  C_6
REMARK    5  A    between atoms: C_6  and  C_7
REMARK    6  A    between atoms: C_9  and  C_10
REMARK    7  A    between atoms: C_10  and  C_11
REMARK    8  A    between atoms: C_10  and  C_12
REMARK    9  A    between atoms: C_10  and  C_13
REMARK   10  A    between atoms: C_15  and  C_16
REMARK   11  A    between atoms: C_16  and  C_17
REMARK   12  A    between atoms: C_16  and  C_18
REMARK   13  A    between atoms: C_16  and  C_19
REMARK   14  A    between atoms: C_23  and  C_24
REMARK   15  A    between atoms: C_24  and  O_26
REMARK                            x       y       z     vdW  Elec       q    Type
REMARK                         _______ _______ _______ _____ _____    ______ ____
ROOT
ATOM      1  C   UNL     1       2.849   6.380  17.911  0.00  0.00    +0.000 A 
ATOM      2  C   UNL     1       2.305   5.107  18.167  0.00  0.00    +0.000 A 
ATOM      3  C   UNL     1       3.115   3.960  18.122  0.00  0.00    +0.000 A 
ATOM      4  C   UNL     1       4.436   4.113  17.637  0.00  0.00    +0.000 A 
ATOM      5  C   UNL     1       4.988   5.362  17.286  0.00  0.00    +0.000 A 
ATOM      6  C   UNL     1       4.133   6.466  17.359  0.00  0.00    +0.000 A 
ENDROOT
BRANCH   3   7
ATOM      7  C   UNL     1       2.660   2.674  18.853  0.00  0.00    +0.000 C 
ATOM      8  C   UNL     1       1.164   2.348  18.651  0.00  0.00    +0.000 C 
ATOM      9  C   UNL     1       3.449   1.419  18.412  0.00  0.00    +0.000 C 
ATOM     10  C   UNL     1       2.917   2.855  20.373  0.00  0.00    +0.000 C 
ENDBRANCH   3   7
BRANCH   5  11
ATOM     11  C   UNL     1       6.488   5.585  17.024  0.00  0.00    +0.000 C 
ATOM     12  C   UNL     1       6.927   5.208  15.592  0.00  0.00    +0.000 C 
ATOM     13  C   UNL     1       6.852   7.064  17.263  0.00  0.00    +0.000 C 
ATOM     14  C   UNL     1       7.346   4.700  17.969  0.00  0.00    +0.000 C 
ENDBRANCH   5  11
BRANCH   1  15
ATOM     15  C   UNL     1       2.260   7.617  18.587  0.00  0.00    +0.000 C 
ATOM     16  C   UNL     1       1.301   8.539  17.858  0.00  0.00    +0.000 C 
ATOM     17  C   UNL     1       2.713   8.985  18.079  0.00  0.00    +0.000 C 
BRANCH  15  18
ATOM     18  C   UNL     1       2.112   7.413  20.134  0.00  0.00    +0.000 C 
BRANCH  18  20
ATOM     19  C   UNL     1       0.120   8.844  21.034  0.00  0.00    +0.000 C 
ATOM     20  C   UNL     1       1.440   8.590  20.850  0.00  0.00    +0.000 C 
BRANCH  19  22
ATOM     21  C   UNL     1      -0.572  10.035  23.183  0.00  0.00    +0.000 C 
ATOM     22  C   UNL     1      -0.401  10.073  21.685  0.00  0.00    +0.000 C 
ATOM     23  C   UNL     1      -0.771  11.161  20.985  0.00  0.00    +0.000 C 
BRANCH  23  24
ATOM     24  C   UNL     1      -1.332  12.397  21.600  0.00  0.00    +0.000 C 
ATOM     25  O   UNL     1      -2.516  12.635  21.793  0.00  0.00    +0.000 OA
BRANCH  24  26
ATOM     26  O   UNL     1      -0.365  13.281  21.924  0.00  0.00    +0.000 OA
ATOM     27  H   UNL     1      -0.365  14.103  21.416  0.00  0.00    +0.000 HD
ENDBRANCH  24  26
ENDBRANCH  23  24
ENDBRANCH  19  22
ENDBRANCH  18  20
ENDBRANCH  15  18
ENDBRANCH   1  15
TORSDOF 8
ENDMDL
