MODEL 1
REMARK VINA RESULT:      -7.4      0.000      0.000
REMARK  Name = 
REMARK  2 active torsions:
REMARK  status: ('A' for Active; 'I' for Inactive)
REMARK    1  A    between atoms: N_2  and  C_4
REMARK    2  A    between atoms: C_9  and  C_10
REMARK                            x       y       z     vdW  Elec       q    Type
REMARK                         _______ _______ _______ _____ _____    ______ ____
ROOT
ATOM      1  C   UNL     1       3.221   2.726  20.014  0.00  0.00    +0.000 A 
ATOM      2  C   UNL     1       2.348   2.500  21.095  0.00  0.00    +0.000 A 
ATOM      3  C   UNL     1       1.322   3.403  21.346  0.00  0.00    +0.000 A 
ATOM      4  C   UNL     1       1.176   4.516  20.526  0.00  0.00    +0.000 A 
ATOM      5  C   UNL     1       2.060   4.738  19.459  0.00  0.00    +0.000 A 
ATOM      6  C   UNL     1       3.114   3.846  19.169  0.00  0.00    +0.000 A 
ENDROOT
BRANCH   6   7
ATOM      7  C   UNL     1       4.062   4.154  18.073  0.00  0.00    +0.000 A 
ATOM      8  C   UNL     1       3.994   3.808  16.736  0.00  0.00    +0.000 A 
ATOM      9  C   UNL     1       5.109   4.259  15.956  0.00  0.00    +0.000 A 
ATOM     10  C   UNL     1       5.379   4.102  14.576  0.00  0.00    +0.000 A 
ATOM     11  C   UNL     1       6.570   4.583  14.031  0.00  0.00    +0.000 A 
ATOM     12  C   UNL     1       7.496   5.230  14.837  0.00  0.00    +0.000 A 
ATOM     13  C   UNL     1       7.243   5.423  16.199  0.00  0.00    +0.000 A 
ATOM     14  C   UNL     1       6.039   4.933  16.745  0.00  0.00    +0.000 A 
ATOM     15  S   UNL     1       5.496   5.054  18.372  0.00  0.00    +0.000 S 
ENDBRANCH   6   7
BRANCH   1  17
ATOM     16  O   UNL     1       5.194   1.727  20.614  0.00  0.00    +0.000 OA
ATOM     17  N   UNL     1       4.248   1.723  19.813  0.00  0.00    +0.000 N 
ATOM     18  O   UNL     1       4.095   0.924  18.882  0.00  0.00    +0.000 OA
ENDBRANCH   1  17
TORSDOF 2
ENDMDL
MODEL 2
REMARK VINA RESULT:      -7.3      2.239      6.102
REMARK  Name = 
REMARK  2 active torsions:
REMARK  status: ('A' for Active; 'I' for Inactive)
REMARK    1  A    between atoms: N_2  and  C_4
REMARK    2  A    between atoms: C_9  and  C_10
REMARK                            x       y       z     vdW  Elec       q    Type
REMARK                         _______ _______ _______ _____ _____    ______ ____
ROOT
ATOM      1  C   UNL     1       6.693   4.923  16.547  0.00  0.00    +0.000 A 
ATOM      2  C   UNL     1       7.525   5.075  15.421  0.00  0.00    +0.000 A 
ATOM      3  C   UNL     1       7.040   4.747  14.161  0.00  0.00    +0.000 A 
ATOM      4  C   UNL     1       5.739   4.272  14.033  0.00  0.00    +0.000 A 
ATOM      5  C   UNL     1       4.923   4.113  15.163  0.00  0.00    +0.000 A 
ATOM      6  C   UNL     1       5.376   4.435  16.459  0.00  0.00    +0.000 A 
ENDROOT
BRANCH   6   7
ATOM      7  C   UNL     1       4.502   4.188  17.630  0.00  0.00    +0.000 A 
ATOM      8  C   UNL     1       4.628   3.240  18.630  0.00  0.00    +0.000 A 
ATOM      9  C   UNL     1       3.578   3.272  19.603  0.00  0.00    +0.000 A 
ATOM     10  C   UNL     1       3.377   2.473  20.754  0.00  0.00    +0.000 A 
ATOM     11  C   UNL     1       2.238   2.645  21.543  0.00  0.00    +0.000 A 
ATOM     12  C   UNL     1       1.297   3.609  21.210  0.00  0.00    +0.000 A 
ATOM     13  C   UNL     1       1.484   4.431  20.094  0.00  0.00    +0.000 A 
ATOM     14  C   UNL     1       2.634   4.251  19.300  0.00  0.00    +0.000 A 
ATOM     15  S   UNL     1       3.093   5.135  17.897  0.00  0.00    +0.000 S 
ENDBRANCH   6   7
BRANCH   1  17
ATOM     16  O   UNL     1       7.943   4.448  18.408  0.00  0.00    +0.000 OA
ATOM     17  N   UNL     1       7.274   5.309  17.817  0.00  0.00    +0.000 N 
ATOM     18  O   UNL     1       7.086   6.468  18.205  0.00  0.00    +0.000 OA
ENDBRANCH   1  17
TORSDOF 2
ENDMDL
MODEL 3
REMARK VINA RESULT:      -7.2      2.267      6.118
REMARK  Name = 
REMARK  2 active torsions:
REMARK  status: ('A' for Active; 'I' for Inactive)
REMARK    1  A    between atoms: N_2  and  C_4
REMARK    2  A    between atoms: C_9  and  C_10
REMARK                            x       y       z     vdW  Elec       q    Type
REMARK                         _______ _______ _______ _____ _____    ______ ____
ROOT
ATOM      1  C   UNL     1       6.556   4.878  16.289  0.00  0.00    +0.000 A 
ATOM      2  C   UNL     1       7.501   5.006  15.252  0.00  0.00    +0.000 A 
ATOM      3  C   UNL     1       7.146   4.655  13.956  0.00  0.00    +0.000 A 
ATOM      4  C   UNL     1       5.864   4.181  13.703  0.00  0.00    +0.000 A 
ATOM      5  C   UNL     1       4.935   4.045  14.746  0.00  0.00    +0.000 A 
ATOM      6  C   UNL     1       5.254   4.391  16.076  0.00  0.00    +0.000 A 
ENDROOT
BRANCH   6   7
ATOM      7  C   UNL     1       4.263   4.169  17.155  0.00  0.00    +0.000 A 
ATOM      8  C   UNL     1       3.536   5.098  17.877  0.00  0.00    +0.000 A 
ATOM      9  C   UNL     1       2.677   4.526  18.872  0.00  0.00    +0.000 A 
ATOM     10  C   UNL     1       1.794   5.151  19.783  0.00  0.00    +0.000 A 
ATOM     11  C   UNL     1       1.084   4.390  20.713  0.00  0.00    +0.000 A 
ATOM     12  C   UNL     1       1.232   3.011  20.746  0.00  0.00    +0.000 A 
ATOM     13  C   UNL     1       2.078   2.364  19.839  0.00  0.00    +0.000 A 
ATOM     14  C   UNL     1       2.794   3.137  18.904  0.00  0.00    +0.000 A 
ATOM     15  S   UNL     1       3.877   2.582  17.688  0.00  0.00    +0.000 S 
ENDBRANCH   6   7
BRANCH   1  17
ATOM     16  O   UNL     1       7.598   4.434  18.281  0.00  0.00    +0.000 OA
ATOM     17  N   UNL     1       7.005   5.287  17.605  0.00  0.00    +0.000 N 
ATOM     18  O   UNL     1       6.792   6.457  17.945  0.00  0.00    +0.000 OA
ENDBRANCH   1  17
TORSDOF 2
ENDMDL
MODEL 4
REMARK VINA RESULT:      -7.2      3.462      6.163
REMARK  Name = 
REMARK  2 active torsions:
REMARK  status: ('A' for Active; 'I' for Inactive)
REMARK    1  A    between atoms: N_2  and  C_4
REMARK    2  A    between atoms: C_9  and  C_10
REMARK                            x       y       z     vdW  Elec       q    Type
REMARK                         _______ _______ _______ _____ _____    ______ ____
ROOT
ATOM      1  C   UNL     1       6.017   6.720  17.463  0.00  0.00    +0.000 A 
ATOM      2  C   UNL     1       7.194   7.485  17.352  0.00  0.00    +0.000 A 
ATOM      3  C   UNL     1       8.243   7.261  18.235  0.00  0.00    +0.000 A 
ATOM      4  C   UNL     1       8.112   6.285  19.216  0.00  0.00    +0.000 A 
ATOM      5  C   UNL     1       6.930   5.537  19.326  0.00  0.00    +0.000 A 
ATOM      6  C   UNL     1       5.842   5.732  18.449  0.00  0.00    +0.000 A 
ENDROOT
BRANCH   6   7
ATOM      7  C   UNL     1       4.589   4.965  18.644  0.00  0.00    +0.000 A 
ATOM      8  C   UNL     1       3.613   5.120  19.612  0.00  0.00    +0.000 A 
ATOM      9  C   UNL     1       2.537   4.179  19.514  0.00  0.00    +0.000 A 
ATOM     10  C   UNL     1       1.376   4.035  20.309  0.00  0.00    +0.000 A 
ATOM     11  C   UNL     1       0.473   2.999  20.062  0.00  0.00    +0.000 A 
ATOM     12  C   UNL     1       0.703   2.105  19.025  0.00  0.00    +0.000 A 
ATOM     13  C   UNL     1       1.829   2.241  18.205  0.00  0.00    +0.000 A 
ATOM     14  C   UNL     1       2.737   3.287  18.461  0.00  0.00    +0.000 A 
ATOM     15  S   UNL     1       4.175   3.668  17.597  0.00  0.00    +0.000 S 
ENDBRANCH   6   7
BRANCH   1  17
ATOM     16  O   UNL     1       3.943   7.525  16.915  0.00  0.00    +0.000 OA
ATOM     17  N   UNL     1       4.984   7.006  16.488  0.00  0.00    +0.000 N 
ATOM     18  O   UNL     1       5.224   6.741  15.304  0.00  0.00    +0.000 OA
ENDBRANCH   1  17
TORSDOF 2
ENDMDL
MODEL 5
REMARK VINA RESULT:      -7.0      3.568      6.452
REMARK  Name = 
REMARK  2 active torsions:
REMARK  status: ('A' for Active; 'I' for Inactive)
REMARK    1  A    between atoms: N_2  and  C_4
REMARK    2  A    between atoms: C_9  and  C_10
REMARK                            x       y       z     vdW  Elec       q    Type
REMARK                         _______ _______ _______ _____ _____    ______ ____
ROOT
ATOM      1  C   UNL     1       3.353   4.790  17.509  0.00  0.00    +0.000 A 
ATOM      2  C   UNL     1       4.148   3.954  16.701  0.00  0.00    +0.000 A 
ATOM      3  C   UNL     1       5.304   4.461  16.121  0.00  0.00    +0.000 A 
ATOM      4  C   UNL     1       5.656   5.787  16.346  0.00  0.00    +0.000 A 
ATOM      5  C   UNL     1       4.850   6.614  17.142  0.00  0.00    +0.000 A 
ATOM      6  C   UNL     1       3.670   6.139  17.751  0.00  0.00    +0.000 A 
ENDROOT
BRANCH   6   7
ATOM      7  C   UNL     1       2.816   7.067  18.530  0.00  0.00    +0.000 A 
ATOM      8  C   UNL     1       2.379   6.961  19.838  0.00  0.00    +0.000 A 
ATOM      9  C   UNL     1       1.539   8.040  20.264  0.00  0.00    +0.000 A 
ATOM     10  C   UNL     1       0.920   8.275  21.515  0.00  0.00    +0.000 A 
ATOM     11  C   UNL     1       0.087   9.382  21.694  0.00  0.00    +0.000 A 
ATOM     12  C   UNL     1      -0.132  10.267  20.649  0.00  0.00    +0.000 A 
ATOM     13  C   UNL     1       0.489  10.075  19.410  0.00  0.00    +0.000 A 
ATOM     14  C   UNL     1       1.326   8.955  19.234  0.00  0.00    +0.000 A 
ATOM     15  S   UNL     1       2.205   8.510  17.824  0.00  0.00    +0.000 S 
ENDBRANCH   6   7
BRANCH   1  17
ATOM     16  O   UNL     1       1.122   4.270  17.448  0.00  0.00    +0.000 OA
ATOM     17  N   UNL     1       2.178   4.173  18.091  0.00  0.00    +0.000 N 
ATOM     18  O   UNL     1       2.316   3.574  19.164  0.00  0.00    +0.000 OA
ENDBRANCH   1  17
TORSDOF 2
ENDMDL
MODEL 6
REMARK VINA RESULT:      -7.0      3.413      6.040
REMARK  Name = 
REMARK  2 active torsions:
REMARK  status: ('A' for Active; 'I' for Inactive)
REMARK    1  A    between atoms: N_2  and  C_4
REMARK    2  A    between atoms: C_9  and  C_10
REMARK                            x       y       z     vdW  Elec       q    Type
REMARK                         _______ _______ _______ _____ _____    ______ ____
ROOT
ATOM      1  C   UNL     1       5.977   6.728  17.435  0.00  0.00    +0.000 A 
ATOM      2  C   UNL     1       7.138   7.514  17.300  0.00  0.00    +0.000 A 
ATOM      3  C   UNL     1       8.208   7.308  18.162  0.00  0.00    +0.000 A 
ATOM      4  C   UNL     1       8.113   6.330  19.146  0.00  0.00    +0.000 A 
ATOM      5  C   UNL     1       6.946   5.563  19.279  0.00  0.00    +0.000 A 
ATOM      6  C   UNL     1       5.839   5.739  18.424  0.00  0.00    +0.000 A 
ENDROOT
BRANCH   6   7
ATOM      7  C   UNL     1       4.603   4.950  18.644  0.00  0.00    +0.000 A 
ATOM      8  C   UNL     1       4.177   3.799  18.007  0.00  0.00    +0.000 A 
ATOM      9  C   UNL     1       2.907   3.314  18.461  0.00  0.00    +0.000 A 
ATOM     10  C   UNL     1       2.167   2.178  18.055  0.00  0.00    +0.000 A 
ATOM     11  C   UNL     1       0.909   1.922  18.604  0.00  0.00    +0.000 A 
ATOM     12  C   UNL     1       0.377   2.775  19.561  0.00  0.00    +0.000 A 
ATOM     13  C   UNL     1       1.100   3.890  20.001  0.00  0.00    +0.000 A 
ATOM     14  C   UNL     1       2.368   4.144  19.442  0.00  0.00    +0.000 A 
ATOM     15  S   UNL     1       3.446   5.430  19.821  0.00  0.00    +0.000 S 
ENDBRANCH   6   7
BRANCH   1  17
ATOM     16  O   UNL     1       5.139   6.681  15.302  0.00  0.00    +0.000 OA
ATOM     17  N   UNL     1       4.920   6.997  16.480  0.00  0.00    +0.000 N 
ATOM     18  O   UNL     1       3.872   7.493  16.911  0.00  0.00    +0.000 OA
ENDBRANCH   1  17
TORSDOF 2
ENDMDL
MODEL 7
REMARK VINA RESULT:      -7.0      2.616      6.199
REMARK  Name = 
REMARK  2 active torsions:
REMARK  status: ('A' for Active; 'I' for Inactive)
REMARK    1  A    between atoms: N_2  and  C_4
REMARK    2  A    between atoms: C_9  and  C_10
REMARK                            x       y       z     vdW  Elec       q    Type
REMARK                         _______ _______ _______ _____ _____    ______ ____
ROOT
ATOM      1  C   UNL     1       6.715   5.190  15.744  0.00  0.00    +0.000 A 
ATOM      2  C   UNL     1       7.501   5.133  14.577  0.00  0.00    +0.000 A 
ATOM      3  C   UNL     1       7.001   4.500  13.446  0.00  0.00    +0.000 A 
ATOM      4  C   UNL     1       5.733   3.931  13.486  0.00  0.00    +0.000 A 
ATOM      5  C   UNL     1       4.965   3.982  14.659  0.00  0.00    +0.000 A 
ATOM      6  C   UNL     1       5.434   4.616  15.828  0.00  0.00    +0.000 A 
ENDROOT
BRANCH   6   7
ATOM      7  C   UNL     1       4.615   4.588  17.063  0.00  0.00    +0.000 A 
ATOM      8  C   UNL     1       4.296   3.515  17.875  0.00  0.00    +0.000 A 
ATOM      9  C   UNL     1       3.455   3.850  18.986  0.00  0.00    +0.000 A 
ATOM     10  C   UNL     1       2.937   3.031  20.017  0.00  0.00    +0.000 A 
ATOM     11  C   UNL     1       2.082   3.567  20.982  0.00  0.00    +0.000 A 
ATOM     12  C   UNL     1       1.740   4.911  20.944  0.00  0.00    +0.000 A 
ATOM     13  C   UNL     1       2.260   5.750  19.952  0.00  0.00    +0.000 A 
ATOM     14  C   UNL     1       3.121   5.203  18.979  0.00  0.00    +0.000 A 
ATOM     15  S   UNL     1       3.892   6.021  17.677  0.00  0.00    +0.000 S 
ENDBRANCH   6   7
BRANCH   1  17
ATOM     16  O   UNL     1       7.823   5.186  17.750  0.00  0.00    +0.000 OA
ATOM     17  N   UNL     1       7.307   5.888  16.869  0.00  0.00    +0.000 N 
ATOM     18  O   UNL     1       7.279   7.124  16.855  0.00  0.00    +0.000 OA
ENDBRANCH   1  17
TORSDOF 2
ENDMDL
MODEL 8
REMARK VINA RESULT:      -6.9      2.155      6.027
REMARK  Name = 
REMARK  2 active torsions:
REMARK  status: ('A' for Active; 'I' for Inactive)
REMARK    1  A    between atoms: N_2  and  C_4
REMARK    2  A    between atoms: C_9  and  C_10
REMARK                            x       y       z     vdW  Elec       q    Type
REMARK                         _______ _______ _______ _____ _____    ______ ____
ROOT
ATOM      1  C   UNL     1       6.579   4.823  16.546  0.00  0.00    +0.000 A 
ATOM      2  C   UNL     1       7.464   5.018  15.468  0.00  0.00    +0.000 A 
ATOM      3  C   UNL     1       7.051   4.706  14.179  0.00  0.00    +0.000 A 
ATOM      4  C   UNL     1       5.770   4.205  13.975  0.00  0.00    +0.000 A 
ATOM      5  C   UNL     1       4.902   4.002  15.058  0.00  0.00    +0.000 A 
ATOM      6  C   UNL     1       5.281   4.307  16.382  0.00  0.00    +0.000 A 
ENDROOT
BRANCH   6   7
ATOM      7  C   UNL     1       4.355   4.015  17.501  0.00  0.00    +0.000 A 
ATOM      8  C   UNL     1       3.091   4.521  17.743  0.00  0.00    +0.000 A 
ATOM      9  C   UNL     1       2.484   4.032  18.945  0.00  0.00    +0.000 A 
ATOM     10  C   UNL     1       1.216   4.315  19.507  0.00  0.00    +0.000 A 
ATOM     11  C   UNL     1       0.847   3.759  20.734  0.00  0.00    +0.000 A 
ATOM     12  C   UNL     1       1.718   2.914  21.408  0.00  0.00    +0.000 A 
ATOM     13  C   UNL     1       2.966   2.595  20.862  0.00  0.00    +0.000 A 
ATOM     14  C   UNL     1       3.334   3.162  19.625  0.00  0.00    +0.000 A 
ATOM     15  S   UNL     1       4.794   2.918  18.750  0.00  0.00    +0.000 S 
ENDBRANCH   6   7
BRANCH   1  17
ATOM     16  O   UNL     1       6.606   6.215  18.367  0.00  0.00    +0.000 OA
ATOM     17  N   UNL     1       7.086   5.194  17.852  0.00  0.00    +0.000 N 
ATOM     18  O   UNL     1       7.934   4.457  18.368  0.00  0.00    +0.000 OA
ENDBRANCH   1  17
TORSDOF 2
ENDMDL
MODEL 9
REMARK VINA RESULT:      -6.8      2.281      2.543
REMARK  Name = 
REMARK  2 active torsions:
REMARK  status: ('A' for Active; 'I' for Inactive)
REMARK    1  A    between atoms: N_2  and  C_4
REMARK    2  A    between atoms: C_9  and  C_10
REMARK                            x       y       z     vdW  Elec       q    Type
REMARK                         _______ _______ _______ _____ _____    ______ ____
ROOT
ATOM      1  C   UNL     1       2.533   4.779  19.832  0.00  0.00    +0.000 A 
ATOM      2  C   UNL     1       1.710   4.498  20.939  0.00  0.00    +0.000 A 
ATOM      3  C   UNL     1       1.896   3.317  21.648  0.00  0.00    +0.000 A 
ATOM      4  C   UNL     1       2.892   2.432  21.251  0.00  0.00    +0.000 A 
ATOM      5  C   UNL     1       3.698   2.717  20.138  0.00  0.00    +0.000 A 
ATOM      6  C   UNL     1       3.543   3.904  19.392  0.00  0.00    +0.000 A 
ENDROOT
BRANCH   6   7
ATOM      7  C   UNL     1       4.372   4.132  18.185  0.00  0.00    +0.000 A 
ATOM      8  C   UNL     1       4.130   3.759  16.876  0.00  0.00    +0.000 A 
ATOM      9  C   UNL     1       5.168   4.126  15.959  0.00  0.00    +0.000 A 
ATOM     10  C   UNL     1       5.266   3.922  14.563  0.00  0.00    +0.000 A 
ATOM     11  C   UNL     1       6.410   4.322  13.869  0.00  0.00    +0.000 A 
ATOM     12  C   UNL     1       7.459   4.932  14.544  0.00  0.00    +0.000 A 
ATOM     13  C   UNL     1       7.377   5.170  15.920  0.00  0.00    +0.000 A 
ATOM     14  C   UNL     1       6.220   4.763  16.615  0.00  0.00    +0.000 A 
ATOM     15  S   UNL     1       5.878   4.954  18.290  0.00  0.00    +0.000 S 
ENDBRANCH   6   7
BRANCH   1  17
ATOM     16  O   UNL     1       2.608   7.069  19.776  0.00  0.00    +0.000 OA
ATOM     17  N   UNL     1       2.282   6.041  19.164  0.00  0.00    +0.000 N 
ATOM     18  O   UNL     1       1.791   6.002  18.030  0.00  0.00    +0.000 OA
ENDBRANCH   1  17
TORSDOF 2
ENDMDL
