MODEL 1
REMARK VINA RESULT:      -7.0      0.000      0.000
REMARK  Name = 
REMARK  1 active torsions:
REMARK  status: ('A' for Active; 'I' for Inactive)
REMARK    1  A    between atoms: N_8  and  C_9
REMARK                            x       y       z     vdW  Elec       q    Type
REMARK                         _______ _______ _______ _____ _____    ______ ____
ROOT
ATOM      1  O   UNL     1       4.212   1.928  19.699  0.00  0.00    +0.000 OA
ATOM      2  C   UNL     1       3.574   2.947  19.974  0.00  0.00    +0.000 C 
ATOM      3  C   UNL     1       2.588   2.900  21.114  0.00  0.00    +0.000 C 
ATOM      4  C   UNL     1       1.390   3.773  20.827  0.00  0.00    +0.000 C 
ATOM      5  C   UNL     1       1.869   5.194  20.650  0.00  0.00    +0.000 C 
ATOM      6  C   UNL     1       2.926   5.316  19.578  0.00  0.00    +0.000 C 
ATOM      7  O   UNL     1       3.119   6.428  19.074  0.00  0.00    +0.000 OA
ATOM      8  N   UNL     1       3.700   4.175  19.309  0.00  0.00    +0.000 N 
ENDROOT
BRANCH   8   9
ATOM      9  C   UNL     1       4.687   4.277  18.279  0.00  0.00    +0.000 A 
ATOM     10  C   UNL     1       6.008   4.640  18.590  0.00  0.00    +0.000 A 
ATOM     11  C   UNL     1       6.967   4.748  17.578  0.00  0.00    +0.000 A 
ATOM     12  C   UNL     1       6.616   4.459  16.265  0.00  0.00    +0.000 A 
ATOM     13  F   UNL     1       7.541   4.542  15.301  0.00  0.00    +0.000 F 
ATOM     14  C   UNL     1       5.319   4.082  15.940  0.00  0.00    +0.000 A 
ATOM     15  C   UNL     1       4.350   4.011  16.943  0.00  0.00    +0.000 A 
ENDBRANCH   8   9
TORSDOF 1
ENDMDL
MODEL 2
REMARK VINA RESULT:      -7.0      0.033      1.249
REMARK  Name = 
REMARK  1 active torsions:
REMARK  status: ('A' for Active; 'I' for Inactive)
REMARK    1  A    between atoms: N_8  and  C_9
REMARK                            x       y       z     vdW  Elec       q    Type
REMARK                         _______ _______ _______ _____ _____    ______ ____
ROOT
ATOM      1  O   UNL     1       4.193   1.933  19.682  0.00  0.00    +0.000 OA
ATOM      2  C   UNL     1       3.565   2.959  19.952  0.00  0.00    +0.000 C 
ATOM      3  C   UNL     1       2.578   2.926  21.092  0.00  0.00    +0.000 C 
ATOM      4  C   UNL     1       1.389   3.810  20.801  0.00  0.00    +0.000 C 
ATOM      5  C   UNL     1       1.883   5.225  20.620  0.00  0.00    +0.000 C 
ATOM      6  C   UNL     1       2.941   5.333  19.548  0.00  0.00    +0.000 C 
ATOM      7  O   UNL     1       3.146   6.441  19.040  0.00  0.00    +0.000 OA
ATOM      8  N   UNL     1       3.704   4.183  19.284  0.00  0.00    +0.000 N 
ENDROOT
BRANCH   8   9
ATOM      9  C   UNL     1       4.693   4.272  18.253  0.00  0.00    +0.000 A 
ATOM     10  C   UNL     1       4.356   4.004  16.916  0.00  0.00    +0.000 A 
ATOM     11  C   UNL     1       5.328   4.084  15.914  0.00  0.00    +0.000 A 
ATOM     12  C   UNL     1       6.623   4.466  16.242  0.00  0.00    +0.000 A 
ATOM     13  F   UNL     1       7.547   4.563  15.278  0.00  0.00    +0.000 F 
ATOM     14  C   UNL     1       6.971   4.752  17.556  0.00  0.00    +0.000 A 
ATOM     15  C   UNL     1       6.012   4.635  18.564  0.00  0.00    +0.000 A 
ENDBRANCH   8   9
TORSDOF 1
ENDMDL
MODEL 3
REMARK VINA RESULT:      -7.0      3.016      5.025
REMARK  Name = 
REMARK  1 active torsions:
REMARK  status: ('A' for Active; 'I' for Inactive)
REMARK    1  A    between atoms: N_8  and  C_9
REMARK                            x       y       z     vdW  Elec       q    Type
REMARK                         _______ _______ _______ _____ _____    ______ ____
ROOT
ATOM      1  O   UNL     1       5.472   5.232  19.844  0.00  0.00    +0.000 OA
ATOM      2  C   UNL     1       5.885   5.212  18.683  0.00  0.00    +0.000 C 
ATOM      3  C   UNL     1       7.245   5.791  18.385  0.00  0.00    +0.000 C 
ATOM      4  C   UNL     1       7.267   6.447  17.026  0.00  0.00    +0.000 C 
ATOM      5  C   UNL     1       6.942   5.400  15.988  0.00  0.00    +0.000 C 
ATOM      6  C   UNL     1       5.628   4.707  16.260  0.00  0.00    +0.000 C 
ATOM      7  O   UNL     1       5.069   4.129  15.322  0.00  0.00    +0.000 OA
ATOM      8  N   UNL     1       5.187   4.672  17.593  0.00  0.00    +0.000 N 
ENDROOT
BRANCH   8   9
ATOM      9  C   UNL     1       3.931   4.037  17.854  0.00  0.00    +0.000 A 
ATOM     10  C   UNL     1       2.732   4.765  17.766  0.00  0.00    +0.000 A 
ATOM     11  C   UNL     1       1.509   4.143  18.030  0.00  0.00    +0.000 A 
ATOM     12  C   UNL     1       1.479   2.790  18.346  0.00  0.00    +0.000 A 
ATOM     13  F   UNL     1       0.304   2.192  18.578  0.00  0.00    +0.000 F 
ATOM     14  C   UNL     1       2.653   2.050  18.422  0.00  0.00    +0.000 A 
ATOM     15  C   UNL     1       3.879   2.678  18.196  0.00  0.00    +0.000 A 
ENDBRANCH   8   9
TORSDOF 1
ENDMDL
MODEL 4
REMARK VINA RESULT:      -6.9      1.733      2.454
REMARK  Name = 
REMARK  1 active torsions:
REMARK  status: ('A' for Active; 'I' for Inactive)
REMARK    1  A    between atoms: N_8  and  C_9
REMARK                            x       y       z     vdW  Elec       q    Type
REMARK                         _______ _______ _______ _____ _____    ______ ____
ROOT
ATOM      1  O   UNL     1       1.075   4.107  17.432  0.00  0.00    +0.000 OA
ATOM      2  C   UNL     1       1.639   3.659  18.432  0.00  0.00    +0.000 C 
ATOM      3  C   UNL     1       0.807   2.976  19.489  0.00  0.00    +0.000 C 
ATOM      4  C   UNL     1       1.363   3.240  20.867  0.00  0.00    +0.000 C 
ATOM      5  C   UNL     1       2.771   2.697  20.924  0.00  0.00    +0.000 C 
ATOM      6  C   UNL     1       3.653   3.270  19.840  0.00  0.00    +0.000 C 
ATOM      7  O   UNL     1       4.878   3.219  19.998  0.00  0.00    +0.000 OA
ATOM      8  N   UNL     1       3.019   3.721  18.670  0.00  0.00    +0.000 N 
ENDROOT
BRANCH   8   9
ATOM      9  C   UNL     1       3.847   4.287  17.650  0.00  0.00    +0.000 A 
ATOM     10  C   UNL     1       4.459   3.464  16.690  0.00  0.00    +0.000 A 
ATOM     11  C   UNL     1       5.275   4.020  15.700  0.00  0.00    +0.000 A 
ATOM     12  C   UNL     1       5.448   5.398  15.647  0.00  0.00    +0.000 A 
ATOM     13  F   UNL     1       6.212   5.930  14.686  0.00  0.00    +0.000 F 
ATOM     14  C   UNL     1       4.838   6.230  16.577  0.00  0.00    +0.000 A 
ATOM     15  C   UNL     1       4.054   5.673  17.590  0.00  0.00    +0.000 A 
ENDBRANCH   8   9
TORSDOF 1
ENDMDL
MODEL 5
REMARK VINA RESULT:      -6.9      1.729      2.338
REMARK  Name = 
REMARK  1 active torsions:
REMARK  status: ('A' for Active; 'I' for Inactive)
REMARK    1  A    between atoms: N_8  and  C_9
REMARK                            x       y       z     vdW  Elec       q    Type
REMARK                         _______ _______ _______ _____ _____    ______ ____
ROOT
ATOM      1  O   UNL     1       1.060   4.145  17.418  0.00  0.00    +0.000 OA
ATOM      2  C   UNL     1       1.625   3.687  18.413  0.00  0.00    +0.000 C 
ATOM      3  C   UNL     1       0.793   3.000  19.468  0.00  0.00    +0.000 C 
ATOM      4  C   UNL     1       1.356   3.251  20.846  0.00  0.00    +0.000 C 
ATOM      5  C   UNL     1       2.760   2.700  20.893  0.00  0.00    +0.000 C 
ATOM      6  C   UNL     1       3.642   3.276  19.811  0.00  0.00    +0.000 C 
ATOM      7  O   UNL     1       4.867   3.216  19.963  0.00  0.00    +0.000 OA
ATOM      8  N   UNL     1       3.006   3.739  18.647  0.00  0.00    +0.000 N 
ENDROOT
BRANCH   8   9
ATOM      9  C   UNL     1       3.834   4.307  17.627  0.00  0.00    +0.000 A 
ATOM     10  C   UNL     1       4.049   5.695  17.573  0.00  0.00    +0.000 A 
ATOM     11  C   UNL     1       4.851   6.245  16.569  0.00  0.00    +0.000 A 
ATOM     12  C   UNL     1       5.466   5.410  15.645  0.00  0.00    +0.000 A 
ATOM     13  F   UNL     1       6.251   5.938  14.698  0.00  0.00    +0.000 F 
ATOM     14  C   UNL     1       5.280   4.034  15.693  0.00  0.00    +0.000 A 
ATOM     15  C   UNL     1       4.448   3.485  16.670  0.00  0.00    +0.000 A 
ENDBRANCH   8   9
TORSDOF 1
ENDMDL
MODEL 6
REMARK VINA RESULT:      -6.9      3.019      4.976
REMARK  Name = 
REMARK  1 active torsions:
REMARK  status: ('A' for Active; 'I' for Inactive)
REMARK    1  A    between atoms: N_8  and  C_9
REMARK                            x       y       z     vdW  Elec       q    Type
REMARK                         _______ _______ _______ _____ _____    ______ ____
ROOT
ATOM      1  O   UNL     1       5.629   4.908  19.862  0.00  0.00    +0.000 OA
ATOM      2  C   UNL     1       5.988   4.999  18.686  0.00  0.00    +0.000 C 
ATOM      3  C   UNL     1       7.352   5.566  18.386  0.00  0.00    +0.000 C 
ATOM      4  C   UNL     1       7.335   6.362  17.103  0.00  0.00    +0.000 C 
ATOM      5  C   UNL     1       6.928   5.442  15.978  0.00  0.00    +0.000 C 
ATOM      6  C   UNL     1       5.604   4.763  16.239  0.00  0.00    +0.000 C 
ATOM      7  O   UNL     1       4.983   4.305  15.274  0.00  0.00    +0.000 OA
ATOM      8  N   UNL     1       5.223   4.599  17.582  0.00  0.00    +0.000 N 
ENDROOT
BRANCH   8   9
ATOM      9  C   UNL     1       3.959   3.977  17.835  0.00  0.00    +0.000 A 
ATOM     10  C   UNL     1       3.879   2.595  18.073  0.00  0.00    +0.000 A 
ATOM     11  C   UNL     1       2.640   1.992  18.311  0.00  0.00    +0.000 A 
ATOM     12  C   UNL     1       1.491   2.772  18.348  0.00  0.00    +0.000 A 
ATOM     13  F   UNL     1       0.309   2.195  18.597  0.00  0.00    +0.000 F 
ATOM     14  C   UNL     1       1.553   4.143  18.131  0.00  0.00    +0.000 A 
ATOM     15  C   UNL     1       2.783   4.742  17.855  0.00  0.00    +0.000 A 
ENDBRANCH   8   9
TORSDOF 1
ENDMDL
MODEL 7
REMARK VINA RESULT:      -6.9      3.034      4.887
REMARK  Name = 
REMARK  1 active torsions:
REMARK  status: ('A' for Active; 'I' for Inactive)
REMARK    1  A    between atoms: N_8  and  C_9
REMARK                            x       y       z     vdW  Elec       q    Type
REMARK                         _______ _______ _______ _____ _____    ______ ____
ROOT
ATOM      1  O   UNL     1       6.278   4.795  19.974  0.00  0.00    +0.000 OA
ATOM      2  C   UNL     1       6.607   5.496  19.015  0.00  0.00    +0.000 C 
ATOM      3  C   UNL     1       8.005   6.062  18.976  0.00  0.00    +0.000 C 
ATOM      4  C   UNL     1       8.015   7.430  18.338  0.00  0.00    +0.000 C 
ATOM      5  C   UNL     1       7.499   7.299  16.925  0.00  0.00    +0.000 C 
ATOM      6  C   UNL     1       6.131   6.661  16.868  0.00  0.00    +0.000 C 
ATOM      7  O   UNL     1       5.446   6.841  15.856  0.00  0.00    +0.000 OA
ATOM      8  N   UNL     1       5.779   5.809  17.928  0.00  0.00    +0.000 N 
ENDROOT
BRANCH   8   9
ATOM      9  C   UNL     1       4.475   5.219  17.892  0.00  0.00    +0.000 A 
ATOM     10  C   UNL     1       4.275   3.967  17.286  0.00  0.00    +0.000 A 
ATOM     11  C   UNL     1       2.998   3.400  17.245  0.00  0.00    +0.000 A 
ATOM     12  C   UNL     1       1.932   4.063  17.840  0.00  0.00    +0.000 A 
ATOM     13  F   UNL     1       0.714   3.508  17.818  0.00  0.00    +0.000 F 
ATOM     14  C   UNL     1       2.113   5.294  18.458  0.00  0.00    +0.000 A 
ATOM     15  C   UNL     1       3.380   5.881  18.467  0.00  0.00    +0.000 A 
ENDBRANCH   8   9
TORSDOF 1
ENDMDL
MODEL 8
REMARK VINA RESULT:      -6.8      2.871      5.189
REMARK  Name = 
REMARK  1 active torsions:
REMARK  status: ('A' for Active; 'I' for Inactive)
REMARK    1  A    between atoms: N_8  and  C_9
REMARK                            x       y       z     vdW  Elec       q    Type
REMARK                         _______ _______ _______ _____ _____    ______ ____
ROOT
ATOM      1  O   UNL     1       3.625   3.799  16.602  0.00  0.00    +0.000 OA
ATOM      2  C   UNL     1       4.694   4.289  16.971  0.00  0.00    +0.000 C 
ATOM      3  C   UNL     1       5.683   4.743  15.927  0.00  0.00    +0.000 C 
ATOM      4  C   UNL     1       7.101   4.513  16.390  0.00  0.00    +0.000 C 
ATOM      5  C   UNL     1       7.322   5.308  17.654  0.00  0.00    +0.000 C 
ATOM      6  C   UNL     1       6.316   4.973  18.730  0.00  0.00    +0.000 C 
ATOM      7  O   UNL     1       6.601   5.246  19.901  0.00  0.00    +0.000 OA
ATOM      8  N   UNL     1       5.071   4.476  18.308  0.00  0.00    +0.000 N 
ENDROOT
BRANCH   8   9
ATOM      9  C   UNL     1       4.122   4.134  19.323  0.00  0.00    +0.000 A 
ATOM     10  C   UNL     1       3.222   5.097  19.812  0.00  0.00    +0.000 A 
ATOM     11  C   UNL     1       2.303   4.760  20.810  0.00  0.00    +0.000 A 
ATOM     12  C   UNL     1       2.257   3.458  21.292  0.00  0.00    +0.000 A 
ATOM     13  F   UNL     1       1.362   3.133  22.232  0.00  0.00    +0.000 F 
ATOM     14  C   UNL     1       3.128   2.489  20.809  0.00  0.00    +0.000 A 
ATOM     15  C   UNL     1       4.073   2.831  19.840  0.00  0.00    +0.000 A 
ENDBRANCH   8   9
TORSDOF 1
ENDMDL
MODEL 9
REMARK VINA RESULT:      -6.8      2.869      5.183
REMARK  Name = 
REMARK  1 active torsions:
REMARK  status: ('A' for Active; 'I' for Inactive)
REMARK    1  A    between atoms: N_8  and  C_9
REMARK                            x       y       z     vdW  Elec       q    Type
REMARK                         _______ _______ _______ _____ _____    ______ ____
ROOT
ATOM      1  O   UNL     1       3.656   3.762  16.566  0.00  0.00    +0.000 OA
ATOM      2  C   UNL     1       4.714   4.271  16.940  0.00  0.00    +0.000 C 
ATOM      3  C   UNL     1       5.698   4.747  15.900  0.00  0.00    +0.000 C 
ATOM      4  C   UNL     1       7.118   4.542  16.368  0.00  0.00    +0.000 C 
ATOM      5  C   UNL     1       7.320   5.339  17.634  0.00  0.00    +0.000 C 
ATOM      6  C   UNL     1       6.317   4.983  18.705  0.00  0.00    +0.000 C 
ATOM      7  O   UNL     1       6.592   5.259  19.878  0.00  0.00    +0.000 OA
ATOM      8  N   UNL     1       5.083   4.463  18.279  0.00  0.00    +0.000 N 
ENDROOT
BRANCH   8   9
ATOM      9  C   UNL     1       4.137   4.102  19.290  0.00  0.00    +0.000 A 
ATOM     10  C   UNL     1       4.125   2.802  19.824  0.00  0.00    +0.000 A 
ATOM     11  C   UNL     1       3.192   2.452  20.805  0.00  0.00    +0.000 A 
ATOM     12  C   UNL     1       2.299   3.406  21.277  0.00  0.00    +0.000 A 
ATOM     13  F   UNL     1       1.422   3.074  22.231  0.00  0.00    +0.000 F 
ATOM     14  C   UNL     1       2.307   4.701  20.772  0.00  0.00    +0.000 A 
ATOM     15  C   UNL     1       3.211   5.043  19.765  0.00  0.00    +0.000 A 
ENDBRANCH   8   9
TORSDOF 1
ENDMDL
