MODEL 1
REMARK VINA RESULT:      -7.4      0.000      0.000
REMARK  Name = 
REMARK  2 active torsions:
REMARK  status: ('A' for Active; 'I' for Inactive)
REMARK    1  A    between atoms: N_3  and  C_4
REMARK    2  A    between atoms: N_11  and  C_12
REMARK                            x       y       z     vdW  Elec       q    Type
REMARK                         _______ _______ _______ _____ _____    ______ ____
ROOT
ATOM      1  O   UNL     1       4.196   5.018  16.570  0.00  0.00    +0.000 OA
ATOM      2  C   UNL     1       4.811   4.026  16.941  0.00  0.00    +0.000 C 
ATOM      3  N   UNL     1       5.864   3.447  16.250  0.00  0.00    +0.000 N 
ATOM      4  N   UNL     1       4.506   3.322  18.093  0.00  0.00    +0.000 N 
ATOM      5  H   UNL     1       6.142   2.526  16.555  0.00  0.00    +0.000 HD
ATOM      6  H   UNL     1       5.256   2.821  18.551  0.00  0.00    +0.000 HD
ENDROOT
BRANCH   3   7
ATOM      7  C   UNL     1       6.357   3.878  14.995  0.00  0.00    +0.000 A 
ATOM      8  C   UNL     1       7.296   4.907  14.847  0.00  0.00    +0.000 A 
ATOM      9  C   UNL     1       7.692   5.338  13.578  0.00  0.00    +0.000 A 
ATOM     10  C   UNL     1       7.161   4.728  12.454  0.00  0.00    +0.000 A 
ATOM     11  F   UNL     1       7.526   5.152  11.237  0.00  0.00    +0.000 F 
ATOM     12  C   UNL     1       6.253   3.683  12.575  0.00  0.00    +0.000 A 
ATOM     13  C   UNL     1       5.856   3.251  13.845  0.00  0.00    +0.000 A 
ENDBRANCH   3   7
BRANCH   4  14
ATOM     14  C   UNL     1       3.328   3.505  18.860  0.00  0.00    +0.000 A 
ATOM     15  C   UNL     1       3.244   4.407  19.927  0.00  0.00    +0.000 A 
ATOM     16  C   UNL     1       2.050   4.561  20.639  0.00  0.00    +0.000 A 
ATOM     17  C   UNL     1       0.923   3.821  20.288  0.00  0.00    +0.000 A 
ATOM     18  C   UNL     1       0.989   2.927  19.221  0.00  0.00    +0.000 A 
ATOM     19  C   UNL     1       2.182   2.782  18.513  0.00  0.00    +0.000 A 
ATOM     20  F   UNL     1       2.228   1.916  17.487  0.00  0.00    +0.000 F 
ENDBRANCH   4  14
TORSDOF 2
ENDMDL
MODEL 2
REMARK VINA RESULT:      -7.4      0.546      1.259
REMARK  Name = 
REMARK  2 active torsions:
REMARK  status: ('A' for Active; 'I' for Inactive)
REMARK    1  A    between atoms: N_3  and  C_4
REMARK    2  A    between atoms: N_11  and  C_12
REMARK                            x       y       z     vdW  Elec       q    Type
REMARK                         _______ _______ _______ _____ _____    ______ ____
ROOT
ATOM      1  O   UNL     1       3.989   4.839  16.723  0.00  0.00    +0.000 OA
ATOM      2  C   UNL     1       4.819   4.061  17.175  0.00  0.00    +0.000 C 
ATOM      3  N   UNL     1       5.937   3.614  16.488  0.00  0.00    +0.000 N 
ATOM      4  N   UNL     1       4.727   3.488  18.432  0.00  0.00    +0.000 N 
ATOM      5  H   UNL     1       6.420   2.825  16.893  0.00  0.00    +0.000 HD
ATOM      6  H   UNL     1       5.589   3.226  18.893  0.00  0.00    +0.000 HD
ENDROOT
BRANCH   3   7
ATOM      7  C   UNL     1       6.266   3.946  15.152  0.00  0.00    +0.000 A 
ATOM      8  C   UNL     1       5.669   3.342  14.037  0.00  0.00    +0.000 A 
ATOM      9  C   UNL     1       6.086   3.659  12.742  0.00  0.00    +0.000 A 
ATOM     10  C   UNL     1       7.090   4.595  12.558  0.00  0.00    +0.000 A 
ATOM     11  F   UNL     1       7.503   4.887  11.319  0.00  0.00    +0.000 F 
ATOM     12  C   UNL     1       7.674   5.232  13.646  0.00  0.00    +0.000 A 
ATOM     13  C   UNL     1       7.257   4.915  14.943  0.00  0.00    +0.000 A 
ENDBRANCH   3   7
BRANCH   4  14
ATOM     14  C   UNL     1       3.576   3.538  19.257  0.00  0.00    +0.000 A 
ATOM     15  C   UNL     1       3.261   4.637  20.064  0.00  0.00    +0.000 A 
ATOM     16  C   UNL     1       2.102   4.641  20.845  0.00  0.00    +0.000 A 
ATOM     17  C   UNL     1       1.238   3.548  20.824  0.00  0.00    +0.000 A 
ATOM     18  C   UNL     1       1.532   2.451  20.016  0.00  0.00    +0.000 A 
ATOM     19  C   UNL     1       2.689   2.457  19.237  0.00  0.00    +0.000 A 
ATOM     20  F   UNL     1       2.958   1.391  18.464  0.00  0.00    +0.000 F 
ENDBRANCH   4  14
TORSDOF 2
ENDMDL
MODEL 3
REMARK VINA RESULT:      -7.4      1.182      1.974
REMARK  Name = 
REMARK  2 active torsions:
REMARK  status: ('A' for Active; 'I' for Inactive)
REMARK    1  A    between atoms: N_3  and  C_4
REMARK    2  A    between atoms: N_11  and  C_12
REMARK                            x       y       z     vdW  Elec       q    Type
REMARK                         _______ _______ _______ _____ _____    ______ ____
ROOT
ATOM      1  O   UNL     1       3.992   4.865  16.625  0.00  0.00    +0.000 OA
ATOM      2  C   UNL     1       4.752   3.997  17.036  0.00  0.00    +0.000 C 
ATOM      3  N   UNL     1       5.836   3.500  16.329  0.00  0.00    +0.000 N 
ATOM      4  N   UNL     1       4.602   3.362  18.256  0.00  0.00    +0.000 N 
ATOM      5  H   UNL     1       6.250   2.653  16.689  0.00  0.00    +0.000 HD
ATOM      6  H   UNL     1       5.435   3.004  18.706  0.00  0.00    +0.000 HD
ENDROOT
BRANCH   3   7
ATOM      7  C   UNL     1       6.203   3.880  15.016  0.00  0.00    +0.000 A 
ATOM      8  C   UNL     1       5.633   3.324  13.863  0.00  0.00    +0.000 A 
ATOM      9  C   UNL     1       6.087   3.687  12.592  0.00  0.00    +0.000 A 
ATOM     10  C   UNL     1       7.102   4.623  12.473  0.00  0.00    +0.000 A 
ATOM     11  F   UNL     1       7.551   4.958  11.257  0.00  0.00    +0.000 F 
ATOM     12  C   UNL     1       7.660   5.213  13.599  0.00  0.00    +0.000 A 
ATOM     13  C   UNL     1       7.206   4.850  14.872  0.00  0.00    +0.000 A 
ENDBRANCH   3   7
BRANCH   4  14
ATOM     14  C   UNL     1       3.450   3.459  19.078  0.00  0.00    +0.000 A 
ATOM     15  C   UNL     1       2.465   2.467  19.131  0.00  0.00    +0.000 A 
ATOM     16  C   UNL     1       1.358   2.605  19.974  0.00  0.00    +0.000 A 
ATOM     17  C   UNL     1       1.226   3.734  20.780  0.00  0.00    +0.000 A 
ATOM     18  C   UNL     1       2.206   4.725  20.746  0.00  0.00    +0.000 A 
ATOM     19  C   UNL     1       3.309   4.577  19.906  0.00  0.00    +0.000 A 
ATOM     20  F   UNL     1       4.244   5.541  19.885  0.00  0.00    +0.000 F 
ENDBRANCH   4  14
TORSDOF 2
ENDMDL
MODEL 4
REMARK VINA RESULT:      -7.3      1.113      1.584
REMARK  Name = 
REMARK  2 active torsions:
REMARK  status: ('A' for Active; 'I' for Inactive)
REMARK    1  A    between atoms: N_3  and  C_4
REMARK    2  A    between atoms: N_11  and  C_12
REMARK                            x       y       z     vdW  Elec       q    Type
REMARK                         _______ _______ _______ _____ _____    ______ ____
ROOT
ATOM      1  O   UNL     1       4.133   5.026  16.541  0.00  0.00    +0.000 OA
ATOM      2  C   UNL     1       4.749   4.043  16.932  0.00  0.00    +0.000 C 
ATOM      3  N   UNL     1       5.816   3.464  16.262  0.00  0.00    +0.000 N 
ATOM      4  N   UNL     1       4.431   3.348  18.086  0.00  0.00    +0.000 N 
ATOM      5  H   UNL     1       6.096   2.548  16.582  0.00  0.00    +0.000 HD
ATOM      6  H   UNL     1       5.179   2.857  18.561  0.00  0.00    +0.000 HD
ENDROOT
BRANCH   3   7
ATOM      7  C   UNL     1       6.325   3.886  15.011  0.00  0.00    +0.000 A 
ATOM      8  C   UNL     1       7.281   4.900  14.868  0.00  0.00    +0.000 A 
ATOM      9  C   UNL     1       7.694   5.323  13.602  0.00  0.00    +0.000 A 
ATOM     10  C   UNL     1       7.161   4.719  12.474  0.00  0.00    +0.000 A 
ATOM     11  F   UNL     1       7.541   5.136  11.260  0.00  0.00    +0.000 F 
ATOM     12  C   UNL     1       6.236   3.689  12.590  0.00  0.00    +0.000 A 
ATOM     13  C   UNL     1       5.824   3.265  13.858  0.00  0.00    +0.000 A 
ENDBRANCH   3   7
BRANCH   4  14
ATOM     14  C   UNL     1       3.241   3.531  18.834  0.00  0.00    +0.000 A 
ATOM     15  C   UNL     1       2.115   2.713  18.690  0.00  0.00    +0.000 A 
ATOM     16  C   UNL     1       0.973   2.927  19.467  0.00  0.00    +0.000 A 
ATOM     17  C   UNL     1       0.944   3.958  20.404  0.00  0.00    +0.000 A 
ATOM     18  C   UNL     1       2.062   4.775  20.566  0.00  0.00    +0.000 A 
ATOM     19  C   UNL     1       3.200   4.551  19.790  0.00  0.00    +0.000 A 
ATOM     20  F   UNL     1       4.268   5.348  19.959  0.00  0.00    +0.000 F 
ENDBRANCH   4  14
TORSDOF 2
ENDMDL
MODEL 5
REMARK VINA RESULT:      -7.0      1.195      1.841
REMARK  Name = 
REMARK  2 active torsions:
REMARK  status: ('A' for Active; 'I' for Inactive)
REMARK    1  A    between atoms: N_3  and  C_4
REMARK    2  A    between atoms: N_11  and  C_12
REMARK                            x       y       z     vdW  Elec       q    Type
REMARK                         _______ _______ _______ _____ _____    ______ ____
ROOT
ATOM      1  O   UNL     1       4.212   4.784  16.811  0.00  0.00    +0.000 OA
ATOM      2  C   UNL     1       4.775   3.711  16.987  0.00  0.00    +0.000 C 
ATOM      3  N   UNL     1       5.755   3.190  16.156  0.00  0.00    +0.000 N 
ATOM      4  N   UNL     1       4.477   2.851  18.030  0.00  0.00    +0.000 N 
ATOM      5  H   UNL     1       5.985   2.217  16.298  0.00  0.00    +0.000 HD
ATOM      6  H   UNL     1       5.212   2.240  18.361  0.00  0.00    +0.000 HD
ENDROOT
BRANCH   3   7
ATOM      7  C   UNL     1       6.218   3.786  14.959  0.00  0.00    +0.000 A 
ATOM      8  C   UNL     1       5.812   3.372  13.683  0.00  0.00    +0.000 A 
ATOM      9  C   UNL     1       6.359   3.952  12.535  0.00  0.00    +0.000 A 
ATOM     10  C   UNL     1       7.301   4.959  12.662  0.00  0.00    +0.000 A 
ATOM     11  F   UNL     1       7.840   5.502  11.563  0.00  0.00    +0.000 F 
ATOM     12  C   UNL     1       7.696   5.409  13.916  0.00  0.00    +0.000 A 
ATOM     13  C   UNL     1       7.148   4.830  15.066  0.00  0.00    +0.000 A 
ENDBRANCH   3   7
BRANCH   4  14
ATOM     14  C   UNL     1       3.350   2.978  18.880  0.00  0.00    +0.000 A 
ATOM     15  C   UNL     1       2.084   3.358  18.420  0.00  0.00    +0.000 A 
ATOM     16  C   UNL     1       1.002   3.450  19.301  0.00  0.00    +0.000 A 
ATOM     17  C   UNL     1       1.171   3.156  20.653  0.00  0.00    +0.000 A 
ATOM     18  C   UNL     1       2.423   2.765  21.123  0.00  0.00    +0.000 A 
ATOM     19  C   UNL     1       3.496   2.672  20.237  0.00  0.00    +0.000 A 
ATOM     20  F   UNL     1       4.697   2.294  20.707  0.00  0.00    +0.000 F 
ENDBRANCH   4  14
TORSDOF 2
ENDMDL
MODEL 6
REMARK VINA RESULT:      -6.9      1.139      1.420
REMARK  Name = 
REMARK  2 active torsions:
REMARK  status: ('A' for Active; 'I' for Inactive)
REMARK    1  A    between atoms: N_3  and  C_4
REMARK    2  A    between atoms: N_11  and  C_12
REMARK                            x       y       z     vdW  Elec       q    Type
REMARK                         _______ _______ _______ _____ _____    ______ ____
ROOT
ATOM      1  O   UNL     1       4.454   4.906  16.421  0.00  0.00    +0.000 OA
ATOM      2  C   UNL     1       4.927   3.788  16.583  0.00  0.00    +0.000 C 
ATOM      3  N   UNL     1       5.874   3.206  15.755  0.00  0.00    +0.000 N 
ATOM      4  N   UNL     1       4.543   2.934  17.603  0.00  0.00    +0.000 N 
ATOM      5  H   UNL     1       6.023   2.215  15.880  0.00  0.00    +0.000 HD
ATOM      6  H   UNL     1       5.222   2.260  17.932  0.00  0.00    +0.000 HD
ENDROOT
BRANCH   3   7
ATOM      7  C   UNL     1       6.403   3.786  14.577  0.00  0.00    +0.000 A 
ATOM      8  C   UNL     1       7.322   4.844  14.584  0.00  0.00    +0.000 A 
ATOM      9  C   UNL     1       7.754   5.424  13.388  0.00  0.00    +0.000 A 
ATOM     10  C   UNL     1       7.279   4.935  12.182  0.00  0.00    +0.000 A 
ATOM     11  F   UNL     1       7.678   5.503  11.037  0.00  0.00    +0.000 F 
ATOM     12  C   UNL     1       6.392   3.866  12.149  0.00  0.00    +0.000 A 
ATOM     13  C   UNL     1       5.960   3.285  13.345  0.00  0.00    +0.000 A 
ENDBRANCH   3   7
BRANCH   4  14
ATOM     14  C   UNL     1       3.417   3.135  18.440  0.00  0.00    +0.000 A 
ATOM     15  C   UNL     1       2.160   3.510  17.952  0.00  0.00    +0.000 A 
ATOM     16  C   UNL     1       1.078   3.676  18.822  0.00  0.00    +0.000 A 
ATOM     17  C   UNL     1       1.237   3.462  20.190  0.00  0.00    +0.000 A 
ATOM     18  C   UNL     1       2.481   3.078  20.688  0.00  0.00    +0.000 A 
ATOM     19  C   UNL     1       3.554   2.910  19.813  0.00  0.00    +0.000 A 
ATOM     20  F   UNL     1       4.746   2.539  20.310  0.00  0.00    +0.000 F 
ENDBRANCH   4  14
TORSDOF 2
ENDMDL
MODEL 7
REMARK VINA RESULT:      -6.8      1.044      1.547
REMARK  Name = 
REMARK  2 active torsions:
REMARK  status: ('A' for Active; 'I' for Inactive)
REMARK    1  A    between atoms: N_3  and  C_4
REMARK    2  A    between atoms: N_11  and  C_12
REMARK                            x       y       z     vdW  Elec       q    Type
REMARK                         _______ _______ _______ _____ _____    ______ ____
ROOT
ATOM      1  O   UNL     1       4.654   4.719  17.620  0.00  0.00    +0.000 OA
ATOM      2  C   UNL     1       4.736   3.521  17.378  0.00  0.00    +0.000 C 
ATOM      3  N   UNL     1       5.401   2.980  16.289  0.00  0.00    +0.000 N 
ATOM      4  N   UNL     1       4.133   2.541  18.148  0.00  0.00    +0.000 N 
ATOM      5  H   UNL     1       5.218   2.007  16.095  0.00  0.00    +0.000 HD
ATOM      6  H   UNL     1       4.563   1.625  18.164  0.00  0.00    +0.000 HD
ENDROOT
BRANCH   3   7
ATOM      7  C   UNL     1       6.044   3.723  15.269  0.00  0.00    +0.000 A 
ATOM      8  C   UNL     1       5.783   3.544  13.904  0.00  0.00    +0.000 A 
ATOM      9  C   UNL     1       6.501   4.256  12.938  0.00  0.00    +0.000 A 
ATOM     10  C   UNL     1       7.470   5.161  13.339  0.00  0.00    +0.000 A 
ATOM     11  F   UNL     1       8.171   5.830  12.415  0.00  0.00    +0.000 F 
ATOM     12  C   UNL     1       7.723   5.380  14.688  0.00  0.00    +0.000 A 
ATOM     13  C   UNL     1       7.005   4.668  15.654  0.00  0.00    +0.000 A 
ENDBRANCH   3   7
BRANCH   4  14
ATOM     14  C   UNL     1       3.173   2.790  19.160  0.00  0.00    +0.000 A 
ATOM     15  C   UNL     1       3.442   2.632  20.524  0.00  0.00    +0.000 A 
ATOM     16  C   UNL     1       2.463   2.909  21.483  0.00  0.00    +0.000 A 
ATOM     17  C   UNL     1       1.203   3.356  21.089  0.00  0.00    +0.000 A 
ATOM     18  C   UNL     1       0.924   3.530  19.735  0.00  0.00    +0.000 A 
ATOM     19  C   UNL     1       1.908   3.255  18.785  0.00  0.00    +0.000 A 
ATOM     20  F   UNL     1       1.623   3.427  17.484  0.00  0.00    +0.000 F 
ENDBRANCH   4  14
TORSDOF 2
ENDMDL
MODEL 8
REMARK VINA RESULT:      -6.7      6.189      7.417
REMARK  Name = 
REMARK  2 active torsions:
REMARK  status: ('A' for Active; 'I' for Inactive)
REMARK    1  A    between atoms: N_3  and  C_4
REMARK    2  A    between atoms: N_11  and  C_12
REMARK                            x       y       z     vdW  Elec       q    Type
REMARK                         _______ _______ _______ _____ _____    ______ ____
ROOT
ATOM      1  O   UNL     1       8.339   7.374  18.588  0.00  0.00    +0.000 OA
ATOM      2  C   UNL     1       7.805   8.116  17.773  0.00  0.00    +0.000 C 
ATOM      3  N   UNL     1       8.101   9.461  17.619  0.00  0.00    +0.000 N 
ATOM      4  N   UNL     1       6.797   7.712  16.915  0.00  0.00    +0.000 N 
ATOM      5  H   UNL     1       7.452   9.998  17.063  0.00  0.00    +0.000 HD
ATOM      6  H   UNL     1       6.708   8.198  16.031  0.00  0.00    +0.000 HD
ENDROOT
BRANCH   3   7
ATOM      7  C   UNL     1       9.023  10.193  18.406  0.00  0.00    +0.000 A 
ATOM      8  C   UNL     1       8.972  10.246  19.805  0.00  0.00    +0.000 A 
ATOM      9  C   UNL     1       9.866  11.044  20.524  0.00  0.00    +0.000 A 
ATOM     10  C   UNL     1      10.824  11.778  19.845  0.00  0.00    +0.000 A 
ATOM     11  F   UNL     1      11.669  12.558  20.531  0.00  0.00    +0.000 F 
ATOM     12  C   UNL     1      10.916  11.717  18.460  0.00  0.00    +0.000 A 
ATOM     13  C   UNL     1      10.021  10.918  17.739  0.00  0.00    +0.000 A 
ENDBRANCH   3   7
BRANCH   4  14
ATOM     14  C   UNL     1       6.099   6.482  17.015  0.00  0.00    +0.000 A 
ATOM     15  C   UNL     1       5.001   6.294  17.861  0.00  0.00    +0.000 A 
ATOM     16  C   UNL     1       4.337   5.065  17.907  0.00  0.00    +0.000 A 
ATOM     17  C   UNL     1       4.759   4.009  17.101  0.00  0.00    +0.000 A 
ATOM     18  C   UNL     1       5.844   4.185  16.245  0.00  0.00    +0.000 A 
ATOM     19  C   UNL     1       6.498   5.416  16.202  0.00  0.00    +0.000 A 
ATOM     20  F   UNL     1       7.543   5.569  15.371  0.00  0.00    +0.000 F 
ENDBRANCH   4  14
TORSDOF 2
ENDMDL
MODEL 9
REMARK VINA RESULT:      -6.6      1.863      7.385
REMARK  Name = 
REMARK  2 active torsions:
REMARK  status: ('A' for Active; 'I' for Inactive)
REMARK    1  A    between atoms: N_3  and  C_4
REMARK    2  A    between atoms: N_11  and  C_12
REMARK                            x       y       z     vdW  Elec       q    Type
REMARK                         _______ _______ _______ _____ _____    ______ ____
ROOT
ATOM      1  O   UNL     1       4.720   3.253  17.057  0.00  0.00    +0.000 OA
ATOM      2  C   UNL     1       4.348   4.407  16.883  0.00  0.00    +0.000 C 
ATOM      3  N   UNL     1       3.417   5.063  17.673  0.00  0.00    +0.000 N 
ATOM      4  N   UNL     1       4.784   5.203  15.838  0.00  0.00    +0.000 N 
ATOM      5  H   UNL     1       3.050   5.927  17.302  0.00  0.00    +0.000 HD
ATOM      6  H   UNL     1       4.792   6.205  15.981  0.00  0.00    +0.000 HD
ENDROOT
BRANCH   3   7
ATOM      7  C   UNL     1       2.721   4.492  18.766  0.00  0.00    +0.000 A 
ATOM      8  C   UNL     1       3.060   4.728  20.105  0.00  0.00    +0.000 A 
ATOM      9  C   UNL     1       2.381   4.079  21.140  0.00  0.00    +0.000 A 
ATOM     10  C   UNL     1       1.349   3.206  20.837  0.00  0.00    +0.000 A 
ATOM     11  F   UNL     1       0.710   2.570  21.827  0.00  0.00    +0.000 F 
ATOM     12  C   UNL     1       0.973   2.982  19.519  0.00  0.00    +0.000 A 
ATOM     13  C   UNL     1       1.652   3.631  18.482  0.00  0.00    +0.000 A 
ENDBRANCH   3   7
BRANCH   4  14
ATOM     14  C   UNL     1       5.522   4.734  14.722  0.00  0.00    +0.000 A 
ATOM     15  C   UNL     1       4.951   3.980  13.691  0.00  0.00    +0.000 A 
ATOM     16  C   UNL     1       5.722   3.558  12.603  0.00  0.00    +0.000 A 
ATOM     17  C   UNL     1       7.073   3.891  12.530  0.00  0.00    +0.000 A 
ATOM     18  C   UNL     1       7.653   4.651  13.544  0.00  0.00    +0.000 A 
ATOM     19  C   UNL     1       6.876   5.072  14.624  0.00  0.00    +0.000 A 
ATOM     20  F   UNL     1       7.451   5.803  15.593  0.00  0.00    +0.000 F 
ENDBRANCH   4  14
TORSDOF 2
ENDMDL
