MODEL 1
REMARK VINA RESULT:      -7.7      0.000      0.000
REMARK  Name = 
REMARK  10 active torsions:
REMARK  status: ('A' for Active; 'I' for Inactive)
REMARK    1  A    between atoms: C_1  and  N_2
REMARK    2  A    between atoms: N_2  and  C_3
REMARK    3  A    between atoms: N_2  and  C_4
REMARK    4  A    between atoms: C_4  and  C_5
REMARK    5  A    between atoms: C_5  and  N_6
REMARK    6  A    between atoms: N_6  and  C_7
REMARK    7  A    between atoms: N_6  and  C_14
REMARK    8  A    between atoms: C_7  and  C_8
REMARK    9  A    between atoms: C_14  and  C_15
REMARK   10  A    between atoms: C_18  and  C_19
REMARK                            x       y       z     vdW  Elec       q    Type
REMARK                         _______ _______ _______ _____ _____    ______ ____
ROOT
ATOM      1  N   UNL     1       3.796   5.728  18.203  0.00  0.00    +0.000 NA
ENDROOT
BRANCH   1   2
ATOM      2  C   UNL     1       3.533   4.420  17.544  0.00  0.00    +0.000 C 
BRANCH   2   3
ATOM      3  C   UNL     1       2.082   3.888  17.693  0.00  0.00    +0.000 C 
BRANCH   3   5
ATOM      4  C   UNL     1       3.028   2.317  19.248  0.00  0.00    +0.000 C 
ATOM      5  N   UNL     1       1.962   2.527  18.261  0.00  0.00    +0.000 NA
ATOM      6  C   UNL     1       0.662   2.295  18.890  0.00  0.00    +0.000 C 
ENDBRANCH   3   5
ENDBRANCH   2   3
ENDBRANCH   1   2
BRANCH   1   7
ATOM      7  C   UNL     1       2.773   6.093  19.219  0.00  0.00    +0.000 C 
BRANCH   7   8
ATOM      8  C   UNL     1       2.251   7.515  19.170  0.00  0.00    +0.000 A 
ATOM      9  C   UNL     1       1.615   8.068  20.287  0.00  0.00    +0.000 A 
ATOM     10  C   UNL     1       0.927   9.277  20.198  0.00  0.00    +0.000 A 
ATOM     11  C   UNL     1       0.925   9.980  18.998  0.00  0.00    +0.000 A 
ATOM     12  C   UNL     1       1.647   9.499  17.912  0.00  0.00    +0.000 A 
ATOM     13  C   UNL     1       2.314   8.277  17.995  0.00  0.00    +0.000 A 
ENDBRANCH   7   8
ENDBRANCH   1   7
BRANCH   1  14
ATOM     14  C   UNL     1       5.183   5.721  18.735  0.00  0.00    +0.000 C 
BRANCH  14  15
ATOM     15  C   UNL     1       6.202   5.338  17.709  0.00  0.00    +0.000 A 
ATOM     16  C   UNL     1       7.414   4.703  17.844  0.00  0.00    +0.000 A 
ATOM     17  O   UNL     1       7.907   4.448  16.598  0.00  0.00    +0.000 OA
ATOM     18  C   UNL     1       6.962   4.957  15.738  0.00  0.00    +0.000 A 
ATOM     19  N   UNL     1       5.974   5.571  16.367  0.00  0.00    +0.000 NA
BRANCH  18  20
ATOM     20  C   UNL     1       6.971   4.755  14.316  0.00  0.00    +0.000 A 
ATOM     21  C   UNL     1       6.276   3.799  13.586  0.00  0.00    +0.000 A 
ATOM     22  C   UNL     1       6.663   3.933  12.232  0.00  0.00    +0.000 A 
ATOM     23  C   UNL     1       7.570   4.965  12.203  0.00  0.00    +0.000 A 
ATOM     24  O   UNL     1       7.759   5.470  13.448  0.00  0.00    +0.000 OA
ENDBRANCH  18  20
ENDBRANCH  14  15
ENDBRANCH   1  14
TORSDOF 8
ENDMDL
MODEL 2
REMARK VINA RESULT:      -7.7      0.935      1.404
REMARK  Name = 
REMARK  10 active torsions:
REMARK  status: ('A' for Active; 'I' for Inactive)
REMARK    1  A    between atoms: C_1  and  N_2
REMARK    2  A    between atoms: N_2  and  C_3
REMARK    3  A    between atoms: N_2  and  C_4
REMARK    4  A    between atoms: C_4  and  C_5
REMARK    5  A    between atoms: C_5  and  N_6
REMARK    6  A    between atoms: N_6  and  C_7
REMARK    7  A    between atoms: N_6  and  C_14
REMARK    8  A    between atoms: C_7  and  C_8
REMARK    9  A    between atoms: C_14  and  C_15
REMARK   10  A    between atoms: C_18  and  C_19
REMARK                            x       y       z     vdW  Elec       q    Type
REMARK                         _______ _______ _______ _____ _____    ______ ____
ROOT
ATOM      1  N   UNL     1       3.415   5.507  18.859  0.00  0.00    +0.000 NA
ENDROOT
BRANCH   1   2
ATOM      2  C   UNL     1       2.655   4.305  18.419  0.00  0.00    +0.000 C 
BRANCH   2   3
ATOM      3  C   UNL     1       3.034   2.985  19.146  0.00  0.00    +0.000 C 
BRANCH   3   5
ATOM      4  C   UNL     1       2.489   2.835  21.484  0.00  0.00    +0.000 C 
ATOM      5  N   UNL     1       2.040   2.497  20.127  0.00  0.00    +0.000 NA
ATOM      6  C   UNL     1       0.707   3.056  19.901  0.00  0.00    +0.000 C 
ENDBRANCH   3   5
ENDBRANCH   2   3
ENDBRANCH   1   2
BRANCH   1   7
ATOM      7  C   UNL     1       2.716   6.293  19.910  0.00  0.00    +0.000 C 
BRANCH   7   8
ATOM      8  C   UNL     1       2.068   7.588  19.464  0.00  0.00    +0.000 A 
ATOM      9  C   UNL     1       2.252   8.051  18.156  0.00  0.00    +0.000 A 
ATOM     10  C   UNL     1       1.866   9.339  17.786  0.00  0.00    +0.000 A 
ATOM     11  C   UNL     1       1.229  10.156  18.712  0.00  0.00    +0.000 A 
ATOM     12  C   UNL     1       0.937   9.672  19.982  0.00  0.00    +0.000 A 
ATOM     13  C   UNL     1       1.347   8.392  20.357  0.00  0.00    +0.000 A 
ENDBRANCH   7   8
ENDBRANCH   1   7
BRANCH   1  14
ATOM     14  C   UNL     1       4.786   5.087  19.246  0.00  0.00    +0.000 C 
BRANCH  14  15
ATOM     15  C   UNL     1       5.799   5.338  18.175  0.00  0.00    +0.000 A 
ATOM     16  C   UNL     1       7.122   5.703  18.261  0.00  0.00    +0.000 A 
ATOM     17  O   UNL     1       7.662   5.666  17.010  0.00  0.00    +0.000 OA
ATOM     18  C   UNL     1       6.622   5.283  16.193  0.00  0.00    +0.000 A 
ATOM     19  N   UNL     1       5.478   5.164  16.843  0.00  0.00    +0.000 NA
BRANCH  18  20
ATOM     20  C   UNL     1       6.770   4.937  14.807  0.00  0.00    +0.000 A 
ATOM     21  C   UNL     1       6.056   3.989  14.084  0.00  0.00    +0.000 A 
ATOM     22  C   UNL     1       6.608   3.943  12.783  0.00  0.00    +0.000 A 
ATOM     23  C   UNL     1       7.625   4.867  12.774  0.00  0.00    +0.000 A 
ATOM     24  O   UNL     1       7.729   5.474  13.983  0.00  0.00    +0.000 OA
ENDBRANCH  18  20
ENDBRANCH  14  15
ENDBRANCH   1  14
TORSDOF 8
ENDMDL
MODEL 3
REMARK VINA RESULT:      -7.4      0.837      1.177
REMARK  Name = 
REMARK  10 active torsions:
REMARK  status: ('A' for Active; 'I' for Inactive)
REMARK    1  A    between atoms: C_1  and  N_2
REMARK    2  A    between atoms: N_2  and  C_3
REMARK    3  A    between atoms: N_2  and  C_4
REMARK    4  A    between atoms: C_4  and  C_5
REMARK    5  A    between atoms: C_5  and  N_6
REMARK    6  A    between atoms: N_6  and  C_7
REMARK    7  A    between atoms: N_6  and  C_14
REMARK    8  A    between atoms: C_7  and  C_8
REMARK    9  A    between atoms: C_14  and  C_15
REMARK   10  A    between atoms: C_18  and  C_19
REMARK                            x       y       z     vdW  Elec       q    Type
REMARK                         _______ _______ _______ _____ _____    ______ ____
ROOT
ATOM      1  N   UNL     1       3.895   4.807  19.207  0.00  0.00    +0.000 NA
ENDROOT
BRANCH   1   2
ATOM      2  C   UNL     1       4.047   3.381  19.605  0.00  0.00    +0.000 C 
BRANCH   2   3
ATOM      3  C   UNL     1       3.908   2.356  18.446  0.00  0.00    +0.000 C 
BRANCH   3   5
ATOM      4  C   UNL     1       1.576   2.131  18.986  0.00  0.00    +0.000 C 
ATOM      5  N   UNL     1       2.545   2.215  17.887  0.00  0.00    +0.000 NA
ATOM      6  C   UNL     1       2.185   3.322  17.002  0.00  0.00    +0.000 C 
ENDBRANCH   3   5
ENDBRANCH   2   3
ENDBRANCH   1   2
BRANCH   1   7
ATOM      7  C   UNL     1       2.729   5.475  19.844  0.00  0.00    +0.000 C 
BRANCH   7   8
ATOM      8  C   UNL     1       2.429   6.888  19.386  0.00  0.00    +0.000 A 
ATOM      9  C   UNL     1       1.816   7.794  20.260  0.00  0.00    +0.000 A 
ATOM     10  C   UNL     1       1.323   9.015  19.802  0.00  0.00    +0.000 A 
ATOM     11  C   UNL     1       1.499   9.370  18.470  0.00  0.00    +0.000 A 
ATOM     12  C   UNL     1       2.206   8.532  17.615  0.00  0.00    +0.000 A 
ATOM     13  C   UNL     1       2.676   7.299  18.069  0.00  0.00    +0.000 A 
ENDBRANCH   7   8
ENDBRANCH   1   7
BRANCH   1  14
ATOM     14  C   UNL     1       5.183   5.507  19.447  0.00  0.00    +0.000 C 
BRANCH  14  15
ATOM     15  C   UNL     1       6.186   5.275  18.362  0.00  0.00    +0.000 A 
ATOM     16  C   UNL     1       7.493   4.850  18.426  0.00  0.00    +0.000 A 
ATOM     17  O   UNL     1       7.944   4.655  17.154  0.00  0.00    +0.000 OA
ATOM     18  C   UNL     1       6.877   4.986  16.351  0.00  0.00    +0.000 A 
ATOM     19  N   UNL     1       5.842   5.442  17.035  0.00  0.00    +0.000 NA
BRANCH  18  20
ATOM     20  C   UNL     1       6.833   4.761  14.933  0.00  0.00    +0.000 A 
ATOM     21  C   UNL     1       6.053   3.844  14.239  0.00  0.00    +0.000 A 
ATOM     22  C   UNL     1       6.412   3.929  12.873  0.00  0.00    +0.000 A 
ATOM     23  C   UNL     1       7.386   4.894  12.801  0.00  0.00    +0.000 A 
ATOM     24  O   UNL     1       7.645   5.405  14.031  0.00  0.00    +0.000 OA
ENDBRANCH  18  20
ENDBRANCH  14  15
ENDBRANCH   1  14
TORSDOF 8
ENDMDL
MODEL 4
REMARK VINA RESULT:      -7.3      1.325      1.701
REMARK  Name = 
REMARK  10 active torsions:
REMARK  status: ('A' for Active; 'I' for Inactive)
REMARK    1  A    between atoms: C_1  and  N_2
REMARK    2  A    between atoms: N_2  and  C_3
REMARK    3  A    between atoms: N_2  and  C_4
REMARK    4  A    between atoms: C_4  and  C_5
REMARK    5  A    between atoms: C_5  and  N_6
REMARK    6  A    between atoms: N_6  and  C_7
REMARK    7  A    between atoms: N_6  and  C_14
REMARK    8  A    between atoms: C_7  and  C_8
REMARK    9  A    between atoms: C_14  and  C_15
REMARK   10  A    between atoms: C_18  and  C_19
REMARK                            x       y       z     vdW  Elec       q    Type
REMARK                         _______ _______ _______ _____ _____    ______ ____
ROOT
ATOM      1  N   UNL     1       4.403   4.338  18.919  0.00  0.00    +0.000 NA
ENDROOT
BRANCH   1   2
ATOM      2  C   UNL     1       4.075   2.908  19.170  0.00  0.00    +0.000 C 
BRANCH   2   3
ATOM      3  C   UNL     1       3.068   2.656  20.325  0.00  0.00    +0.000 C 
BRANCH   3   5
ATOM      4  C   UNL     1       0.776   3.386  20.324  0.00  0.00    +0.000 C 
ATOM      5  N   UNL     1       1.691   2.318  19.901  0.00  0.00    +0.000 NA
ATOM      6  C   UNL     1       1.581   2.124  18.456  0.00  0.00    +0.000 C 
ENDBRANCH   3   5
ENDBRANCH   2   3
ENDBRANCH   1   2
BRANCH   1   7
ATOM      7  C   UNL     1       3.752   5.269  19.878  0.00  0.00    +0.000 C 
BRANCH   7   8
ATOM      8  C   UNL     1       3.168   6.539  19.293  0.00  0.00    +0.000 A 
ATOM      9  C   UNL     1       2.270   7.309  20.042  0.00  0.00    +0.000 A 
ATOM     10  C   UNL     1       1.546   8.346  19.454  0.00  0.00    +0.000 A 
ATOM     11  C   UNL     1       1.765   8.665  18.119  0.00  0.00    +0.000 A 
ATOM     12  C   UNL     1       2.735   7.984  17.392  0.00  0.00    +0.000 A 
ATOM     13  C   UNL     1       3.440   6.930  17.975  0.00  0.00    +0.000 A 
ENDBRANCH   7   8
ENDBRANCH   1   7
BRANCH   1  14
ATOM     14  C   UNL     1       5.881   4.483  18.863  0.00  0.00    +0.000 C 
BRANCH  14  15
ATOM     15  C   UNL     1       6.366   5.039  17.562  0.00  0.00    +0.000 A 
ATOM     16  C   UNL     1       7.220   6.084  17.298  0.00  0.00    +0.000 A 
ATOM     17  O   UNL     1       7.467   6.108  15.958  0.00  0.00    +0.000 OA
ATOM     18  C   UNL     1       6.731   5.064  15.448  0.00  0.00    +0.000 A 
ATOM     19  N   UNL     1       5.996   4.459  16.365  0.00  0.00    +0.000 NA
BRANCH  18  20
ATOM     20  C   UNL     1       6.825   4.595  14.093  0.00  0.00    +0.000 A 
ATOM     21  C   UNL     1       7.627   5.090  13.072  0.00  0.00    +0.000 A 
ATOM     22  C   UNL     1       7.318   4.364  11.899  0.00  0.00    +0.000 A 
ATOM     23  C   UNL     1       6.349   3.460  12.262  0.00  0.00    +0.000 A 
ATOM     24  O   UNL     1       6.048   3.586  13.579  0.00  0.00    +0.000 OA
ENDBRANCH  18  20
ENDBRANCH  14  15
ENDBRANCH   1  14
TORSDOF 8
ENDMDL
MODEL 5
REMARK VINA RESULT:      -7.2      1.267      1.483
REMARK  Name = 
REMARK  10 active torsions:
REMARK  status: ('A' for Active; 'I' for Inactive)
REMARK    1  A    between atoms: C_1  and  N_2
REMARK    2  A    between atoms: N_2  and  C_3
REMARK    3  A    between atoms: N_2  and  C_4
REMARK    4  A    between atoms: C_4  and  C_5
REMARK    5  A    between atoms: C_5  and  N_6
REMARK    6  A    between atoms: N_6  and  C_7
REMARK    7  A    between atoms: N_6  and  C_14
REMARK    8  A    between atoms: C_7  and  C_8
REMARK    9  A    between atoms: C_14  and  C_15
REMARK   10  A    between atoms: C_18  and  C_19
REMARK                            x       y       z     vdW  Elec       q    Type
REMARK                         _______ _______ _______ _____ _____    ______ ____
ROOT
ATOM      1  N   UNL     1       3.099   5.166  18.370  0.00  0.00    +0.000 NA
ENDROOT
BRANCH   1   2
ATOM      2  C   UNL     1       1.770   4.523  18.561  0.00  0.00    +0.000 C 
BRANCH   2   3
ATOM      3  C   UNL     1       1.352   4.303  20.041  0.00  0.00    +0.000 C 
BRANCH   3   5
ATOM      4  C   UNL     1       1.392   2.008  19.323  0.00  0.00    +0.000 C 
ATOM      5  N   UNL     1       0.951   2.921  20.385  0.00  0.00    +0.000 NA
ATOM      6  C   UNL     1       1.500   2.480  21.667  0.00  0.00    +0.000 C 
ENDBRANCH   3   5
ENDBRANCH   2   3
ENDBRANCH   1   2
BRANCH   1   7
ATOM      7  C   UNL     1       3.368   6.260  19.340  0.00  0.00    +0.000 C 
BRANCH   7   8
ATOM      8  C   UNL     1       2.549   7.525  19.174  0.00  0.00    +0.000 A 
ATOM      9  C   UNL     1       1.848   8.055  20.263  0.00  0.00    +0.000 A 
ATOM     10  C   UNL     1       0.911   9.073  20.090  0.00  0.00    +0.000 A 
ATOM     11  C   UNL     1       0.716   9.617  18.826  0.00  0.00    +0.000 A 
ATOM     12  C   UNL     1       1.486   9.180  17.755  0.00  0.00    +0.000 A 
ATOM     13  C   UNL     1       2.404   8.144  17.925  0.00  0.00    +0.000 A 
ENDBRANCH   7   8
ENDBRANCH   1   7
BRANCH   1  14
ATOM     14  C   UNL     1       4.141   4.108  18.365  0.00  0.00    +0.000 C 
BRANCH  14  15
ATOM     15  C   UNL     1       5.297   4.430  17.472  0.00  0.00    +0.000 A 
ATOM     16  C   UNL     1       6.613   4.695  17.772  0.00  0.00    +0.000 A 
ATOM     17  O   UNL     1       7.310   4.784  16.604  0.00  0.00    +0.000 OA
ATOM     18  C   UNL     1       6.371   4.578  15.620  0.00  0.00    +0.000 A 
ATOM     19  N   UNL     1       5.146   4.449  16.100  0.00  0.00    +0.000 NA
BRANCH  18  20
ATOM     20  C   UNL     1       6.683   4.404  14.229  0.00  0.00    +0.000 A 
ATOM     21  C   UNL     1       7.516   5.185  13.437  0.00  0.00    +0.000 A 
ATOM     22  C   UNL     1       7.449   4.677  12.119  0.00  0.00    +0.000 A 
ATOM     23  C   UNL     1       6.584   3.611  12.172  0.00  0.00    +0.000 A 
ATOM     24  O   UNL     1       6.121   3.434  13.435  0.00  0.00    +0.000 OA
ENDBRANCH  18  20
ENDBRANCH  14  15
ENDBRANCH   1  14
TORSDOF 8
ENDMDL
MODEL 6
REMARK VINA RESULT:      -7.1      1.649      4.629
REMARK  Name = 
REMARK  10 active torsions:
REMARK  status: ('A' for Active; 'I' for Inactive)
REMARK    1  A    between atoms: C_1  and  N_2
REMARK    2  A    between atoms: N_2  and  C_3
REMARK    3  A    between atoms: N_2  and  C_4
REMARK    4  A    between atoms: C_4  and  C_5
REMARK    5  A    between atoms: C_5  and  N_6
REMARK    6  A    between atoms: N_6  and  C_7
REMARK    7  A    between atoms: N_6  and  C_14
REMARK    8  A    between atoms: C_7  and  C_8
REMARK    9  A    between atoms: C_14  and  C_15
REMARK   10  A    between atoms: C_18  and  C_19
REMARK                            x       y       z     vdW  Elec       q    Type
REMARK                         _______ _______ _______ _____ _____    ______ ____
ROOT
ATOM      1  N   UNL     1       2.871   6.992  18.445  0.00  0.00    +0.000 NA
ENDROOT
BRANCH   1   2
ATOM      2  C   UNL     1       2.167   8.105  19.139  0.00  0.00    +0.000 C 
BRANCH   2   3
ATOM      3  C   UNL     1       1.565   9.189  18.204  0.00  0.00    +0.000 C 
BRANCH   3   5
ATOM      4  C   UNL     1       0.515   9.829  20.270  0.00  0.00    +0.000 C 
ATOM      5  N   UNL     1       0.759  10.230  18.879  0.00  0.00    +0.000 NA
ATOM      6  C   UNL     1       1.405  11.542  18.856  0.00  0.00    +0.000 C 
ENDBRANCH   3   5
ENDBRANCH   2   3
ENDBRANCH   1   2
BRANCH   1   7
ATOM      7  C   UNL     1       1.946   6.012  17.815  0.00  0.00    +0.000 C 
BRANCH   7   8
ATOM      8  C   UNL     1       2.017   4.590  18.335  0.00  0.00    +0.000 A 
ATOM      9  C   UNL     1       2.555   3.576  17.534  0.00  0.00    +0.000 A 
ATOM     10  C   UNL     1       2.424   2.234  17.888  0.00  0.00    +0.000 A 
ATOM     11  C   UNL     1       1.807   1.896  19.086  0.00  0.00    +0.000 A 
ATOM     12  C   UNL     1       1.369   2.896  19.947  0.00  0.00    +0.000 A 
ATOM     13  C   UNL     1       1.477   4.237  19.580  0.00  0.00    +0.000 A 
ENDBRANCH   7   8
ENDBRANCH   1   7
BRANCH   1  14
ATOM     14  C   UNL     1       3.855   7.573  17.495  0.00  0.00    +0.000 C 
BRANCH  14  15
ATOM     15  C   UNL     1       4.854   6.574  17.004  0.00  0.00    +0.000 A 
ATOM     16  C   UNL     1       5.542   5.590  17.675  0.00  0.00    +0.000 A 
ATOM     17  O   UNL     1       6.226   4.845  16.762  0.00  0.00    +0.000 OA
ATOM     18  C   UNL     1       5.931   5.422  15.549  0.00  0.00    +0.000 A 
ATOM     19  N   UNL     1       5.185   6.507  15.665  0.00  0.00    +0.000 NA
BRANCH  18  20
ATOM     20  C   UNL     1       6.290   4.858  14.277  0.00  0.00    +0.000 A 
ATOM     21  C   UNL     1       5.665   3.820  13.597  0.00  0.00    +0.000 A 
ATOM     22  C   UNL     1       6.422   3.560  12.431  0.00  0.00    +0.000 A 
ATOM     23  C   UNL     1       7.466   4.453  12.454  0.00  0.00    +0.000 A 
ATOM     24  O   UNL     1       7.395   5.242  13.556  0.00  0.00    +0.000 OA
ENDBRANCH  18  20
ENDBRANCH  14  15
ENDBRANCH   1  14
TORSDOF 8
ENDMDL
MODEL 7
REMARK VINA RESULT:      -7.1      1.798      4.470
REMARK  Name = 
REMARK  10 active torsions:
REMARK  status: ('A' for Active; 'I' for Inactive)
REMARK    1  A    between atoms: C_1  and  N_2
REMARK    2  A    between atoms: N_2  and  C_3
REMARK    3  A    between atoms: N_2  and  C_4
REMARK    4  A    between atoms: C_4  and  C_5
REMARK    5  A    between atoms: C_5  and  N_6
REMARK    6  A    between atoms: N_6  and  C_7
REMARK    7  A    between atoms: N_6  and  C_14
REMARK    8  A    between atoms: C_7  and  C_8
REMARK    9  A    between atoms: C_14  and  C_15
REMARK   10  A    between atoms: C_18  and  C_19
REMARK                            x       y       z     vdW  Elec       q    Type
REMARK                         _______ _______ _______ _____ _____    ______ ____
ROOT
ATOM      1  N   UNL     1       3.217   6.681  18.483  0.00  0.00    +0.000 NA
ENDROOT
BRANCH   1   2
ATOM      2  C   UNL     1       2.337   7.725  19.077  0.00  0.00    +0.000 C 
BRANCH   2   3
ATOM      3  C   UNL     1       1.885   8.840  18.096  0.00  0.00    +0.000 C 
BRANCH   3   5
ATOM      4  C   UNL     1       1.870  11.220  18.440  0.00  0.00    +0.000 C 
ATOM      5  N   UNL     1       1.154   9.968  18.714  0.00  0.00    +0.000 NA
ATOM      6  C   UNL     1      -0.222  10.077  18.231  0.00  0.00    +0.000 C 
ENDBRANCH   3   5
ENDBRANCH   2   3
ENDBRANCH   1   2
BRANCH   1   7
ATOM      7  C   UNL     1       2.486   5.446  18.092  0.00  0.00    +0.000 C 
BRANCH   7   8
ATOM      8  C   UNL     1       2.407   4.351  19.137  0.00  0.00    +0.000 A 
ATOM      9  C   UNL     1       1.264   4.224  19.936  0.00  0.00    +0.000 A 
ATOM     10  C   UNL     1       1.253   3.384  21.049  0.00  0.00    +0.000 A 
ATOM     11  C   UNL     1       2.372   2.611  21.336  0.00  0.00    +0.000 A 
ATOM     12  C   UNL     1       3.473   2.641  20.488  0.00  0.00    +0.000 A 
ATOM     13  C   UNL     1       3.492   3.500  19.390  0.00  0.00    +0.000 A 
ENDBRANCH   7   8
ENDBRANCH   1   7
BRANCH   1  14
ATOM     14  C   UNL     1       3.990   7.290  17.370  0.00  0.00    +0.000 C 
BRANCH  14  15
ATOM     15  C   UNL     1       5.061   6.390  16.840  0.00  0.00    +0.000 A 
ATOM     16  C   UNL     1       5.937   5.558  17.497  0.00  0.00    +0.000 A 
ATOM     17  O   UNL     1       6.622   4.835  16.566  0.00  0.00    +0.000 OA
ATOM     18  C   UNL     1       6.135   5.273  15.356  0.00  0.00    +0.000 A 
ATOM     19  N   UNL     1       5.265   6.260  15.481  0.00  0.00    +0.000 NA
BRANCH  18  20
ATOM     20  C   UNL     1       6.440   4.660  14.093  0.00  0.00    +0.000 A 
ATOM     21  C   UNL     1       7.451   4.999  13.202  0.00  0.00    +0.000 A 
ATOM     22  C   UNL     1       7.307   4.173  12.063  0.00  0.00    +0.000 A 
ATOM     23  C   UNL     1       6.222   3.370  12.316  0.00  0.00    +0.000 A 
ATOM     24  O   UNL     1       5.695   3.649  13.535  0.00  0.00    +0.000 OA
ENDBRANCH  18  20
ENDBRANCH  14  15
ENDBRANCH   1  14
TORSDOF 8
ENDMDL
MODEL 8
REMARK VINA RESULT:      -7.1      1.002      1.278
REMARK  Name = 
REMARK  10 active torsions:
REMARK  status: ('A' for Active; 'I' for Inactive)
REMARK    1  A    between atoms: C_1  and  N_2
REMARK    2  A    between atoms: N_2  and  C_3
REMARK    3  A    between atoms: N_2  and  C_4
REMARK    4  A    between atoms: C_4  and  C_5
REMARK    5  A    between atoms: C_5  and  N_6
REMARK    6  A    between atoms: N_6  and  C_7
REMARK    7  A    between atoms: N_6  and  C_14
REMARK    8  A    between atoms: C_7  and  C_8
REMARK    9  A    between atoms: C_14  and  C_15
REMARK   10  A    between atoms: C_18  and  C_19
REMARK                            x       y       z     vdW  Elec       q    Type
REMARK                         _______ _______ _______ _____ _____    ______ ____
ROOT
ATOM      1  N   UNL     1       3.863   5.099  18.473  0.00  0.00    +0.000 NA
ENDROOT
BRANCH   1   2
ATOM      2  C   UNL     1       3.796   4.562  19.860  0.00  0.00    +0.000 C 
BRANCH   2   3
ATOM      3  C   UNL     1       3.625   3.022  19.963  0.00  0.00    +0.000 C 
BRANCH   3   5
ATOM      4  C   UNL     1       3.729   1.131  18.480  0.00  0.00    +0.000 C 
ATOM      5  N   UNL     1       3.009   2.375  18.783  0.00  0.00    +0.000 NA
ATOM      6  C   UNL     1       1.590   2.081  18.982  0.00  0.00    +0.000 C 
ENDBRANCH   3   5
ENDBRANCH   2   3
ENDBRANCH   1   2
BRANCH   1   7
ATOM      7  C   UNL     1       2.589   5.715  18.017  0.00  0.00    +0.000 C 
BRANCH   7   8
ATOM      8  C   UNL     1       2.315   7.127  18.497  0.00  0.00    +0.000 A 
ATOM      9  C   UNL     1       1.973   7.359  19.834  0.00  0.00    +0.000 A 
ATOM     10  C   UNL     1       1.495   8.601  20.250  0.00  0.00    +0.000 A 
ATOM     11  C   UNL     1       1.416   9.647  19.337  0.00  0.00    +0.000 A 
ATOM     12  C   UNL     1       1.858   9.464  18.032  0.00  0.00    +0.000 A 
ATOM     13  C   UNL     1       2.312   8.214  17.612  0.00  0.00    +0.000 A 
ENDBRANCH   7   8
ENDBRANCH   1   7
BRANCH   1  14
ATOM     14  C   UNL     1       5.032   6.010  18.374  0.00  0.00    +0.000 C 
BRANCH  14  15
ATOM     15  C   UNL     1       6.068   5.530  17.408  0.00  0.00    +0.000 A 
ATOM     16  C   UNL     1       7.307   4.974  17.627  0.00  0.00    +0.000 A 
ATOM     17  O   UNL     1       7.813   4.567  16.429  0.00  0.00    +0.000 OA
ATOM     18  C   UNL     1       6.849   4.908  15.509  0.00  0.00    +0.000 A 
ATOM     19  N   UNL     1       5.834   5.561  16.048  0.00  0.00    +0.000 NA
BRANCH  18  20
ATOM     20  C   UNL     1       6.871   4.507  14.129  0.00  0.00    +0.000 A 
ATOM     21  C   UNL     1       7.659   5.016  13.105  0.00  0.00    +0.000 A 
ATOM     22  C   UNL     1       7.272   4.369  11.909  0.00  0.00    +0.000 A 
ATOM     23  C   UNL     1       6.272   3.495  12.262  0.00  0.00    +0.000 A 
ATOM     24  O   UNL     1       6.025   3.565  13.594  0.00  0.00    +0.000 OA
ENDBRANCH  18  20
ENDBRANCH  14  15
ENDBRANCH   1  14
TORSDOF 8
ENDMDL
MODEL 9
REMARK VINA RESULT:      -7.0      1.310      1.635
REMARK  Name = 
REMARK  10 active torsions:
REMARK  status: ('A' for Active; 'I' for Inactive)
REMARK    1  A    between atoms: C_1  and  N_2
REMARK    2  A    between atoms: N_2  and  C_3
REMARK    3  A    between atoms: N_2  and  C_4
REMARK    4  A    between atoms: C_4  and  C_5
REMARK    5  A    between atoms: C_5  and  N_6
REMARK    6  A    between atoms: N_6  and  C_7
REMARK    7  A    between atoms: N_6  and  C_14
REMARK    8  A    between atoms: C_7  and  C_8
REMARK    9  A    between atoms: C_14  and  C_15
REMARK   10  A    between atoms: C_18  and  C_19
REMARK                            x       y       z     vdW  Elec       q    Type
REMARK                         _______ _______ _______ _____ _____    ______ ____
ROOT
ATOM      1  N   UNL     1       2.830   5.280  18.694  0.00  0.00    +0.000 NA
ENDROOT
BRANCH   1   2
ATOM      2  C   UNL     1       2.133   3.966  18.620  0.00  0.00    +0.000 C 
BRANCH   2   3
ATOM      3  C   UNL     1       2.987   2.743  19.055  0.00  0.00    +0.000 C 
BRANCH   3   5
ATOM      4  C   UNL     1       2.379   2.584  21.376  0.00  0.00    +0.000 C 
ATOM      5  N   UNL     1       3.495   2.789  20.444  0.00  0.00    +0.000 NA
ATOM      6  C   UNL     1       4.531   1.787  20.695  0.00  0.00    +0.000 C 
ENDBRANCH   3   5
ENDBRANCH   2   3
ENDBRANCH   1   2
BRANCH   1   7
ATOM      7  C   UNL     1       2.381   6.121  19.836  0.00  0.00    +0.000 C 
BRANCH   7   8
ATOM      8  C   UNL     1       2.032   7.560  19.515  0.00  0.00    +0.000 A 
ATOM      9  C   UNL     1       1.401   8.361  20.474  0.00  0.00    +0.000 A 
ATOM     10  C   UNL     1       0.865   9.602  20.137  0.00  0.00    +0.000 A 
ATOM     11  C   UNL     1       1.014  10.085  18.842  0.00  0.00    +0.000 A 
ATOM     12  C   UNL     1       1.736   9.353  17.907  0.00  0.00    +0.000 A 
ATOM     13  C   UNL     1       2.250   8.100  18.240  0.00  0.00    +0.000 A 
ENDBRANCH   7   8
ENDBRANCH   1   7
BRANCH   1  14
ATOM     14  C   UNL     1       4.296   5.041  18.675  0.00  0.00    +0.000 C 
BRANCH  14  15
ATOM     15  C   UNL     1       4.956   5.554  17.435  0.00  0.00    +0.000 A 
ATOM     16  C   UNL     1       5.668   6.709  17.211  0.00  0.00    +0.000 A 
ATOM     17  O   UNL     1       6.192   6.655  15.954  0.00  0.00    +0.000 OA
ATOM     18  C   UNL     1       5.761   5.451  15.448  0.00  0.00    +0.000 A 
ATOM     19  N   UNL     1       4.951   4.809  16.272  0.00  0.00    +0.000 NA
BRANCH  18  20
ATOM     20  C   UNL     1       6.219   4.884  14.210  0.00  0.00    +0.000 A 
ATOM     21  C   UNL     1       5.697   3.794  13.525  0.00  0.00    +0.000 A 
ATOM     22  C   UNL     1       6.527   3.558  12.405  0.00  0.00    +0.000 A 
ATOM     23  C   UNL     1       7.510   4.516  12.459  0.00  0.00    +0.000 A 
ATOM     24  O   UNL     1       7.333   5.322  13.536  0.00  0.00    +0.000 OA
ENDBRANCH  18  20
ENDBRANCH  14  15
ENDBRANCH   1  14
TORSDOF 8
ENDMDL
